#------------------------------------------------------------------------------
#$Date: 2017-03-05 07:04:49 +0200 (Sun, 05 Mar 2017) $
#$Revision: 193785 $
#$URL: file:///home/coder/svn-repositories/cod/cif/7/04/19/7041966.cif $
#------------------------------------------------------------------------------
#
# This file is available in the Crystallography Open Database (COD),
# http://www.crystallography.net/
#
# All data on this site have been placed in the public domain by the
# contributors.
#
data_7041966
loop_
_publ_author_name
'Gholami, Ghazale'
'Baggi, Giorgio'
'Zhu, Kelong'
'Loeb, Stephen J.'
_publ_section_title
;
 Metal-organic frameworks utilising an interlocked, hexadentate linker
 containing a tetra-carboxylate axle and a bis(pyridine) wheel.
;
_journal_issue                   8
_journal_name_full
'Dalton transactions (Cambridge, England : 2003)'
_journal_page_first              2462
_journal_page_last               2470
_journal_paper_doi               10.1039/c6dt04596k
_journal_volume                  46
_journal_year                    2017
_chemical_formula_moiety         '0.5(C164 H128 N12 O32 Zn4), 2(C5 H11 N O)'
_chemical_formula_sum            'C102 H108 N10 O20 Zn2'
_chemical_formula_weight         1924.72
_space_group_crystal_system      monoclinic
_space_group_IT_number           14
_space_group_name_Hall           '-P 2ybc'
_space_group_name_H-M_alt        'P 1 21/c 1'
_symmetry_space_group_name_Hall  '-P 2ybc'
_symmetry_space_group_name_H-M   'P 1 21/c 1'
_atom_sites_solution_hydrogens   mixed
_atom_sites_solution_primary     iterative
_audit_creation_date             2017-01-20
_audit_creation_method
;
Olex2 1.2
(compiled 2017.01.04 svn.r3372 for OlexSys, GUI svn.r5292)
;
_audit_update_record
;
2017-01-22 deposited with the CCDC.
2017-01-27 downloaded from the CCDC.
;
_cell_angle_alpha                90
_cell_angle_beta                 95.4192(19)
_cell_angle_gamma                90
_cell_formula_units_Z            2
_cell_length_a                   11.4221(4)
_cell_length_b                   21.2742(8)
_cell_length_c                   19.0647(7)
_cell_measurement_reflns_used    9299
_cell_measurement_temperature    173(2)
_cell_measurement_theta_max      59.981
_cell_measurement_theta_min      3.120
_cell_volume                     4611.9(3)
_computing_cell_refinement       'SAINT v8.37A (Bruker, 2015)'
_computing_data_reduction        'SAINT v8.37A (Bruker, 2015)'
_computing_molecular_graphics    'Olex2 (Dolomanov et al., 2009)'
_computing_publication_material  'Olex2 (Dolomanov et al., 2009)'
_computing_structure_refinement  'ShelXL (Sheldrick, 2015)'
_computing_structure_solution    'olex2.solve (Bourhis et al., 2015)'
_diffrn_ambient_temperature      173.0
_diffrn_measured_fraction_theta_full 0.974
_diffrn_measured_fraction_theta_max 0.974
_diffrn_measurement_device_type  'Bruker APEX-II CCD'
_diffrn_measurement_method       '\f and \w scans'
_diffrn_radiation_type           CuK\a
_diffrn_radiation_wavelength     1.54178
_diffrn_reflns_av_R_equivalents  0.0558
_diffrn_reflns_av_unetI/netI     0.0524
_diffrn_reflns_Laue_measured_fraction_full 0.974
_diffrn_reflns_Laue_measured_fraction_max 0.974
_diffrn_reflns_limit_h_max       12
_diffrn_reflns_limit_h_min       -12
_diffrn_reflns_limit_k_max       14
_diffrn_reflns_limit_k_min       -23
_diffrn_reflns_limit_l_max       20
_diffrn_reflns_limit_l_min       -21
_diffrn_reflns_number            24228
_diffrn_reflns_point_group_measured_fraction_full 0.974
_diffrn_reflns_point_group_measured_fraction_max 0.974
_diffrn_reflns_theta_full        60.073
_diffrn_reflns_theta_max         60.073
_diffrn_reflns_theta_min         3.120
_diffrn_standards_number         0
_exptl_absorpt_coefficient_mu    1.285
_exptl_absorpt_correction_T_max  0.5818
_exptl_absorpt_correction_T_min  0.4908
_exptl_absorpt_correction_type   multi-scan
_exptl_absorpt_process_details
;
SADABS-2014/5 (Bruker,2014/5) was used for absorption correction.
wR2(int) was 0.1365 before and 0.1141 after correction.
The Ratio of minimum to maximum transmission is 0.8436.
The \l/2 correction factor is 0.00150.
;
_exptl_crystal_colour            yellow
_exptl_crystal_density_diffrn    1.386
_exptl_crystal_description       prism
_exptl_crystal_F_000             2020
_exptl_crystal_recrystallization_method 'solvothermal DEF'
_refine_diff_density_max         1.062
_refine_diff_density_min         -0.369
_refine_diff_density_rms         0.076
_refine_ls_extinction_method     none
_refine_ls_goodness_of_fit_ref   1.059
_refine_ls_hydrogen_treatment    constr
_refine_ls_matrix_type           full
_refine_ls_number_parameters     562
_refine_ls_number_reflns         6673
_refine_ls_number_restraints     74
_refine_ls_restrained_S_all      1.074
_refine_ls_R_factor_all          0.0889
_refine_ls_R_factor_gt           0.0683
_refine_ls_shift/su_max          0.001
_refine_ls_shift/su_mean         0.000
_refine_ls_structure_factor_coef Fsqd
_refine_ls_weighting_details
'w=1/[\s^2^(Fo^2^)+(0.1120P)^2^+4.6528P] where P=(Fo^2^+2Fc^2^)/3'
_refine_ls_weighting_scheme      calc
_refine_ls_wR_factor_gt          0.1795
_refine_ls_wR_factor_ref         0.1957
_reflns_Friedel_coverage         0.000
_reflns_number_gt                5024
_reflns_number_total             6673
_reflns_threshold_expression     'I > 2\s(I)'
_iucr_refine_instructions_details
;
TITL
 cu_gg005_0m.res created by SHELXL-2016/4 at 15:50:44 on 20-Jan-2017
CELL 1.54178 11.4221 21.2742 19.0647 90 95.4192 90
ZERR 2 0.0004 0.0008 0.0007 0 0.0019 0
LATT 1
SYMM -X,0.5+Y,0.5-Z
SFAC C H N O Zn
UNIT 204 216 20 40 4
DFIX 1.4 0.005 C2S C1S
FLAT N1S C0AA C1S C3SA
SIMU O1S > C4SB

L.S. 100
PLAN  20
TEMP -100.15
FREE N1S C4SA
BOND $H
CONF
more -1
ABIN
fmap 2
acta
OMIT 0 1 5
OMIT 0 4 7
REM <olex2.extras>
REM <HklSrc "%.\\cu_GG005_0m.hkl">
REM </olex2.extras>

WGHT    0.112000    4.652800
FVAR       0.09032   0.51663
ZN1   5   -0.384336    0.986535    1.084840    11.00000    0.05292    0.02478 =
         0.04648    0.00232   -0.00955   -0.00175
O1    4   -0.225583    0.964648    1.068136    11.00000    0.05926    0.05278 =
         0.04660    0.01115   -0.00116    0.01026
O2    4   -0.236592    0.905438    1.161741    11.00000    0.05060    0.10470 =
         0.06940    0.03509    0.01029    0.00279
O3    4    0.397176    0.573017    1.450429    11.00000    0.08731    0.02351 =
         0.06028   -0.00413   -0.01916    0.00413
O4    4    0.510674    0.580118    1.548514    11.00000    0.10674    0.03455 =
         0.07216   -0.00131   -0.04232    0.01951
O5    4   -0.645216    0.953991    1.528148    11.00000    0.05458    0.03764 =
         0.05126   -0.00312    0.00359    0.00365
O6    4   -0.771716    0.857069    1.583661    11.00000    0.05726    0.04249 =
         0.04380    0.01077    0.00184    0.00475
O7    4   -0.989467    0.794532    1.591622    11.00000    0.05873    0.03721 =
         0.12086    0.01620    0.00881    0.00669
O8    4   -0.778339    1.157634    1.457547    11.00000    0.06410    0.03649 =
         0.07515    0.00481    0.00822    0.01414
N1    3    0.095215    0.921975    1.336095    11.00000    0.04059    0.02579 =
         0.02824   -0.00064    0.00291    0.00576
N2    3    0.183657    0.872984    1.430872    11.00000    0.04045    0.02402 =
         0.02603    0.00012    0.00417    0.00525
AFIX  43
H2    2    0.200875    0.862834    1.475399    11.00000   -1.20000
AFIX   0
N3    3   -0.460589    1.001489    1.174523    11.00000    0.05222    0.02435 =
         0.05225    0.00118   -0.00592   -0.00297
C1    1   -0.179998    0.928333    1.116305    11.00000    0.05805    0.04119 =
         0.03975    0.00525   -0.00581    0.00053
C2    1   -0.049620    0.917265    1.116026    11.00000    0.05054    0.02863 =
         0.03747    0.00693    0.00257    0.00297
C3    1    0.013552    0.894877    1.177869    11.00000    0.05430    0.02559 =
         0.02820   -0.00120    0.00832    0.00087
AFIX  43
H3    2   -0.027141    0.884887    1.217635    11.00000   -1.20000
AFIX   0
C4    1    0.135030    0.887172    1.181535    11.00000    0.04475    0.02148 =
         0.03392   -0.00017    0.00648    0.00512
C5    1    0.193002    0.903011    1.123201    11.00000    0.04945    0.05203 =
         0.04281    0.00797    0.00965    0.00573
AFIX  43
H5    2    0.276146    0.899263    1.125395    11.00000   -1.20000
AFIX   0
C6    1    0.130825    0.924241    1.061786    11.00000    0.06287    0.06970 =
         0.04072    0.02020    0.01723    0.00830
AFIX  43
H6    2    0.171176    0.933666    1.021722    11.00000   -1.20000
AFIX   0
C7    1    0.010249    0.931718    1.058735    11.00000    0.06647    0.04694 =
         0.03616    0.01568    0.00081    0.00433
AFIX  43
H7    2   -0.031679    0.946958    1.016759    11.00000   -1.20000
AFIX   0
C8    1    0.199476    0.860640    1.246216    11.00000    0.04479    0.02384 =
         0.02971   -0.00204    0.00625    0.00022
C9    1    0.173329    0.876526    1.314317    11.00000    0.04051    0.01578 =
         0.03320   -0.00015    0.00288    0.00392
C10   1    0.230263    0.846544    1.373670    11.00000    0.04097    0.01747 =
         0.03235   -0.00098    0.00387    0.00200
C11   1    0.316088    0.800017    1.369149    11.00000    0.04125    0.01739 =
         0.03657   -0.00160    0.00307    0.00427
C12   1    0.343276    0.786517    1.301785    11.00000    0.04800    0.02481 =
         0.04059   -0.00290    0.00331    0.01078
AFIX  43
H12   2    0.402395    0.756156    1.295545    11.00000   -1.20000
AFIX   0
C13   1    0.287051    0.815858    1.242722    11.00000    0.05242    0.02624 =
         0.03097   -0.00621    0.00633    0.00724
AFIX  43
H13   2    0.309745    0.804680    1.197700    11.00000   -1.20000
AFIX   0
C14   1    0.376521    0.768731    1.432769    11.00000    0.03784    0.02091 =
         0.03419    0.00087    0.00504    0.00456
C15   1    0.431182    0.803250    1.487653    11.00000    0.04777    0.02051 =
         0.04805   -0.00031    0.00381    0.00110
AFIX  43
H15   2    0.428806    0.847851    1.485517    11.00000   -1.20000
AFIX   0
C16   1    0.489803    0.773993    1.546155    11.00000    0.04968    0.02638 =
         0.04746   -0.00828   -0.00844    0.00161
AFIX  43
H16   2    0.524739    0.798590    1.584125    11.00000   -1.20000
AFIX   0
C17   1    0.497141    0.709590    1.548995    11.00000    0.04030    0.03066 =
         0.03966    0.00104   -0.00617    0.00395
AFIX  43
H17   2    0.540257    0.689604    1.587826    11.00000   -1.20000
AFIX   0
C18   1    0.441334    0.673893    1.494927    11.00000    0.03105    0.02074 =
         0.03699   -0.00247    0.00309    0.00446
C19   1    0.381562    0.703346    1.437358    11.00000    0.03535    0.02296 =
         0.03416   -0.00428    0.00247    0.00419
AFIX  43
H19   2    0.343467    0.678620    1.400482    11.00000   -1.20000
AFIX   0
C20   1    0.451553    0.603568    1.497837    11.00000    0.03490    0.02856 =
         0.03711   -0.00012    0.00653    0.00146
C21   1    0.106130    0.917667    1.405430    11.00000    0.03550    0.02250 =
         0.03404   -0.00036    0.00607    0.00419
C22   1    0.047779    0.959173    1.452944    11.00000    0.03444    0.02680 =
         0.02945   -0.00098    0.00089    0.00369
C23   1    0.030378    1.022028    1.435761    11.00000    0.03942    0.02918 =
         0.02996    0.00551    0.00618    0.00796
AFIX  43
H23   2    0.050903    1.037260    1.391709    11.00000   -1.20000
AFIX   0
C24   1    0.016551    0.937334    1.517830    11.00000    0.04075    0.02180 =
         0.04057    0.00137    0.00395    0.00931
AFIX  43
H24   2    0.027689    0.894311    1.530039    11.00000   -1.20000
AFIX   0
C25   1   -0.719408    1.104494    1.440588    11.00000    0.04365    0.02874 =
         0.06866   -0.00258   -0.00234    0.00249
C26   1   -0.677264    1.093591    1.376455    11.00000    0.04738    0.03582 =
         0.05940    0.00359   -0.00033    0.00012
AFIX  43
H26   2   -0.684380    1.124772    1.340635    11.00000   -1.20000
AFIX   0
C27   1   -0.623104    1.035161    1.364661    11.00000    0.04245    0.03040 =
         0.06135   -0.00278   -0.00082   -0.00443
C28   1   -0.613504    0.990449    1.416565    11.00000    0.04291    0.02631 =
         0.05702    0.00101   -0.00258   -0.00448
AFIX  43
H28   2   -0.577428    0.951236    1.408347    11.00000   -1.20000
AFIX   0
C29   1   -0.656367    1.002150    1.481387    11.00000    0.03932    0.02954 =
         0.05437    0.00123   -0.00457   -0.00322
C30   1   -0.706807    1.059299    1.494337    11.00000    0.04309    0.03714 =
         0.05856   -0.00223   -0.00321   -0.00110
AFIX  43
H30   2   -0.732791    1.068009    1.539217    11.00000   -1.20000
AFIX   0
C31   1   -0.694464    0.960153    1.593356    11.00000    0.05445    0.05074 =
         0.04442   -0.01211   -0.00627    0.00165
AFIX  23
H31A  2   -0.776107    0.976081    1.585670    11.00000   -1.20000
H31B  2   -0.647561    0.989900    1.624507    11.00000   -1.20000
AFIX   0
C32   1   -0.692790    0.896368    1.625800    11.00000    0.07068    0.06087 =
         0.03647   -0.00200   -0.00239    0.01142
AFIX  23
H32A  2   -0.612301    0.878714    1.628414    11.00000   -1.20000
H32B  2   -0.717055    0.898996    1.674212    11.00000   -1.20000
AFIX   0
C33   1   -0.783652    0.797108    1.614303    11.00000    0.06266    0.05377 =
         0.06850    0.03421    0.01566    0.01054
AFIX  23
H33A  2   -0.796893    0.801855    1.664604    11.00000   -1.20000
H33B  2   -0.710522    0.772629    1.611523    11.00000   -1.20000
AFIX   0
C34   1   -0.884248    0.763265    1.576536    11.00000    0.07981    0.03894 =
         0.09208    0.02549    0.02933    0.01297
AFIX  23
H34A  2   -0.877194    0.763618    1.525179    11.00000   -1.20000
H34B  2   -0.885462    0.719018    1.592536    11.00000   -1.20000
AFIX   0
C35   1   -1.092268    0.758840    1.575847    11.00000    0.07118    0.03900 =
         0.10592    0.00526    0.00762    0.00616
AFIX  23
H35A  2   -1.086826    0.718805    1.602427    11.00000   -1.20000
H35B  2   -1.102655    0.749003    1.524884    11.00000   -1.20000
AFIX   0
C36   1   -0.806390    1.203410    1.403917    11.00000    0.06159    0.04177 =
         0.10018    0.01630    0.01155    0.01385
AFIX  23
H36A  2   -0.827269    1.182413    1.358098    11.00000   -1.20000
H36B  2   -0.737826    1.231056    1.399285    11.00000   -1.20000
AFIX   0
C37   1   -0.572477    1.023882    1.297384    11.00000    0.04354    0.03152 =
         0.05584    0.00168   -0.00518   -0.00111
C38   1   -0.538393    1.072489    1.255199    11.00000    0.06073    0.03048 =
         0.05272    0.00034   -0.00008    0.00213
AFIX  43
H38   2   -0.553731    1.114780    1.267452    11.00000   -1.20000
AFIX   0
C39   1   -0.483292    1.060210    1.196532    11.00000    0.05935    0.03064 =
         0.05451    0.00477   -0.00548   -0.00588
AFIX  43
H39   2   -0.459521    1.094724    1.169617    11.00000   -1.20000
AFIX   0
C40   1   -0.495784    0.954468    1.213456    11.00000    0.05697    0.03032 =
         0.05730   -0.00407   -0.00049   -0.00315
AFIX  43
H40   2   -0.481258    0.912692    1.198954    11.00000   -1.20000
AFIX   0
C41   1   -0.551500    0.962736    1.272970    11.00000    0.05845    0.03101 =
         0.06278    0.00040    0.00418   -0.00917
AFIX  43
H41   2   -0.576200    0.927256    1.298001    11.00000   -1.20000
AFIX   0

O1S   4   -0.609266    1.277321    1.774655    11.00000    0.14157    0.06733 =
         0.09596   -0.01346    0.01219   -0.01355
SAME 0.02 0.02 N1S C0AA C3SA C4SA
SAME 0.02 0.02 N1S C0AA C3SB C4SB
N1S   3   -0.702799    1.227738    1.683007    11.00000    0.18826    0.17674 =
         0.08348   -0.05598    0.03823   -0.07602
C0AA  1   -0.667391    1.234722    1.749309    11.00000    0.21474    0.07857 =
         0.08310   -0.03082    0.03762   -0.05735
AFIX  43
H0AA  2   -0.689664    1.203098    1.780626    11.00000   -1.20000
AFIX   0
C1S   1   -0.664217    1.271874    1.628863    11.00000    0.10252    0.36692 =
         0.11552   -0.01167    0.04148   -0.04567
AFIX  23
H1SA  2   -0.585376    1.287960    1.646094    11.00000   -1.20000
H1SB  2   -0.655164    1.247385    1.585550    11.00000   -1.20000
AFIX   0
C2S   1   -0.736110    1.323538    1.610210    11.00000    0.11097    0.40356 =
         0.34051    0.16165   -0.07474   -0.05325
AFIX 137
H2SA  2   -0.742232    1.350114    1.651691    11.00000   -1.50000
H2SB  2   -0.814576    1.308811    1.592278    11.00000   -1.50000
H2SC  2   -0.701930    1.347911    1.573583    11.00000   -1.50000
AFIX   0
PART 1
C3SA  1   -0.805878    1.186494    1.657349    21.00000    0.14909    0.17809 =
         0.13980   -0.06110    0.03098    0.03831
AFIX  23
H3SA  2   -0.782370    1.162877    1.616188    21.00000   -1.20000
H3SB  2   -0.815157    1.155202    1.694858    21.00000   -1.20000
AFIX   0
C4SA  1   -0.911723    1.210075    1.638827    21.00000    0.29159    0.44145 =
         0.27542    0.05526   -0.06086   -0.31500
AFIX   3
H4SA  2   -0.935433    1.238175    1.675677    21.00000   -1.50000
H4SB  2   -0.968723    1.175715    1.631417    21.00000   -1.50000
H4SC  2   -0.909003    1.233695    1.594877    21.00000   -1.50000
AFIX   0
PART 0
PART 2
C3SB  1   -0.713241    1.160631    1.656969   -21.00000    0.12184    0.21988 =
         0.16966   -0.13516    0.02192   -0.05538
AFIX  23
H3SC  2   -0.703579    1.162576    1.605954   -21.00000   -1.20000
H3SD  2   -0.642846    1.138633    1.679150   -21.00000   -1.20000
AFIX   0
C4SB  1   -0.802753    1.121878    1.663065   -21.00000    0.16183    0.53988 =
         0.14544   -0.23278    0.08061   -0.09978
AFIX 137
H4SD  2   -0.779727    1.089918    1.698745   -21.00000   -1.50000
H4SE  2   -0.824612    1.101376    1.617681   -21.00000   -1.50000
H4SF  2   -0.870026    1.145722    1.677271   -21.00000   -1.50000
AFIX   0
HKLF 4




REM
REM R1 =  0.0683 for    5024 Fo > 4sig(Fo)  and  0.0889 for all    6673 data
REM    562 parameters refined using     74 restraints

END  
     
WGHT      0.1120      4.6532 

REM Highest difference peak  1.062,  deepest hole -0.369,  1-sigma level  0.076
Q1    1  -0.8216  1.0560  1.6931  11.00000  0.05    1.06
Q2    1  -0.4468  0.9904  1.1192  11.00000  0.05    0.56
Q3    1  -1.0032  0.7811  1.5363  11.00000  0.05    0.52
Q4    1  -0.7565  1.1049  1.6676  11.00000  0.05    0.39
Q5    1  -0.9118  0.7885  1.6417  11.00000  0.05    0.38
Q6    1  -0.8364  1.1627  1.6556  11.00000  0.05    0.38
Q7    1   0.4690  0.5802  1.4378  11.00000  0.05    0.36
Q8    1  -0.3522  0.9813  1.0230  11.00000  0.05    0.35
Q9    1   0.5501  0.5781  1.5021  11.00000  0.05    0.33
Q10   1   0.0996  0.9078  1.2003  11.00000  0.05    0.31
Q11   1  -0.6464  1.2281  1.6220  11.00000  0.05    0.30
Q12   1  -0.5397  0.9881  1.1406  11.00000  0.05    0.30
Q13   1   0.1972  0.8535  1.3426  11.00000  0.05    0.29
Q14   1  -0.7994  1.1869  1.5253  11.00000  0.05    0.29
Q15   1  -0.7000  1.3013  1.7550  11.00000  0.05    0.27
Q16   1   0.1430  0.9008  1.3218  11.00000  0.05    0.27
Q17   1   0.4389  0.5686  1.5361  11.00000  0.05    0.26
Q18   1  -0.3412  1.0136  1.1448  11.00000  0.05    0.26
Q19   1  -0.0271  0.9310  1.0930  11.00000  0.05    0.26
Q20   1  -0.2230  0.9442  1.1580  11.00000  0.05    0.26

  REM The information below was added by Olex2.
  REM
  REM R1 = 0.0683 for 5024 Fo > 4sig(Fo) and 0.0889 for all 24943 data
  REM n/a parameters refined using n/a restraints
  REM Highest difference peak 1.06, deepest hole -0.37
  REM Mean Shift 0, Max Shift -0.001.

  REM +++ Tabular Listing of Refinement Information +++
  REM R1_all = 0.0889
  REM R1_gt = 0.0683
  REM wR_ref = 0.1957
  REM GOOF = 1.059
  REM Shift_max = -0.001
  REM Shift_mean = 0
  REM Reflections_all = 24943
  REM Reflections_gt = 5024
  REM Parameters = n/a
  REM Hole = -0.37
  REM Peak = 1.06
  REM Flack = n/a

  
;
_cod_data_source_file            c6dt04596k2.cif
_cod_data_source_block           Zn_6c
_cod_depositor_comments
'Adding full bibliography for 7041965--7041968.cif.'
_cod_database_code               7041966
_shelx_shelxl_version_number     2016/4
_shelx_space_group_comment
;
The symmetry employed for this shelxl refinement is uniquely defined
by the following loop, which should always be used as a source of
symmetry information in preference to the above space-group names.
They are only intended as comments.
;
_olex2_refinement_description
;
1. Fixed Uiso
 At 1.2 times of:
  All C(H) groups, All C(H,H) groups, All N(H) groups
 At 1.5 times of:
  All C(H,H,H) groups
2. Restrained distances
 C2S-C1S
 1.4 with sigma of 0.005
3. Restrained planarity
 N1S, C0AA, C1S, C3SA
 with sigma of 0.1
4. Uiso/Uaniso restraints and constraints
O1S \\sim N1S \\sim C0AA \\sim C1S \\sim C2S \\sim C3SA \\sim C4SA \\sim C3SB
\\sim C4SB: within 2A with sigma of 0.04 and sigma for terminal atoms of 0.08
5. Same fragment restrains
{N1S, C0AA, C3SA, C4SA} sigma for 1-2: 0.02, 1-3: 0.02
{N1S, C0AA, C3SB, C4SB} sigma for 1-2: 0.02, 1-3: 0.02
as
{N1S, C0AA, C1S, C2S}
6. Others
 Sof(C3SB)=Sof(H3SC)=Sof(H3SD)=Sof(C4SB)=Sof(H4SD)=Sof(H4SE)=Sof(H4SF)=1-FVAR(1)
 Sof(C3SA)=Sof(H3SA)=Sof(H3SB)=Sof(C4SA)=Sof(H4SA)=Sof(H4SB)=Sof(H4SC)=FVAR(1)
7.a Riding coordinates:
 C4SA(H4SA,H4SB,H4SC)
7.b Secondary CH2 refined with riding coordinates:
 C31(H31A,H31B), C32(H32A,H32B), C33(H33A,H33B), C34(H34A,H34B), C35(H35A,
 H35B), C36(H36A,H36B), C1S(H1SA,H1SB), C3SA(H3SA,H3SB), C3SB(H3SC,H3SD)
7.c Aromatic/amide H refined with riding coordinates:
 N2(H2), C3(H3), C5(H5), C6(H6), C7(H7), C12(H12), C13(H13), C15(H15),
 C16(H16), C17(H17), C19(H19), C23(H23), C24(H24), C26(H26), C28(H28), C30(H30),
  C38(H38), C39(H39), C40(H40), C41(H41), C0AA(H0AA)
7.d Idealised Me refined as rotating group:
 C2S(H2SA,H2SB,H2SC), C4SB(H4SD,H4SE,H4SF)
;
_shelx_fab_file
;
-12 0 2 1.6965 0.0000
-12 0 4 0.0430 0.0000
-12 0 6 -0.0607 0.0000
-12 0 8 -1.6331 0.0000
-12 1 1 0.1411 0.0000
-12 1 2 0.7421 0.0000
-12 1 3 1.2416 0.0000
-12 1 4 -0.4341 0.0000
-12 1 5 -0.5169 0.0000
-12 1 6 -0.7006 0.0000
-12 1 7 -0.4339 0.0000
-12 1 8 1.7083 0.0000
-12 2 1 1.6586 0.0000
-12 2 2 -0.0034 0.0000
-12 2 3 -1.2115 0.0000
-12 2 4 -0.1674 0.0000
-12 2 5 0.2881 0.0000
-12 2 6 0.9445 0.0000
-12 2 7 -0.4114 0.0000
-12 2 8 -2.5907 0.0000
-12 2 9 0.2665 0.0000
-12 3 1 0.2186 0.0000
-12 3 2 0.7667 0.0000
-12 3 3 -0.1780 0.0000
-12 3 4 -1.1072 0.0000
-12 3 5 -0.2440 0.0000
-12 3 6 0.1510 0.0000
-12 3 7 0.4930 0.0000
-12 3 8 -1.3509 0.0000
-12 3 9 -3.3525 0.0000
-12 4 1 1.2175 0.0000
-12 4 2 -0.3122 0.0000
-12 4 3 -1.0491 0.0000
-12 4 4 1.0596 0.0000
-12 4 5 0.5842 0.0000
-12 4 6 -0.5263 0.0000
-12 4 7 -2.1759 0.0000
-12 4 8 -1.4812 0.0000
-12 5 1 0.2756 0.0000
-12 5 2 0.4398 0.0000
-12 5 3 0.0936 0.0000
-12 5 4 -0.3577 0.0000
-12 5 5 0.8779 0.0000
-12 5 6 -1.6309 0.0000
-12 5 7 -1.6009 0.0000
-12 5 8 -0.1077 0.0000
-12 6 1 3.4951 0.0000
-12 6 2 -0.8971 0.0000
-12 6 3 -1.0879 0.0000
-12 6 4 0.3740 0.0000
-12 6 5 -1.1116 0.0000
-12 6 6 -0.0664 0.0000
-12 6 7 -1.0777 0.0000
-12 7 1 -1.5288 0.0000
-12 7 2 0.8059 0.0000
-12 7 3 -1.0844 0.0000
-12 7 4 -0.0748 0.0000
-12 7 5 -0.6315 0.0000
-12 7 6 -2.4752 0.0000
-12 8 2 -3.9248 0.0000
-12 8 3 -0.2533 0.0000
-12 8 4 0.0122 0.0000
-11 0 2 3.9011 0.0000
-11 0 4 -0.5631 0.0000
-11 0 6 -2.2514 0.0000
-11 0 8 0.6382 0.0000
-11 0 10 -0.3554 0.0000
-11 0 12 4.1931 0.0000
-11 1 1 0.5046 0.0000
-11 1 2 1.1254 0.0000
-11 1 3 1.3781 0.0000
-11 1 4 -1.1606 0.0000
-11 1 5 -1.5845 0.0000
-11 1 6 -0.5268 0.0000
-11 1 7 -0.3956 0.0000
-11 1 8 2.3265 0.0000
-11 1 9 -0.1837 0.0000
-11 1 10 -0.3871 0.0000
-11 1 11 1.7108 0.0000
-11 1 12 0.9812 0.0000
-11 2 1 2.5740 0.0000
-11 2 2 0.9667 0.0000
-11 2 3 -2.0760 0.0000
-11 2 4 -0.4456 0.0000
-11 2 5 0.0124 0.0000
-11 2 6 -0.5557 0.0000
-11 2 7 0.5751 0.0000
-11 2 8 0.5270 0.0000
-11 2 9 0.9006 0.0000
-11 2 10 -1.0281 0.0000
-11 2 11 0.8516 0.0000
-11 2 12 2.1881 0.0000
-11 3 1 0.1955 0.0000
-11 3 2 1.0305 0.0000
-11 3 3 -0.2462 0.0000
-11 3 4 -2.6100 0.0000
-11 3 5 -0.8494 0.0000
-11 3 6 1.5077 0.0000
-11 3 7 1.5385 0.0000
-11 3 8 -0.3364 0.0000
-11 3 9 -2.2342 0.0000
-11 3 10 -0.0819 0.0000
-11 3 11 1.9243 0.0000
-11 3 12 1.0813 0.0000
-11 4 1 0.3002 0.0000
-11 4 2 -0.4322 0.0000
-11 4 3 -1.3727 0.0000
-11 4 4 1.7474 0.0000
-11 4 5 0.1731 0.0000
-11 4 6 -1.5466 0.0000
-11 4 7 -0.3485 0.0000
-11 4 8 0.2829 0.0000
-11 4 9 0.0529 0.0000
-11 4 10 -0.4461 0.0000
-11 4 11 -0.1104 0.0000
-11 4 12 1.9519 0.0000
-11 5 1 0.2861 0.0000
-11 5 2 1.9475 0.0000
-11 5 3 0.0351 0.0000
-11 5 4 -2.4571 0.0000
-11 5 5 1.0847 0.0000
-11 5 6 0.2081 0.0000
-11 5 7 -1.0561 0.0000
-11 5 8 0.1706 0.0000
-11 5 9 -0.6112 0.0000
-11 5 10 0.6059 0.0000
-11 5 11 2.4977 0.0000
-11 6 1 2.0669 0.0000
-11 6 2 0.0395 0.0000
-11 6 3 0.1311 0.0000
-11 6 4 0.5340 0.0000
-11 6 5 -2.5219 0.0000
-11 6 6 -0.1722 0.0000
-11 6 7 0.4970 0.0000
-11 6 8 0.2442 0.0000
-11 6 9 1.2871 0.0000
-11 6 10 -0.0491 0.0000
-11 6 11 0.8477 0.0000
-11 7 1 1.1326 0.0000
-11 7 2 2.1739 0.0000
-11 7 3 -1.9443 0.0000
-11 7 4 -2.2096 0.0000
-11 7 5 0.0052 0.0000
-11 7 6 -0.8688 0.0000
-11 7 7 1.7809 0.0000
-11 7 8 1.2339 0.0000
-11 7 9 -0.8445 0.0000
-11 7 10 0.9172 0.0000
-11 8 1 0.0799 0.0000
-11 8 2 -1.7421 0.0000
-11 8 3 -0.7973 0.0000
-11 8 4 -0.9687 0.0000
-11 8 5 -0.6880 0.0000
-11 8 6 1.1768 0.0000
-11 8 7 0.4959 0.0000
-11 8 8 0.1782 0.0000
-11 8 9 0.3972 0.0000
-11 8 10 -0.1858 0.0000
-11 9 1 0.2889 0.0000
-11 9 2 -0.3448 0.0000
-11 9 3 -1.3435 0.0000
-11 9 4 -0.5440 0.0000
-11 9 5 0.1076 0.0000
-11 9 6 0.7396 0.0000
-11 9 7 1.3420 0.0000
-11 9 8 -0.1468 0.0000
-11 9 9 -1.6583 0.0000
-11 10 1 -0.6418 0.0000
-11 10 2 0.0128 0.0000
-11 10 3 0.5522 0.0000
-11 10 4 -0.6686 0.0000
-11 10 5 -0.6809 0.0000
-11 10 6 1.8222 0.0000
-11 10 7 -0.0569 0.0000
-11 11 1 0.0940 0.0000
-11 11 2 0.8678 0.0000
-11 11 4 -1.0734 0.0000
-11 11 5 -0.3098 0.0000
-11 11 6 -0.1109 0.0000
-11 12 1 0.3212 0.0000
-11 12 2 0.4559 0.0000
-11 12 3 -1.4397 0.0000
-11 12 4 -1.5435 0.0000
-10 0 2 5.7008 0.0000
-10 0 4 -0.2569 0.0000
-10 0 6 -2.6589 0.0000
-10 0 8 2.2504 0.0000
-10 0 12 2.0327 0.0000
-10 0 14 -2.1514 0.0000
-10 1 1 0.2933 0.0000
-10 1 2 1.9243 0.0000
-10 1 3 2.1603 0.0000
-10 1 4 -1.8772 0.0000
-10 1 5 -0.8379 0.0000
-10 1 6 -0.1892 0.0000
-10 1 7 -0.7033 0.0000
-10 1 8 1.3374 0.0000
-10 1 9 1.3135 0.0000
-10 1 10 -0.1604 0.0000
-10 1 11 -1.2427 0.0000
-10 1 12 1.3337 0.0000
-10 1 13 -0.3491 0.0000
-10 1 14 -0.1488 0.0000
-10 2 1 3.1766 0.0000
-10 2 2 1.9806 0.0000
-10 2 3 -1.3227 0.0000
-10 2 4 -0.4835 0.0000
-10 2 5 -1.1461 0.0000
-10 2 6 -0.3922 0.0000
-10 2 7 1.4658 0.0000
-10 2 8 2.2570 0.0000
-10 2 9 -0.3729 0.0000
-10 2 10 -1.2345 0.0000
-10 2 11 0.4843 0.0000
-10 2 12 -0.2036 0.0000
-10 2 13 0.8283 0.0000
-10 2 14 -1.4190 0.0000
-10 3 1 0.8374 0.0000
-10 3 2 1.2573 0.0000
-10 3 3 -0.6408 0.0000
-10 3 4 -2.6337 0.0000
-10 3 5 0.2728 0.0000
-10 3 6 2.1366 0.0000
-10 3 7 0.9660 0.0000
-10 3 8 -0.4048 0.0000
-10 3 9 0.0054 0.0000
-10 3 10 -1.5267 0.0000
-10 3 11 0.3170 0.0000
-10 3 12 0.5244 0.0000
-10 3 13 -2.5633 0.0000
-10 3 14 0.2347 0.0000
-10 4 1 -1.3179 0.0000
-10 4 2 -0.2883 0.0000
-10 4 3 0.7237 0.0000
-10 4 4 1.1510 0.0000
-10 4 5 -0.8618 0.0000
-10 4 6 -0.9468 0.0000
-10 4 7 1.3815 0.0000
-10 4 8 0.6270 0.0000
-10 4 9 -0.9896 0.0000
-10 4 10 -1.2756 0.0000
-10 4 11 -2.4560 0.0000
-10 4 12 1.5744 0.0000
-10 4 13 2.5169 0.0000
-10 4 14 -2.2307 0.0000
-10 5 1 0.3771 0.0000
-10 5 2 2.0621 0.0000
-10 5 3 -0.4651 0.0000
-10 5 4 -2.1076 0.0000
-10 5 5 1.3776 0.0000
-10 5 6 1.4836 0.0000
-10 5 7 -1.2543 0.0000
-10 5 8 -0.5644 0.0000
-10 5 9 -1.2774 0.0000
-10 5 10 -0.1056 0.0000
-10 5 11 1.7348 0.0000
-10 5 12 -0.7276 0.0000
-10 5 13 0.1123 0.0000
-10 5 14 2.8341 0.0000
-10 6 1 -1.3930 0.0000
-10 6 2 1.9336 0.0000
-10 6 3 2.9411 0.0000
-10 6 4 -0.8940 0.0000
-10 6 5 -3.2317 0.0000
-10 6 6 0.2483 0.0000
-10 6 7 1.6691 0.0000
-10 6 8 -0.4104 0.0000
-10 6 9 -0.0385 0.0000
-10 6 10 -0.6765 0.0000
-10 6 11 0.9616 0.0000
-10 6 12 3.5856 0.0000
-10 6 13 0.9002 0.0000
-10 7 1 2.7835 0.0000
-10 7 2 1.8531 0.0000
-10 7 3 -1.8610 0.0000
-10 7 4 -2.3830 0.0000
-10 7 5 0.1089 0.0000
-10 7 6 1.1833 0.0000
-10 7 7 0.7229 0.0000
-10 7 8 -0.2350 0.0000
-10 7 9 -0.5159 0.0000
-10 7 10 1.8672 0.0000
-10 7 11 1.7909 0.0000
-10 7 12 0.2024 0.0000
-10 7 13 0.3992 0.0000
-10 8 1 -1.1081 0.0000
-10 8 2 1.3857 0.0000
-10 8 3 -0.2208 0.0000
-10 8 4 -2.1628 0.0000
-10 8 5 -1.0808 0.0000
-10 8 6 1.3889 0.0000
-10 8 7 1.8225 0.0000
-10 8 8 -0.6365 0.0000
-10 8 9 0.8993 0.0000
-10 8 10 1.3734 0.0000
-10 8 11 0.1622 0.0000
-10 8 12 -0.1302 0.0000
-10 9 1 1.3490 0.0000
-10 9 2 -0.7415 0.0000
-10 9 3 -1.7249 0.0000
-10 9 4 -1.5476 0.0000
-10 9 5 1.2861 0.0000
-10 9 6 2.4615 0.0000
-10 9 7 0.2622 0.0000
-10 9 8 -0.2494 0.0000
-10 9 9 -1.2905 0.0000
-10 9 10 2.0201 0.0000
-10 9 11 0.9526 0.0000
-10 10 1 -1.2048 0.0000
-10 10 2 0.4814 0.0000
-10 10 3 0.5626 0.0000
-10 10 4 -0.5208 0.0000
-10 10 5 -0.8739 0.0000
-10 10 6 2.3900 0.0000
-10 10 7 0.8984 0.0000
-10 10 8 -1.5062 0.0000
-10 10 9 1.8430 0.0000
-10 10 10 -0.8841 0.0000
-10 10 11 -0.7834 0.0000
-10 11 1 0.9062 0.0000
-10 11 2 0.1909 0.0000
-10 11 3 -0.0542 0.0000
-10 11 4 -0.9382 0.0000
-10 11 5 1.1514 0.0000
-10 11 6 0.5476 0.0000
-10 11 7 0.5932 0.0000
-10 11 8 -0.7673 0.0000
-10 11 9 -0.0568 0.0000
-10 11 10 2.5161 0.0000
-10 12 1 -0.8652 0.0000
-10 12 2 0.6505 0.0000
-10 12 3 -0.8186 0.0000
-10 12 4 -1.0869 0.0000
-10 12 5 0.0383 0.0000
-10 12 6 2.4206 0.0000
-10 12 7 -0.2985 0.0000
-10 12 8 0.3717 0.0000
-10 12 9 0.1618 0.0000
-10 13 1 -0.5949 0.0000
-10 13 2 -0.7517 0.0000
-10 13 3 -0.7824 0.0000
-10 13 4 -0.4318 0.0000
-10 13 5 1.4454 0.0000
-10 13 6 0.5702 0.0000
-10 13 7 0.8622 0.0000
-10 13 8 -0.0091 0.0000
-10 14 1 -0.5425 0.0000
-10 14 2 -0.9331 0.0000
-10 14 3 -0.1113 0.0000
-10 14 4 0.0651 0.0000
-10 14 5 1.2175 0.0000
-10 14 6 2.2724 0.0000
-9 0 2 3.0092 0.0000
-9 0 4 -0.3768 0.0000
-9 0 6 -2.6826 0.0000
-9 0 8 -0.6541 0.0000
-9 0 10 -1.3271 0.0000
-9 0 12 0.7614 0.0000
-9 0 14 -0.0550 0.0000
-9 0 16 2.2898 0.0000
-9 1 1 -1.0620 0.0000
-9 1 2 2.1328 0.0000
-9 1 3 1.5761 0.0000
-9 1 4 -2.3366 0.0000
-9 1 5 -1.1017 0.0000
-9 1 6 -0.4769 0.0000
-9 1 7 -2.5974 0.0000
-9 1 8 0.5499 0.0000
-9 1 9 1.5822 0.0000
-9 1 10 0.3968 0.0000
-9 1 11 -1.8912 0.0000
-9 1 12 1.2862 0.0000
-9 1 13 1.1543 0.0000
-9 1 14 -0.3786 0.0000
-9 1 15 0.9781 0.0000
-9 1 16 0.3144 0.0000
-9 2 1 1.6319 0.0000
-9 2 2 0.6637 0.0000
-9 2 3 -0.0795 0.0000
-9 2 4 -2.4246 0.0000
-9 2 5 -2.8793 0.0000
-9 2 6 0.7763 0.0000
-9 2 7 1.9881 0.0000
-9 2 8 -0.4983 0.0000
-9 2 9 -0.5190 0.0000
-9 2 10 1.1378 0.0000
-9 2 11 0.9007 0.0000
-9 2 12 -0.6838 0.0000
-9 2 13 0.7045 0.0000
-9 2 14 -0.1177 0.0000
-9 2 15 -1.1292 0.0000
-9 2 16 2.1497 0.0000
-9 3 1 1.1440 0.0000
-9 3 2 -1.2096 0.0000
-9 3 3 -2.3397 0.0000
-9 3 4 -0.8595 0.0000
-9 3 5 0.6519 0.0000
-9 3 6 0.9388 0.0000
-9 3 7 -0.8173 0.0000
-9 3 8 0.4800 0.0000
-9 3 9 1.4849 0.0000
-9 3 10 -0.2500 0.0000
-9 3 11 -0.2755 0.0000
-9 3 12 -0.6293 0.0000
-9 3 13 -1.6800 0.0000
-9 3 14 0.2217 0.0000
-9 3 15 2.2242 0.0000
-9 3 16 -1.0508 0.0000
-9 4 1 -2.3138 0.0000
-9 4 2 -0.6407 0.0000
-9 4 3 0.9565 0.0000
-9 4 4 -1.1617 0.0000
-9 4 5 -0.7706 0.0000
-9 4 6 1.0496 0.0000
-9 4 7 1.7507 0.0000
-9 4 8 -1.5025 0.0000
-9 4 9 -0.0946 0.0000
-9 4 10 0.0473 0.0000
-9 4 11 -1.7333 0.0000
-9 4 12 -0.4285 0.0000
-9 4 13 0.5513 0.0000
-9 4 14 -1.2067 0.0000
-9 4 15 -0.2479 0.0000
-9 4 16 2.9388 0.0000
-9 5 1 -0.9372 0.0000
-9 5 2 -1.9878 0.0000
-9 5 3 -0.5551 0.0000
-9 5 4 0.8320 0.0000
-9 5 5 1.1052 0.0000
-9 5 6 0.2386 0.0000
-9 5 7 -1.3779 0.0000
-9 5 8 -0.1383 0.0000
-9 5 9 -0.8478 0.0000
-9 5 10 0.6023 0.0000
-9 5 11 -0.8882 0.0000
-9 5 12 -2.0787 0.0000
-9 5 13 0.2829 0.0000
-9 5 14 3.4687 0.0000
-9 5 15 0.4882 0.0000
-9 6 1 -2.5386 0.0000
-9 6 2 1.3198 0.0000
-9 6 3 2.5578 0.0000
-9 6 4 -1.0571 0.0000
-9 6 5 -2.1248 0.0000
-9 6 6 0.7510 0.0000
-9 6 7 0.7959 0.0000
-9 6 8 -1.1078 0.0000
-9 6 9 -0.5654 0.0000
-9 6 10 -0.0768 0.0000
-9 6 11 0.5444 0.0000
-9 6 12 0.2907 0.0000
-9 6 13 1.1675 0.0000
-9 6 14 0.0097 0.0000
-9 6 15 0.3716 0.0000
-9 7 1 0.2121 0.0000
-9 7 2 -1.6432 0.0000
-9 7 3 -0.1035 0.0000
-9 7 4 0.4257 0.0000
-9 7 5 -0.0748 0.0000
-9 7 6 0.0920 0.0000
-9 7 7 0.0896 0.0000
-9 7 8 -1.0521 0.0000
-9 7 9 0.3168 0.0000
-9 7 10 1.0474 0.0000
-9 7 11 0.7195 0.0000
-9 7 12 0.2965 0.0000
-9 7 13 0.5678 0.0000
-9 7 14 -0.0837 0.0000
-9 7 15 -1.7726 0.0000
-9 8 1 -1.4494 0.0000
-9 8 2 0.8089 0.0000
-9 8 3 0.8802 0.0000
-9 8 4 -0.4002 0.0000
-9 8 5 -1.5090 0.0000
-9 8 6 -0.2242 0.0000
-9 8 7 1.5696 0.0000
-9 8 8 0.0298 0.0000
-9 8 9 -0.0321 0.0000
-9 8 10 2.0125 0.0000
-9 8 11 -0.7315 0.0000
-9 8 12 -1.3567 0.0000
-9 8 13 -0.5665 0.0000
-9 8 14 -0.5007 0.0000
-9 9 1 -0.8637 0.0000
-9 9 2 -1.4533 0.0000
-9 9 3 -0.2278 0.0000
-9 9 4 0.2947 0.0000
-9 9 5 0.6418 0.0000
-9 9 6 0.9141 0.0000
-9 9 7 -0.1157 0.0000
-9 9 8 -0.4578 0.0000
-9 9 9 -0.7349 0.0000
-9 9 10 1.1781 0.0000
-9 9 11 1.0903 0.0000
-9 9 12 -3.2143 0.0000
-9 9 13 -2.9800 0.0000
-9 9 14 0.1276 0.0000
-9 10 1 -1.0813 0.0000
-9 10 2 0.0080 0.0000
-9 10 3 2.4465 0.0000
-9 10 4 0.2212 0.0000
-9 10 5 -2.2497 0.0000
-9 10 6 0.7532 0.0000
-9 10 7 1.6909 0.0000
-9 10 8 -0.7099 0.0000
-9 10 9 -0.2687 0.0000
-9 10 10 -0.8974 0.0000
-9 10 11 -2.3130 0.0000
-9 10 12 -1.1553 0.0000
-9 10 13 0.2756 0.0000
-9 11 1 0.2019 0.0000
-9 11 2 0.3689 0.0000
-9 11 3 0.4255 0.0000
-9 11 4 0.3644 0.0000
-9 11 5 0.1074 0.0000
-9 11 6 -0.2702 0.0000
-9 11 7 0.0772 0.0000
-9 11 8 -1.3763 0.0000
-9 11 9 -0.2518 0.0000
-9 11 10 0.3818 0.0000
-9 11 11 -1.4815 0.0000
-9 11 12 -2.3455 0.0000
-9 12 1 0.2863 0.0000
-9 12 2 0.0562 0.0000
-9 12 3 0.8453 0.0000
-9 12 4 -0.2649 0.0000
-9 12 5 -0.9183 0.0000
-9 12 6 0.1743 0.0000
-9 12 7 0.0044 0.0000
-9 12 8 -0.1377 0.0000
-9 12 9 -1.6194 0.0000
-9 12 10 0.0727 0.0000
-9 12 11 -0.2257 0.0000
-9 12 12 -0.0451 0.0000
-9 13 1 -0.5604 0.0000
-9 13 2 0.0612 0.0000
-9 13 3 -0.8623 0.0000
-9 13 4 0.1148 0.0000
-9 13 5 -0.1422 0.0000
-9 13 6 -0.3143 0.0000
-9 13 7 0.2169 0.0000
-9 13 8 0.1876 0.0000
-9 13 9 -0.5295 0.0000
-9 13 10 -1.6330 0.0000
-9 13 11 0.9583 0.0000
-9 14 1 -0.7896 0.0000
-9 14 2 -1.8399 0.0000
-9 14 3 1.4876 0.0000
-9 14 4 0.4466 0.0000
-9 14 5 -0.1349 0.0000
-9 14 6 -0.2843 0.0000
-9 14 7 0.6183 0.0000
-9 14 8 -1.0478 0.0000
-9 14 9 -0.8955 0.0000
-9 14 10 0.9724 0.0000
-9 15 1 0.1130 0.0000
-9 15 2 1.2360 0.0000
-9 15 3 0.1024 0.0000
-9 15 4 1.3180 0.0000
-9 15 5 -1.1608 0.0000
-9 15 6 -0.4441 0.0000
-9 15 7 0.4953 0.0000
-9 15 8 0.0999 0.0000
-9 16 1 0.0882 0.0000
-9 16 2 0.7736 0.0000
-9 16 3 1.0521 0.0000
-9 16 4 0.0037 0.0000
-9 16 5 -0.0744 0.0000
-9 16 6 -1.0804 0.0000
-8 0 4 1.1250 0.0000
-8 0 6 0.2884 0.0000
-8 0 8 -1.9232 0.0000
-8 0 10 0.6798 0.0000
-8 0 12 -0.3199 0.0000
-8 0 14 0.0577 0.0000
-8 0 16 -0.5185 0.0000
-8 1 1 -1.1433 0.0000
-8 1 2 2.1220 0.0000
-8 1 3 2.1880 0.0000
-8 1 4 -1.8311 0.0000
-8 1 5 -1.7897 0.0000
-8 1 6 -0.8019 0.0000
-8 1 7 0.6184 0.0000
-8 1 8 -0.5684 0.0000
-8 1 9 0.4858 0.0000
-8 1 10 0.2652 0.0000
-8 1 11 -1.2419 0.0000
-8 1 12 0.6273 0.0000
-8 1 13 2.3665 0.0000
-8 1 14 -0.3844 0.0000
-8 1 15 -2.1990 0.0000
-8 1 16 0.1284 0.0000
-8 1 17 0.8934 0.0000
-8 2 1 1.0681 0.0000
-8 2 2 -0.6642 0.0000
-8 2 3 -0.0867 0.0000
-8 2 4 -3.2897 0.0000
-8 2 5 -1.9944 0.0000
-8 2 6 3.2102 0.0000
-8 2 7 0.9802 0.0000
-8 2 8 -1.6384 0.0000
-8 2 9 -1.3431 0.0000
-8 2 10 2.6815 0.0000
-8 2 11 1.2726 0.0000
-8 2 12 -0.3532 0.0000
-8 2 13 -0.6147 0.0000
-8 2 14 0.1688 0.0000
-8 2 15 -0.4707 0.0000
-8 2 16 -0.0066 0.0000
-8 2 17 0.3095 0.0000
-8 3 1 1.1067 0.0000
-8 3 2 -3.5764 0.0000
-8 3 3 -1.8863 0.0000
-8 3 4 1.0923 0.0000
-8 3 5 -0.3020 0.0000
-8 3 6 0.7804 0.0000
-8 3 7 0.6162 0.0000
-8 3 8 0.0384 0.0000
-8 3 9 1.4892 0.0000
-8 3 10 -0.0296 0.0000
-8 3 11 -0.3183 0.0000
-8 3 12 -0.3280 0.0000
-8 3 13 0.3767 0.0000
-8 3 14 -0.8341 0.0000
-8 3 15 -0.7137 0.0000
-8 3 16 -0.2752 0.0000
-8 3 17 1.2830 0.0000
-8 4 1 -0.3326 0.0000
-8 4 2 -1.7074 0.0000
-8 4 3 -1.7239 0.0000
-8 4 4 -0.4300 0.0000
-8 4 5 2.0832 0.0000
-8 4 6 1.9935 0.0000
-8 4 7 1.1020 0.0000
-8 4 8 -2.3376 0.0000
-8 4 9 -1.1605 0.0000
-8 4 10 1.6852 0.0000
-8 4 11 1.0026 0.0000
-8 4 12 -2.2045 0.0000
-8 4 13 -2.0121 0.0000
-8 4 14 0.2072 0.0000
-8 4 15 0.7737 0.0000
-8 4 16 0.2341 0.0000
-8 4 17 0.0167 0.0000
-8 5 1 -1.9248 0.0000
-8 5 2 -3.9665 0.0000
-8 5 3 0.7004 0.0000
-8 5 4 2.9163 0.0000
-8 5 5 1.3770 0.0000
-8 5 6 -0.8433 0.0000
-8 5 7 -1.0957 0.0000
-8 5 8 0.2351 0.0000
-8 5 9 -0.6998 0.0000
-8 5 10 -0.2386 0.0000
-8 5 11 -1.0886 0.0000
-8 5 12 -1.1993 0.0000
-8 5 13 -0.6909 0.0000
-8 5 14 2.2374 0.0000
-8 5 15 0.0905 0.0000
-8 5 16 -0.2925 0.0000
-8 5 17 0.4840 0.0000
-8 6 1 0.4093 0.0000
-8 6 2 -0.6032 0.0000
-8 6 3 0.1376 0.0000
-8 6 4 1.1641 0.0000
-8 6 5 -0.4240 0.0000
-8 6 6 0.6011 0.0000
-8 6 7 -0.2745 0.0000
-8 6 8 -1.9564 0.0000
-8 6 9 -1.6242 0.0000
-8 6 10 1.5747 0.0000
-8 6 11 0.6112 0.0000
-8 6 12 -2.5319 0.0000
-8 6 13 1.1476 0.0000
-8 6 14 1.8701 0.0000
-8 6 15 0.7032 0.0000
-8 6 16 -0.4063 0.0000
-8 7 1 -0.2282 0.0000
-8 7 2 -4.0965 0.0000
-8 7 3 0.3538 0.0000
-8 7 4 3.4896 0.0000
-8 7 5 0.8805 0.0000
-8 7 6 -2.8721 0.0000
-8 7 7 -0.5113 0.0000
-8 7 8 -0.3855 0.0000
-8 7 9 0.0151 0.0000
-8 7 10 -0.0385 0.0000
-8 7 11 0.9564 0.0000
-8 7 12 0.5036 0.0000
-8 7 13 0.5968 0.0000
-8 7 14 1.3463 0.0000
-8 7 15 -0.7793 0.0000
-8 7 16 0.4836 0.0000
-8 8 1 0.4270 0.0000
-8 8 2 -0.9455 0.0000
-8 8 3 -0.2776 0.0000
-8 8 4 1.9365 0.0000
-8 8 5 -0.6198 0.0000
-8 8 6 -1.4903 0.0000
-8 8 7 -0.2010 0.0000
-8 8 8 0.4916 0.0000
-8 8 9 -0.2334 0.0000
-8 8 10 1.6439 0.0000
-8 8 11 -0.0751 0.0000
-8 8 12 -0.8596 0.0000
-8 8 13 0.9514 0.0000
-8 8 14 0.1527 0.0000
-8 8 15 0.1677 0.0000
-8 8 16 0.5963 0.0000
-8 9 1 -1.7048 0.0000
-8 9 2 -3.9027 0.0000
-8 9 3 1.2258 0.0000
-8 9 4 3.7797 0.0000
-8 9 5 -0.1927 0.0000
-8 9 6 -3.2351 0.0000
-8 9 7 0.0136 0.0000
-8 9 8 0.6987 0.0000
-8 9 9 -0.4076 0.0000
-8 9 10 0.7496 0.0000
-8 9 11 1.6595 0.0000
-8 9 12 -1.4704 0.0000
-8 9 13 -3.5383 0.0000
-8 9 14 1.4841 0.0000
-8 9 15 2.1208 0.0000
-8 10 1 0.1851 0.0000
-8 10 2 -0.8142 0.0000
-8 10 3 1.5282 0.0000
-8 10 4 1.9626 0.0000
-8 10 5 -2.4417 0.0000
-8 10 6 -2.1165 0.0000
-8 10 7 1.0551 0.0000
-8 10 8 1.8796 0.0000
-8 10 9 -1.3307 0.0000
-8 10 10 -1.3634 0.0000
-8 10 11 -0.9845 0.0000
-8 10 12 -0.6782 0.0000
-8 10 13 1.1896 0.0000
-8 10 14 -0.3696 0.0000
-8 10 15 1.8043 0.0000
-8 11 1 -1.1121 0.0000
-8 11 2 0.1235 0.0000
-8 11 3 1.9731 0.0000
-8 11 4 0.7322 0.0000
-8 11 5 -1.9006 0.0000
-8 11 6 -1.8031 0.0000
-8 11 7 0.9666 0.0000
-8 11 8 -0.6799 0.0000
-8 11 9 -0.2576 0.0000
-8 11 10 -0.7551 0.0000
-8 11 11 -0.0922 0.0000
-8 11 12 -1.7361 0.0000
-8 11 13 0.2968 0.0000
-8 11 14 4.5282 0.0000
-8 12 1 1.9918 0.0000
-8 12 2 -0.5550 0.0000
-8 12 3 0.6924 0.0000
-8 12 4 1.4597 0.0000
-8 12 5 -2.1728 0.0000
-8 12 6 -2.5893 0.0000
-8 12 7 0.9970 0.0000
-8 12 8 1.5978 0.0000
-8 12 9 -2.6616 0.0000
-8 12 10 -0.1930 0.0000
-8 12 11 0.2625 0.0000
-8 12 12 1.6253 0.0000
-8 12 13 0.9281 0.0000
-8 12 14 1.2549 0.0000
-8 13 1 1.7674 0.0000
-8 13 2 1.2760 0.0000
-8 13 3 -1.8364 0.0000
-8 13 4 -1.0512 0.0000
-8 13 5 -0.0312 0.0000
-8 13 6 -0.4429 0.0000
-8 13 7 -0.1328 0.0000
-8 13 8 0.6438 0.0000
-8 13 9 -0.8987 0.0000
-8 13 10 -1.3660 0.0000
-8 13 11 3.0894 0.0000
-8 13 12 1.3443 0.0000
-8 13 13 0.9355 0.0000
-8 14 1 -0.1514 0.0000
-8 14 2 -2.0319 0.0000
-8 14 3 1.6316 0.0000
-8 14 4 1.3615 0.0000
-8 14 5 -2.0300 0.0000
-8 14 6 -2.3551 0.0000
-8 14 7 1.6734 0.0000
-8 14 8 0.7351 0.0000
-8 14 9 -0.2528 0.0000
-8 14 10 0.4126 0.0000
-8 14 11 0.8646 0.0000
-8 14 12 1.7333 0.0000
-8 15 1 2.0507 0.0000
-8 15 2 0.9424 0.0000
-8 15 3 -1.4065 0.0000
-8 15 4 -0.2308 0.0000
-8 15 5 -0.7687 0.0000
-8 15 6 -0.0577 0.0000
-8 15 7 0.7969 0.0000
-8 15 8 0.2440 0.0000
-8 15 9 -2.0118 0.0000
-8 15 10 1.7611 0.0000
-8 15 11 2.9262 0.0000
-8 16 1 0.3097 0.0000
-8 16 2 0.8074 0.0000
-8 16 3 0.8533 0.0000
-8 16 4 0.3598 0.0000
-8 16 5 -1.8006 0.0000
-8 16 6 -2.2106 0.0000
-8 16 7 0.8198 0.0000
-8 16 8 1.3945 0.0000
-8 16 9 0.8303 0.0000
-8 17 1 3.9066 0.0000
-8 17 2 0.7874 0.0000
-8 17 3 -1.7453 0.0000
-8 17 4 -2.9037 0.0000
-8 17 5 0.0995 0.0000
-8 17 6 1.2063 0.0000
-8 17 7 -0.1000 0.0000
-8 17 8 -0.1702 0.0000
-8 18 1 1.3983 0.0000
-8 18 2 -0.5658 0.0000
-8 18 3 -1.7872 0.0000
-8 18 4 0.1880 0.0000
-8 18 5 -0.9934 0.0000
-7 0 2 -1.8943 0.0000
-7 0 4 5.7821 0.0000
-7 0 6 -1.1797 0.0000
-7 0 8 0.1352 0.0000
-7 0 10 -0.9925 0.0000
-7 0 12 -2.2004 0.0000
-7 0 14 1.8309 0.0000
-7 0 16 -1.4683 0.0000
-7 0 18 1.2982 0.0000
-7 1 1 -1.8351 0.0000
-7 1 2 4.6572 0.0000
-7 1 3 6.2005 0.0000
-7 1 4 -2.6457 0.0000
-7 1 5 -4.6673 0.0000
-7 1 6 -0.4022 0.0000
-7 1 7 4.4395 0.0000
-7 1 8 -1.2805 0.0000
-7 1 9 -1.9871 0.0000
-7 1 10 -0.8009 0.0000
-7 1 11 -2.2530 0.0000
-7 1 12 1.2058 0.0000
-7 1 13 2.6751 0.0000
-7 1 14 -0.3322 0.0000
-7 1 15 -2.0704 0.0000
-7 1 16 -0.3916 0.0000
-7 1 17 1.6869 0.0000
-7 1 18 0.5000 0.0000
-7 2 1 4.3090 0.0000
-7 2 2 -0.8742 0.0000
-7 2 3 -1.0826 0.0000
-7 2 4 -1.1009 0.0000
-7 2 5 -1.6042 0.0000
-7 2 6 1.0744 0.0000
-7 2 7 0.7409 0.0000
-7 2 8 -0.3810 0.0000
-7 2 9 -2.8120 0.0000
-7 2 10 0.6498 0.0000
-7 2 11 1.9422 0.0000
-7 2 12 -0.9032 0.0000
-7 2 13 -0.1543 0.0000
-7 2 14 1.9296 0.0000
-7 2 15 -0.0547 0.0000
-7 2 16 -1.3470 0.0000
-7 2 17 -0.6893 0.0000
-7 2 18 2.6561 0.0000
-7 3 1 2.3029 0.0000
-7 3 2 -0.0750 0.0000
-7 3 3 -1.1274 0.0000
-7 3 4 -2.5928 0.0000
-7 3 5 -1.6618 0.0000
-7 3 6 2.4744 0.0000
-7 3 7 1.8289 0.0000
-7 3 8 -0.3597 0.0000
-7 3 9 -0.4386 0.0000
-7 3 10 -1.4756 0.0000
-7 3 11 -0.2870 0.0000
-7 3 12 3.0465 0.0000
-7 3 13 1.0273 0.0000
-7 3 14 -0.8222 0.0000
-7 3 15 -1.0357 0.0000
-7 3 16 -1.4016 0.0000
-7 3 17 1.9989 0.0000
-7 3 18 0.5057 0.0000
-7 4 1 2.7198 0.0000
-7 4 2 -4.9756 0.0000
-7 4 3 -4.5758 0.0000
-7 4 4 2.6894 0.0000
-7 4 5 2.8478 0.0000
-7 4 6 0.8125 0.0000
-7 4 7 1.3711 0.0000
-7 4 8 -2.2856 0.0000
-7 4 9 -2.7577 0.0000
-7 4 10 1.9024 0.0000
-7 4 11 3.8063 0.0000
-7 4 12 -2.4513 0.0000
-7 4 13 -0.8486 0.0000
-7 4 14 1.1782 0.0000
-7 4 15 -0.0159 0.0000
-7 4 16 -1.5914 0.0000
-7 4 17 -0.1115 0.0000
-7 4 18 2.5928 0.0000
-7 5 1 -0.5026 0.0000
-7 5 2 -0.9874 0.0000
-7 5 3 -1.3206 0.0000
-7 5 4 2.0222 0.0000
-7 5 5 3.7285 0.0000
-7 5 6 -1.9495 0.0000
-7 5 7 -1.3795 0.0000
-7 5 8 1.8310 0.0000
-7 5 9 -1.7810 0.0000
-7 5 10 -1.8707 0.0000
-7 5 11 1.8802 0.0000
-7 5 12 1.8789 0.0000
-7 5 13 -2.4033 0.0000
-7 5 14 1.8636 0.0000
-7 5 15 -0.7229 0.0000
-7 5 16 -2.4990 0.0000
-7 5 17 1.9513 0.0000
-7 5 18 2.1223 0.0000
-7 6 1 1.9995 0.0000
-7 6 2 -1.5600 0.0000
-7 6 3 -0.2289 0.0000
-7 6 4 1.7502 0.0000
-7 6 5 0.2526 0.0000
-7 6 6 1.1409 0.0000
-7 6 7 -1.0969 0.0000
-7 6 8 -2.7571 0.0000
-7 6 9 -1.1788 0.0000
-7 6 10 2.7451 0.0000
-7 6 11 1.5703 0.0000
-7 6 12 -1.5351 0.0000
-7 6 13 0.9778 0.0000
-7 6 14 0.0391 0.0000
-7 6 15 -0.3138 0.0000
-7 6 16 0.2265 0.0000
-7 6 17 1.1867 0.0000
-7 6 18 1.3359 0.0000
-7 7 1 2.4755 0.0000
-7 7 2 -2.7878 0.0000
-7 7 3 -1.1264 0.0000
-7 7 4 5.2118 0.0000
-7 7 5 0.9083 0.0000
-7 7 6 -5.2339 0.0000
-7 7 7 0.6625 0.0000
-7 7 8 1.5955 0.0000
-7 7 9 -1.5671 0.0000
-7 7 10 0.6335 0.0000
-7 7 11 3.0711 0.0000
-7 7 12 -0.1106 0.0000
-7 7 13 0.1972 0.0000
-7 7 14 1.9124 0.0000
-7 7 15 -2.4066 0.0000
-7 7 16 -1.1045 0.0000
-7 7 17 4.3458 0.0000
-7 8 1 3.8208 0.0000
-7 8 2 0.5340 0.0000
-7 8 3 -3.1964 0.0000
-7 8 4 0.3686 0.0000
-7 8 5 2.9036 0.0000
-7 8 6 -0.2240 0.0000
-7 8 7 -2.1192 0.0000
-7 8 8 0.6632 0.0000
-7 8 9 1.2408 0.0000
-7 8 10 0.8744 0.0000
-7 8 11 1.8552 0.0000
-7 8 12 1.0575 0.0000
-7 8 13 -0.6221 0.0000
-7 8 14 -1.6220 0.0000
-7 8 15 1.1561 0.0000
-7 8 16 1.5118 0.0000
-7 8 17 -1.3896 0.0000
-7 9 1 0.0085 0.0000
-7 9 2 -3.5971 0.0000
-7 9 3 0.7730 0.0000
-7 9 4 5.2125 0.0000
-7 9 5 -0.0521 0.0000
-7 9 6 -3.5379 0.0000
-7 9 7 0.0466 0.0000
-7 9 8 1.3023 0.0000
-7 9 9 0.8423 0.0000
-7 9 10 2.2128 0.0000
-7 9 11 0.8478 0.0000
-7 9 12 -1.1879 0.0000
-7 9 13 -2.2502 0.0000
-7 9 14 0.9550 0.0000
-7 9 15 -0.1154 0.0000
-7 9 16 0.7591 0.0000
-7 9 17 0.9983 0.0000
-7 10 1 4.0102 0.0000
-7 10 2 -1.3516 0.0000
-7 10 3 -1.9359 0.0000
-7 10 4 2.6307 0.0000
-7 10 5 1.7092 0.0000
-7 10 6 -3.3763 0.0000
-7 10 7 -0.4313 0.0000
-7 10 8 3.5612 0.0000
-7 10 9 -0.5267 0.0000
-7 10 10 -1.9925 0.0000
-7 10 11 1.0710 0.0000
-7 10 12 0.3521 0.0000
-7 10 13 -1.7092 0.0000
-7 10 14 -1.8866 0.0000
-7 10 15 2.9782 0.0000
-7 10 16 -0.2075 0.0000
-7 11 1 -1.5235 0.0000
-7 11 2 0.3768 0.0000
-7 11 3 1.5131 0.0000
-7 11 4 1.8904 0.0000
-7 11 5 -1.3469 0.0000
-7 11 6 -2.0958 0.0000
-7 11 7 -0.6139 0.0000
-7 11 8 1.4928 0.0000
-7 11 9 1.7206 0.0000
-7 11 10 -1.5720 0.0000
-7 11 11 -1.8103 0.0000
-7 11 12 -1.5632 0.0000
-7 11 13 1.0429 0.0000
-7 11 14 2.4217 0.0000
-7 11 15 -0.8540 0.0000
-7 12 1 1.8589 0.0000
-7 12 2 -0.3450 0.0000
-7 12 3 0.6195 0.0000
-7 12 4 1.8209 0.0000
-7 12 5 -1.2046 0.0000
-7 12 6 -3.5873 0.0000
-7 12 7 2.1563 0.0000
-7 12 8 2.3172 0.0000
-7 12 9 -2.6214 0.0000
-7 12 10 -1.6187 0.0000
-7 12 11 0.9933 0.0000
-7 12 12 1.3561 0.0000
-7 12 13 -1.3225 0.0000
-7 12 14 1.9867 0.0000
-7 12 15 1.9525 0.0000
-7 13 1 3.9063 0.0000
-7 13 2 1.7984 0.0000
-7 13 3 -2.3908 0.0000
-7 13 4 -0.2424 0.0000
-7 13 5 1.3943 0.0000
-7 13 6 -0.5064 0.0000
-7 13 7 -1.5973 0.0000
-7 13 8 2.3455 0.0000
-7 13 9 -0.6143 0.0000
-7 13 10 -2.1625 0.0000
-7 13 11 1.3505 0.0000
-7 13 12 2.2032 0.0000
-7 13 13 1.6174 0.0000
-7 13 14 -0.7446 0.0000
-7 14 1 0.4626 0.0000
-7 14 2 1.0886 0.0000
-7 14 3 1.1361 0.0000
-7 14 4 0.1919 0.0000
-7 14 5 -1.3582 0.0000
-7 14 6 -1.7085 0.0000
-7 14 7 1.9733 0.0000
-7 14 8 0.8382 0.0000
-7 14 9 -0.0038 0.0000
-7 14 10 -1.4159 0.0000
-7 14 11 1.1767 0.0000
-7 14 12 2.0866 0.0000
-7 14 13 1.1992 0.0000
-7 15 1 3.6133 0.0000
-7 15 2 -0.1053 0.0000
-7 15 3 -2.1011 0.0000
-7 15 4 0.1898 0.0000
-7 15 5 0.7198 0.0000
-7 15 6 -0.0064 0.0000
-7 15 7 -0.3486 0.0000
-7 15 8 0.3054 0.0000
-7 15 9 -1.8116 0.0000
-7 15 10 1.3412 0.0000
-7 15 11 2.3856 0.0000
-7 15 12 1.3655 0.0000
-7 16 1 0.3145 0.0000
-7 16 2 2.1399 0.0000
-7 16 3 0.0825 0.0000
-7 16 4 -0.1924 0.0000
-7 16 5 -1.4259 0.0000
-7 16 6 -2.2599 0.0000
-7 16 7 0.5255 0.0000
-7 16 8 1.9281 0.0000
-7 16 9 0.3403 0.0000
-7 16 10 -1.4980 0.0000
-7 16 11 1.2358 0.0000
-7 17 1 3.8979 0.0000
-7 17 2 0.6145 0.0000
-7 17 3 -2.4755 0.0000
-7 17 4 -3.4023 0.0000
-7 17 5 1.2977 0.0000
-7 17 6 1.3909 0.0000
-7 17 7 -1.7757 0.0000
-7 17 8 -0.9807 0.0000
-7 17 9 1.6003 0.0000
-7 17 10 1.6781 0.0000
-7 18 1 1.2995 0.0000
-7 18 2 0.2547 0.0000
-7 18 3 -1.9843 0.0000
-7 18 4 -0.7485 0.0000
-7 18 5 -1.3255 0.0000
-7 18 6 -0.3747 0.0000
-7 18 7 1.2805 0.0000
-7 18 8 1.7322 0.0000
-7 19 1 2.1353 0.0000
-7 19 2 -0.3386 0.0000
-7 19 3 -4.0481 0.0000
-7 19 4 -1.7080 0.0000
-7 19 5 2.9884 0.0000
-7 19 6 1.2195 0.0000
-6 0 2 -9.1317 0.0000
-6 0 4 15.3690 0.0000
-6 0 6 -8.3685 0.0000
-6 0 8 3.9147 0.0000
-6 0 10 -0.5507 0.0000
-6 0 12 -3.6029 0.0000
-6 0 14 4.1923 0.0000
-6 0 16 -3.2332 0.0000
-6 0 18 2.1944 0.0000
-6 1 1 -5.7956 0.0000
-6 1 2 9.6506 0.0000
-6 1 3 6.4508 0.0000
-6 1 4 -2.7806 0.0000
-6 1 5 -2.6235 0.0000
-6 1 6 -1.2422 0.0000
-6 1 7 1.8016 0.0000
-6 1 8 0.8875 0.0000
-6 1 9 -0.7934 0.0000
-6 1 10 -2.8263 0.0000
-6 1 11 -1.3949 0.0000
-6 1 12 1.4651 0.0000
-6 1 13 1.1185 0.0000
-6 1 14 -0.9149 0.0000
-6 1 15 0.4251 0.0000
-6 1 16 -0.8367 0.0000
-6 1 17 -0.7980 0.0000
-6 1 18 1.1815 0.0000
-6 1 19 0.8149 0.0000
-6 2 1 3.6615 0.0000
-6 2 2 -2.1358 0.0000
-6 2 3 4.6129 0.0000
-6 2 4 2.9644 0.0000
-6 2 5 -5.5694 0.0000
-6 2 6 -3.7806 0.0000
-6 2 7 2.4852 0.0000
-6 2 8 1.3872 0.0000
-6 2 9 -1.7475 0.0000
-6 2 10 -0.6071 0.0000
-6 2 11 -0.3703 0.0000
-6 2 12 -0.8872 0.0000
-6 2 13 0.4670 0.0000
-6 2 14 2.8410 0.0000
-6 2 15 -1.0711 0.0000
-6 2 16 -2.0397 0.0000
-6 2 17 -0.2125 0.0000
-6 2 18 2.6724 0.0000
-6 2 19 0.1353 0.0000
-6 3 1 7.5684 0.0000
-6 3 2 7.8191 0.0000
-6 3 3 -4.9893 0.0000
-6 3 4 -6.4364 0.0000
-6 3 5 -0.5216 0.0000
-6 3 6 1.4275 0.0000
-6 3 7 1.5970 0.0000
-6 3 8 2.7396 0.0000
-6 3 9 -2.7256 0.0000
-6 3 10 -3.6805 0.0000
-6 3 11 1.4883 0.0000
-6 3 12 3.5685 0.0000
-6 3 13 -0.6624 0.0000
-6 3 14 -1.2854 0.0000
-6 3 15 0.9730 0.0000
-6 3 16 -2.2811 0.0000
-6 3 17 0.7407 0.0000
-6 3 18 2.3628 0.0000
-6 3 19 -0.9636 0.0000
-6 4 1 1.3860 0.0000
-6 4 2 -5.0851 0.0000
-6 4 3 -2.7624 0.0000
-6 4 4 0.9316 0.0000
-6 4 5 1.2222 0.0000
-6 4 6 1.4506 0.0000
-6 4 7 0.7260 0.0000
-6 4 8 -1.5989 0.0000
-6 4 9 -0.7632 0.0000
-6 4 10 0.1420 0.0000
-6 4 11 2.1019 0.0000
-6 4 12 -1.0908 0.0000
-6 4 13 -0.9461 0.0000
-6 4 14 1.0704 0.0000
-6 4 15 -0.1259 0.0000
-6 4 16 -1.3902 0.0000
-6 4 17 -0.7369 0.0000
-6 4 18 1.7479 0.0000
-6 4 19 -0.0561 0.0000
-6 5 1 4.3665 0.0000
-6 5 2 1.0322 0.0000
-6 5 3 -6.7170 0.0000
-6 5 4 2.2278 0.0000
-6 5 5 5.0734 0.0000
-6 5 6 -3.0648 0.0000
-6 5 7 0.2601 0.0000
-6 5 8 3.1498 0.0000
-6 5 9 -4.1492 0.0000
-6 5 10 -3.0315 0.0000
-6 5 11 3.8496 0.0000
-6 5 12 1.4868 0.0000
-6 5 13 -3.2494 0.0000
-6 5 14 0.9191 0.0000
-6 5 15 -0.0447 0.0000
-6 5 16 -3.3517 0.0000
-6 5 17 1.6253 0.0000
-6 5 18 1.7626 0.0000
-6 5 19 -1.8185 0.0000
-6 6 1 -0.2739 0.0000
-6 6 2 1.0512 0.0000
-6 6 3 -0.6916 0.0000
-6 6 4 -0.6708 0.0000
-6 6 5 3.8965 0.0000
-6 6 6 0.9235 0.0000
-6 6 7 -4.7757 0.0000
-6 6 8 -1.3979 0.0000
-6 6 9 1.0006 0.0000
-6 6 10 0.4519 0.0000
-6 6 11 0.4650 0.0000
-6 6 12 0.1320 0.0000
-6 6 13 -1.5560 0.0000
-6 6 14 -0.5695 0.0000
-6 6 15 0.2122 0.0000
-6 6 16 -0.1485 0.0000
-6 6 17 -1.0030 0.0000
-6 6 18 1.0593 0.0000
-6 6 19 0.2644 0.0000
-6 7 1 3.5366 0.0000
-6 7 2 -1.0731 0.0000
-6 7 3 0.4348 0.0000
-6 7 4 4.4277 0.0000
-6 7 5 -2.7527 0.0000
-6 7 6 -4.6739 0.0000
-6 7 7 2.6568 0.0000
-6 7 8 1.1850 0.0000
-6 7 9 -2.9747 0.0000
-6 7 10 0.6660 0.0000
-6 7 11 2.5412 0.0000
-6 7 12 -1.5203 0.0000
-6 7 13 0.4241 0.0000
-6 7 14 0.6026 0.0000
-6 7 15 -2.5932 0.0000
-6 7 16 -1.7132 0.0000
-6 7 17 3.6876 0.0000
-6 7 18 0.3438 0.0000
-6 8 1 5.0354 0.0000
-6 8 2 3.5648 0.0000
-6 8 3 -6.3540 0.0000
-6 8 4 -1.0457 0.0000
-6 8 5 5.3476 0.0000
-6 8 6 -1.3442 0.0000
-6 8 7 -3.5516 0.0000
-6 8 8 1.9873 0.0000
-6 8 9 1.2623 0.0000
-6 8 10 -0.8507 0.0000
-6 8 11 2.1796 0.0000
-6 8 12 1.0815 0.0000
-6 8 13 -3.2797 0.0000
-6 8 14 -1.0427 0.0000
-6 8 15 2.0475 0.0000
-6 8 16 0.2980 0.0000
-6 8 17 -2.3310 0.0000
-6 8 18 1.9269 0.0000
-6 9 1 0.5021 0.0000
-6 9 2 1.4260 0.0000
-6 9 3 1.3918 0.0000
-6 9 4 -0.2363 0.0000
-6 9 5 -0.8738 0.0000
-6 9 6 -0.0591 0.0000
-6 9 7 -0.4103 0.0000
-6 9 8 0.0517 0.0000
-6 9 9 2.3812 0.0000
-6 9 10 1.3031 0.0000
-6 9 11 -1.7831 0.0000
-6 9 12 -0.9327 0.0000
-6 9 13 0.2968 0.0000
-6 9 14 -0.6071 0.0000
-6 9 15 -1.6356 0.0000
-6 9 16 0.8947 0.0000
-6 9 17 1.3529 0.0000
-6 10 1 6.3705 0.0000
-6 10 2 -0.3063 0.0000
-6 10 3 -4.8423 0.0000
-6 10 4 0.6900 0.0000
-6 10 5 3.6463 0.0000
-6 10 6 -1.7004 0.0000
-6 10 7 -1.6474 0.0000
-6 10 8 1.8531 0.0000
-6 10 9 -0.6048 0.0000
-6 10 10 -1.0710 0.0000
-6 10 11 1.3050 0.0000
-6 10 12 -0.0749 0.0000
-6 10 13 -3.8488 0.0000
-6 10 14 -0.8929 0.0000
-6 10 15 2.9111 0.0000
-6 10 16 -1.4872 0.0000
-6 10 17 -0.6563 0.0000
-6 11 1 0.0204 0.0000
-6 11 2 1.5922 0.0000
-6 11 3 -0.8251 0.0000
-6 11 4 -0.0443 0.0000
-6 11 5 0.2517 0.0000
-6 11 6 -2.2335 0.0000
-6 11 7 -2.8469 0.0000
-6 11 8 2.7994 0.0000
-6 11 9 3.4652 0.0000
-6 11 10 -4.0858 0.0000
-6 11 11 -3.7838 0.0000
-6 11 12 0.4581 0.0000
-6 11 13 2.2250 0.0000
-6 11 14 -1.5981 0.0000
-6 11 15 -1.2446 0.0000
-6 11 16 1.4936 0.0000
-6 12 1 0.8187 0.0000
-6 12 2 0.7317 0.0000
-6 12 3 -2.0163 0.0000
-6 12 4 -1.1264 0.0000
-6 12 5 0.5254 0.0000
-6 12 6 -1.0736 0.0000
-6 12 7 -0.1359 0.0000
-6 12 8 0.4790 0.0000
-6 12 9 -1.4235 0.0000
-6 12 10 -1.0812 0.0000
-6 12 11 0.3395 0.0000
-6 12 12 -0.0889 0.0000
-6 12 13 -2.3835 0.0000
-6 12 14 2.5935 0.0000
-6 12 15 1.0251 0.0000
-6 12 16 -1.6485 0.0000
-6 13 1 1.8026 0.0000
-6 13 2 -0.0668 0.0000
-6 13 3 -1.6081 0.0000
-6 13 4 -0.1615 0.0000
-6 13 5 1.3995 0.0000
-6 13 6 -1.6242 0.0000
-6 13 7 -1.5668 0.0000
-6 13 8 2.8240 0.0000
-6 13 9 0.1176 0.0000
-6 13 10 -3.5783 0.0000
-6 13 11 -0.0635 0.0000
-6 13 12 2.8986 0.0000
-6 13 13 0.9899 0.0000
-6 13 14 -1.5307 0.0000
-6 13 15 1.6093 0.0000
-6 14 1 1.4167 0.0000
-6 14 2 2.8529 0.0000
-6 14 3 -1.4534 0.0000
-6 14 4 -1.9645 0.0000
-6 14 5 0.8272 0.0000
-6 14 6 0.9318 0.0000
-6 14 7 -0.1937 0.0000
-6 14 8 0.3512 0.0000
-6 14 9 -0.0687 0.0000
-6 14 10 -1.3301 0.0000
-6 14 11 0.4542 0.0000
-6 14 12 1.7712 0.0000
-6 14 13 1.9095 0.0000
-6 14 14 0.6005 0.0000
-6 15 1 0.0599 0.0000
-6 15 2 -0.6560 0.0000
-6 15 3 -0.9453 0.0000
-6 15 4 0.7360 0.0000
-6 15 5 1.4205 0.0000
-6 15 6 -0.2923 0.0000
-6 15 7 -1.0149 0.0000
-6 15 8 -0.2787 0.0000
-6 15 9 0.1966 0.0000
-6 15 10 -0.3188 0.0000
-6 15 11 1.1736 0.0000
-6 15 12 2.3175 0.0000
-6 15 13 0.0535 0.0000
-6 15 14 -1.0433 0.0000
-6 16 1 1.0727 0.0000
-6 16 2 1.9548 0.0000
-6 16 3 -0.9514 0.0000
-6 16 4 -1.0895 0.0000
-6 16 5 0.5294 0.0000
-6 16 6 -0.3333 0.0000
-6 16 7 -0.9270 0.0000
-6 16 8 0.6779 0.0000
-6 16 9 -0.7926 0.0000
-6 16 10 -0.7179 0.0000
-6 16 11 1.0244 0.0000
-6 16 12 2.5291 0.0000
-6 16 13 0.0118 0.0000
-6 17 1 0.0510 0.0000
-6 17 2 0.1318 0.0000
-6 17 3 -1.2685 0.0000
-6 17 4 -1.1461 0.0000
-6 17 5 1.9663 0.0000
-6 17 6 -0.1927 0.0000
-6 17 7 -3.4360 0.0000
-6 17 8 -1.2406 0.0000
-6 17 9 2.4051 0.0000
-6 17 10 0.6670 0.0000
-6 17 11 1.1873 0.0000
-6 17 12 -0.0445 0.0000
-6 18 1 0.7431 0.0000
-6 18 2 0.0666 0.0000
-6 18 3 -0.5745 0.0000
-6 18 4 -0.6954 0.0000
-6 18 5 -0.5867 0.0000
-6 18 6 -1.1931 0.0000
-6 18 7 -0.9999 0.0000
-6 18 8 1.3378 0.0000
-6 18 9 1.1048 0.0000
-6 18 10 0.0342 0.0000
-6 19 1 0.3609 0.0000
-6 19 2 -0.2846 0.0000
-6 19 3 -2.9465 0.0000
-6 19 4 -0.0308 0.0000
-6 19 5 1.4540 0.0000
-6 19 6 -0.3279 0.0000
-6 19 7 -1.1291 0.0000
-6 19 8 1.0810 0.0000
-6 19 9 1.5029 0.0000
-6 20 1 -1.5631 0.0000
-6 20 2 -0.7810 0.0000
-6 20 3 0.8252 0.0000
-6 20 4 0.5415 0.0000
-6 20 5 0.0335 0.0000
-6 20 6 -1.6314 0.0000
-6 20 7 0.7222 0.0000
-5 0 2 -16.9814 0.0000
-5 0 4 19.3326 0.0000
-5 0 6 -9.1136 0.0000
-5 0 8 2.1314 0.0000
-5 0 10 2.4574 0.0000
-5 0 14 3.1928 0.0000
-5 0 16 -3.5417 0.0000
-5 0 18 1.3936 0.0000
-5 0 20 -0.3958 0.0000
-5 1 1 -3.4580 0.0000
-5 1 2 9.3728 0.0000
-5 1 3 -3.9337 0.0000
-5 1 4 1.9794 0.0000
-5 1 5 8.6340 0.0000
-5 1 6 -4.7987 0.0000
-5 1 7 -5.9785 0.0000
-5 1 8 3.8524 0.0000
-5 1 9 0.9073 0.0000
-5 1 10 -3.5116 0.0000
-5 1 11 2.1641 0.0000
-5 1 12 0.6444 0.0000
-5 1 13 -2.2827 0.0000
-5 1 14 -0.5511 0.0000
-5 1 15 2.1842 0.0000
-5 1 16 -0.7210 0.0000
-5 1 17 -3.3540 0.0000
-5 1 18 1.8592 0.0000
-5 1 19 2.5516 0.0000
-5 1 20 -1.1688 0.0000
-5 2 1 -5.3275 0.0000
-5 2 2 1.9593 0.0000
-5 2 3 13.7003 0.0000
-5 2 4 1.7448 0.0000
-5 2 5 -7.8338 0.0000
-5 2 6 -3.1259 0.0000
-5 2 7 -0.1190 0.0000
-5 2 8 0.0455 0.0000
-5 2 9 3.2848 0.0000
-5 2 10 -1.0593 0.0000
-5 2 11 -4.2354 0.0000
-5 2 12 1.1537 0.0000
-5 2 13 1.5859 0.0000
-5 2 14 0.4988 0.0000
-5 2 15 -0.9330 0.0000
-5 2 16 -1.6444 0.0000
-5 2 17 0.4134 0.0000
-5 2 18 1.8795 0.0000
-5 2 19 1.1920 0.0000
-5 2 20 -2.2920 0.0000
-5 3 1 15.3964 0.0000
-5 3 2 8.4004 0.0000
-5 3 3 -9.4157 0.0000
-5 3 4 -3.0242 0.0000
-5 3 5 1.4592 0.0000
-5 3 6 -3.2139 0.0000
-5 3 7 1.3689 0.0000
-5 3 8 3.8072 0.0000
-5 3 9 -4.7806 0.0000
-5 3 10 -1.9922 0.0000
-5 3 11 3.8444 0.0000
-5 3 12 1.2530 0.0000
-5 3 13 -2.4659 0.0000
-5 3 14 -0.7408 0.0000
-5 3 15 1.5763 0.0000
-5 3 16 -0.2300 0.0000
-5 3 17 0.0571 0.0000
-5 3 18 2.4496 0.0000
-5 3 19 -1.0537 0.0000
-5 3 20 -1.4658 0.0000
-5 4 1 -0.9087 0.0000
-5 4 2 2.9321 0.0000
-5 4 3 -1.3388 0.0000
-5 4 4 -5.5236 0.0000
-5 4 5 2.7140 0.0000
-5 4 6 2.1322 0.0000
-5 4 7 -4.8592 0.0000
-5 4 8 1.6881 0.0000
-5 4 9 4.2417 0.0000
-5 4 10 -3.4855 0.0000
-5 4 11 -0.7351 0.0000
-5 4 12 1.9252 0.0000
-5 4 13 -1.2638 0.0000
-5 4 14 -0.4153 0.0000
-5 4 15 2.3013 0.0000
-5 4 16 -0.6184 0.0000
-5 4 17 -0.1576 0.0000
-5 4 18 1.6180 0.0000
-5 4 19 -0.4464 0.0000
-5 4 20 -2.7258 0.0000
-5 5 1 5.9795 0.0000
-5 5 2 -0.7850 0.0000
-5 5 3 -8.4969 0.0000
-5 5 4 1.8739 0.0000
-5 5 5 3.1295 0.0000
-5 5 6 -0.2602 0.0000
-5 5 7 2.1682 0.0000
-5 5 8 -0.5058 0.0000
-5 5 9 -3.6620 0.0000
-5 5 10 -0.8119 0.0000
-5 5 11 2.7573 0.0000
-5 5 12 0.3928 0.0000
-5 5 13 -2.2762 0.0000
-5 5 14 0.0541 0.0000
-5 5 15 1.3009 0.0000
-5 5 16 1.3171 0.0000
-5 5 17 -0.2614 0.0000
-5 5 18 -1.0773 0.0000
-5 5 19 -0.9253 0.0000
-5 6 1 -1.2451 0.0000
-5 6 2 3.4394 0.0000
-5 6 3 -3.1699 0.0000
-5 6 4 -0.9617 0.0000
-5 6 5 9.0425 0.0000
-5 6 6 -2.6187 0.0000
-5 6 7 -8.2973 0.0000
-5 6 8 2.7896 0.0000
-5 6 9 2.4161 0.0000
-5 6 10 -2.6472 0.0000
-5 6 11 -0.3661 0.0000
-5 6 12 0.9943 0.0000
-5 6 13 -2.1377 0.0000
-5 6 14 0.8572 0.0000
-5 6 15 2.7977 0.0000
-5 6 16 -1.0654 0.0000
-5 6 17 -0.8420 0.0000
-5 6 18 -0.3157 0.0000
-5 6 19 -0.8037 0.0000
-5 7 1 0.3621 0.0000
-5 7 2 1.4824 0.0000
-5 7 3 3.0768 0.0000
-5 7 4 0.1391 0.0000
-5 7 5 -4.1876 0.0000
-5 7 6 0.1891 0.0000
-5 7 7 0.7049 0.0000
-5 7 8 -1.8526 0.0000
-5 7 9 -0.9370 0.0000
-5 7 10 0.1350 0.0000
-5 7 11 0.5072 0.0000
-5 7 12 0.3397 0.0000
-5 7 13 0.7464 0.0000
-5 7 14 -0.6244 0.0000
-5 7 15 -0.0539 0.0000
-5 7 16 1.0485 0.0000
-5 7 17 -0.9633 0.0000
-5 7 18 -0.4607 0.0000
-5 7 19 1.6201 0.0000
-5 8 1 3.1212 0.0000
-5 8 2 1.7948 0.0000
-5 8 3 -5.2185 0.0000
-5 8 4 1.9144 0.0000
-5 8 5 4.0096 0.0000
-5 8 6 -5.2402 0.0000
-5 8 7 -3.2037 0.0000
-5 8 8 3.2759 0.0000
-5 8 9 1.4786 0.0000
-5 8 10 -0.7965 0.0000
-5 8 11 0.9860 0.0000
-5 8 12 -0.1275 0.0000
-5 8 13 -1.6358 0.0000
-5 8 14 1.2771 0.0000
-5 8 15 2.6561 0.0000
-5 8 16 -1.4375 0.0000
-5 8 17 -1.7876 0.0000
-5 8 18 1.2042 0.0000
-5 8 19 2.3767 0.0000
-5 9 1 -2.0522 0.0000
-5 9 2 7.2997 0.0000
-5 9 3 2.1619 0.0000
-5 9 4 -6.2741 0.0000
-5 9 5 -1.2315 0.0000
-5 9 6 3.1721 0.0000
-5 9 7 -1.0661 0.0000
-5 9 8 0.2697 0.0000
-5 9 9 3.2003 0.0000
-5 9 10 -0.6960 0.0000
-5 9 11 -2.3306 0.0000
-5 9 12 1.7765 0.0000
-5 9 13 1.2178 0.0000
-5 9 14 -1.1122 0.0000
-5 9 15 -0.6978 0.0000
-5 9 16 1.8182 0.0000
-5 9 17 -0.4844 0.0000
-5 9 18 0.6430 0.0000
-5 10 1 2.3831 0.0000
-5 10 2 -0.0076 0.0000
-5 10 3 -1.3424 0.0000
-5 10 4 -0.8071 0.0000
-5 10 5 1.7770 0.0000
-5 10 6 0.6940 0.0000
-5 10 7 -1.2050 0.0000
-5 10 8 -0.1860 0.0000
-5 10 9 1.4151 0.0000
-5 10 10 0.5290 0.0000
-5 10 11 -0.4217 0.0000
-5 10 12 -0.8001 0.0000
-5 10 13 -1.0206 0.0000
-5 10 14 0.6482 0.0000
-5 10 15 1.8483 0.0000
-5 10 16 -2.3821 0.0000
-5 10 17 0.7700 0.0000
-5 10 18 1.8792 0.0000
-5 11 1 1.1459 0.0000
-5 11 2 4.9076 0.0000
-5 11 3 -0.7546 0.0000
-5 11 4 -3.2575 0.0000
-5 11 5 -0.3660 0.0000
-5 11 6 -0.2216 0.0000
-5 11 7 -1.0954 0.0000
-5 11 8 3.2730 0.0000
-5 11 9 2.0588 0.0000
-5 11 10 -5.0012 0.0000
-5 11 11 -2.8105 0.0000
-5 11 12 3.6819 0.0000
-5 11 13 1.3440 0.0000
-5 11 14 -3.4033 0.0000
-5 11 15 -0.5962 0.0000
-5 11 16 2.7795 0.0000
-5 11 17 -1.3334 0.0000
-5 12 1 -0.5468 0.0000
-5 12 2 2.5932 0.0000
-5 12 3 -3.2301 0.0000
-5 12 4 -3.8152 0.0000
-5 12 5 2.1072 0.0000
-5 12 6 2.1679 0.0000
-5 12 7 -2.3343 0.0000
-5 12 8 -0.9418 0.0000
-5 12 9 1.3442 0.0000
-5 12 10 -0.4240 0.0000
-5 12 11 -1.0078 0.0000
-5 12 12 -0.5548 0.0000
-5 12 13 -0.5049 0.0000
-5 12 14 0.7893 0.0000
-5 12 15 -0.0750 0.0000
-5 12 16 -0.9284 0.0000
-5 13 1 -0.4319 0.0000
-5 13 2 -0.0909 0.0000
-5 13 3 0.1419 0.0000
-5 13 4 -2.6657 0.0000
-5 13 5 0.1014 0.0000
-5 13 6 0.6722 0.0000
-5 13 7 0.7693 0.0000
-5 13 8 1.3212 0.0000
-5 13 9 -0.4943 0.0000
-5 13 10 -2.6024 0.0000
-5 13 11 0.1825 0.0000
-5 13 12 2.3467 0.0000
-5 13 13 -1.1740 0.0000
-5 13 14 -1.1091 0.0000
-5 13 15 1.9862 0.0000
-5 13 16 0.7363 0.0000
-5 14 1 1.5943 0.0000
-5 14 2 1.4009 0.0000
-5 14 3 -3.6894 0.0000
-5 14 4 -1.7329 0.0000
-5 14 5 3.2323 0.0000
-5 14 6 2.9473 0.0000
-5 14 7 -1.3801 0.0000
-5 14 8 -0.2498 0.0000
-5 14 9 0.2960 0.0000
-5 14 10 -0.5197 0.0000
-5 14 11 0.1498 0.0000
-5 14 12 0.7968 0.0000
-5 14 13 0.8139 0.0000
-5 14 14 -0.3889 0.0000
-5 14 15 0.1180 0.0000
-5 15 1 -3.1179 0.0000
-5 15 2 -0.9131 0.0000
-5 15 3 1.2274 0.0000
-5 15 4 0.6027 0.0000
-5 15 5 1.6324 0.0000
-5 15 6 0.8908 0.0000
-5 15 7 -0.9115 0.0000
-5 15 8 -0.4262 0.0000
-5 15 9 1.7305 0.0000
-5 15 10 -0.6060 0.0000
-5 15 11 -1.0074 0.0000
-5 15 12 1.2157 0.0000
-5 15 13 1.1032 0.0000
-5 15 14 -0.2105 0.0000
-5 15 15 -0.5297 0.0000
-5 16 1 -0.0162 0.0000
-5 16 2 1.0714 0.0000
-5 16 3 -1.4111 0.0000
-5 16 4 -0.1206 0.0000
-5 16 5 2.0139 0.0000
-5 16 6 1.8287 0.0000
-5 16 7 -0.9016 0.0000
-5 16 8 -1.6454 0.0000
-5 16 9 -0.9823 0.0000
-5 16 10 0.6271 0.0000
-5 16 11 0.8120 0.0000
-5 16 12 1.1818 0.0000
-5 16 13 -0.3862 0.0000
-5 17 1 -3.2554 0.0000
-5 17 2 -0.6095 0.0000
-5 17 3 2.0850 0.0000
-5 17 4 0.3881 0.0000
-5 17 5 1.8092 0.0000
-5 17 6 -1.0891 0.0000
-5 17 7 -3.5059 0.0000
-5 17 8 -0.1659 0.0000
-5 17 9 2.0492 0.0000
-5 17 10 -0.4523 0.0000
-5 17 11 -0.1619 0.0000
-5 17 12 0.7014 0.0000
-5 17 13 -0.6863 0.0000
-5 18 1 0.4883 0.0000
-5 18 2 0.0515 0.0000
-5 18 3 0.0924 0.0000
-5 18 4 1.0276 0.0000
-5 18 5 -0.1322 0.0000
-5 18 6 -1.2296 0.0000
-5 18 7 -2.2563 0.0000
-5 18 8 -0.6175 0.0000
-5 18 9 1.6296 0.0000
-5 18 10 0.5819 0.0000
-5 18 11 0.2093 0.0000
-5 18 12 0.1123 0.0000
-5 19 1 -1.1004 0.0000
-5 19 2 -0.5725 0.0000
-5 19 3 0.0008 0.0000
-5 19 4 1.0750 0.0000
-5 19 5 0.1769 0.0000
-5 19 6 -2.6612 0.0000
-5 19 7 -1.8683 0.0000
-5 19 8 1.7911 0.0000
-5 19 9 1.4499 0.0000
-5 19 10 0.8536 0.0000
-5 20 1 -1.6945 0.0000
-5 20 2 0.7433 0.0000
-5 20 3 2.0167 0.0000
-5 20 4 0.4776 0.0000
-5 20 5 -3.6512 0.0000
-5 20 6 -2.2596 0.0000
-5 20 7 2.1472 0.0000
-5 20 8 2.5046 0.0000
-5 20 9 0.6853 0.0000
-5 21 1 -1.6796 0.0000
-5 21 2 -1.8062 0.0000
-5 21 3 1.3684 0.0000
-5 21 4 -0.1901 0.0000
-5 21 5 0.1017 0.0000
-5 21 6 -0.9914 0.0000
-4 0 2 -8.1753 0.0000
-4 0 4 5.1703 0.0000
-4 0 6 2.1723 0.0000
-4 0 8 -2.1368 0.0000
-4 0 10 3.9098 0.0000
-4 0 12 -1.2916 0.0000
-4 0 14 0.6301 0.0000
-4 0 16 -0.5490 0.0000
-4 0 18 -1.2217 0.0000
-4 0 20 3.2285 0.0000
-4 1 1 2.8813 0.0000
-4 1 3 -11.7754 0.0000
-4 1 4 6.6620 0.0000
-4 1 5 14.1271 0.0000
-4 1 6 -5.2265 0.0000
-4 1 7 -6.8511 0.0000
-4 1 8 3.2841 0.0000
-4 1 9 1.0074 0.0000
-4 1 10 -1.6152 0.0000
-4 1 11 3.9713 0.0000
-4 1 12 -0.5158 0.0000
-4 1 13 -3.7328 0.0000
-4 1 14 0.3419 0.0000
-4 1 15 2.7574 0.0000
-4 1 16 -0.8434 0.0000
-4 1 17 -2.9060 0.0000
-4 1 18 0.9270 0.0000
-4 1 19 2.2226 0.0000
-4 1 20 -0.0362 0.0000
-4 2 1 -10.0471 0.0000
-4 2 2 17.2740 0.0000
-4 2 3 11.7402 0.0000
-4 2 4 -8.6391 0.0000
-4 2 5 -2.5115 0.0000
-4 2 7 -4.7298 0.0000
-4 2 8 -1.4469 0.0000
-4 2 9 6.4669 0.0000
-4 2 10 -2.0471 0.0000
-4 2 11 -5.2121 0.0000
-4 2 12 3.4952 0.0000
-4 2 13 2.7365 0.0000
-4 2 14 -2.0696 0.0000
-4 2 15 -1.0836 0.0000
-4 2 16 0.0856 0.0000
-4 2 17 -1.0750 0.0000
-4 2 18 0.5768 0.0000
-4 2 19 2.4834 0.0000
-4 2 20 -0.2586 0.0000
-4 3 1 15.7756 0.0000
-4 3 2 2.1906 0.0000
-4 3 3 -5.4946 0.0000
-4 3 4 -2.0768 0.0000
-4 3 5 1.0609 0.0000
-4 3 6 -0.1593 0.0000
-4 3 7 1.6954 0.0000
-4 3 8 -2.4826 0.0000
-4 3 9 -3.1544 0.0000
-4 3 10 3.4684 0.0000
-4 3 11 3.2685 0.0000
-4 3 12 -0.5746 0.0000
-4 3 13 -2.1037 0.0000
-4 3 14 -0.3725 0.0000
-4 3 15 0.7109 0.0000
-4 3 16 0.3330 0.0000
-4 3 17 0.3060 0.0000
-4 3 18 -0.0560 0.0000
-4 3 19 0.2765 0.0000
-4 3 20 0.3326 0.0000
-4 4 1 6.2985 0.0000
-4 4 2 10.9041 0.0000
-4 4 3 -7.9114 0.0000
-4 4 4 -8.3652 0.0000
-4 4 5 6.0516 0.0000
-4 4 6 1.8948 0.0000
-4 4 7 -7.3711 0.0000
-4 4 8 5.0600 0.0000
-4 4 9 5.3375 0.0000
-4 4 10 -4.3491 0.0000
-4 4 11 -0.7006 0.0000
-4 4 12 3.5922 0.0000
-4 4 13 -0.0440 0.0000
-4 4 14 -2.2813 0.0000
-4 4 15 1.2836 0.0000
-4 4 16 0.2121 0.0000
-4 4 17 -0.5873 0.0000
-4 4 18 2.3804 0.0000
-4 4 19 -0.8582 0.0000
-4 4 20 -1.5390 0.0000
-4 5 1 -0.2771 0.0000
-4 5 2 -2.2056 0.0000
-4 5 3 -6.6357 0.0000
-4 5 4 -4.4598 0.0000
-4 5 5 5.4025 0.0000
-4 5 6 7.8451 0.0000
-4 5 7 -1.0218 0.0000
-4 5 8 -6.1062 0.0000
-4 5 9 2.3589 0.0000
-4 5 10 2.7022 0.0000
-4 5 11 0.1391 0.0000
-4 5 12 0.4450 0.0000
-4 5 13 -1.3922 0.0000
-4 5 14 -1.1812 0.0000
-4 5 15 1.3608 0.0000
-4 5 16 2.9663 0.0000
-4 5 17 -0.8916 0.0000
-4 5 18 -3.1248 0.0000
-4 5 19 1.5408 0.0000
-4 5 20 0.1762 0.0000
-4 6 1 -1.6461 0.0000
-4 6 2 -0.3775 0.0000
-4 6 3 -2.8878 0.0000
-4 6 4 2.9093 0.0000
-4 6 5 7.4593 0.0000
-4 6 6 -2.7045 0.0000
-4 6 7 -4.9560 0.0000
-4 6 8 3.3783 0.0000
-4 6 9 1.9657 0.0000
-4 6 10 -1.5353 0.0000
-4 6 11 -1.4801 0.0000
-4 6 12 0.6866 0.0000
-4 6 13 0.2592 0.0000
-4 6 14 0.2121 0.0000
-4 6 15 1.2903 0.0000
-4 6 16 -0.4574 0.0000
-4 6 17 -0.3574 0.0000
-4 6 18 -0.5983 0.0000
-4 6 19 -2.2669 0.0000
-4 6 20 1.8693 0.0000
-4 7 1 -4.1283 0.0000
-4 7 2 3.5238 0.0000
-4 7 3 2.2637 0.0000
-4 7 4 -3.5461 0.0000
-4 7 5 2.6851 0.0000
-4 7 6 4.7190 0.0000
-4 7 7 -4.3333 0.0000
-4 7 8 -3.9707 0.0000
-4 7 9 1.7307 0.0000
-4 7 10 0.1284 0.0000
-4 7 11 0.1248 0.0000
-4 7 12 1.7783 0.0000
-4 7 13 -0.1776 0.0000
-4 7 14 -1.6788 0.0000
-4 7 15 0.8612 0.0000
-4 7 16 1.5001 0.0000
-4 7 17 -2.1276 0.0000
-4 7 18 -1.5897 0.0000
-4 7 19 2.0014 0.0000
-4 8 1 -1.4642 0.0000
-4 8 2 -1.4693 0.0000
-4 8 3 1.1098 0.0000
-4 8 4 5.2532 0.0000
-4 8 5 -0.1694 0.0000
-4 8 6 -4.5768 0.0000
-4 8 7 -2.8128 0.0000
-4 8 8 0.8394 0.0000
-4 8 9 3.4830 0.0000
-4 8 10 0.5385 0.0000
-4 8 11 -2.1078 0.0000
-4 8 12 -0.1129 0.0000
-4 8 13 1.5933 0.0000
-4 8 14 0.5801 0.0000
-4 8 15 0.3535 0.0000
-4 8 16 -0.8663 0.0000
-4 8 17 -1.4030 0.0000
-4 8 18 0.5797 0.0000
-4 8 19 1.0034 0.0000
-4 9 1 -4.9608 0.0000
-4 9 2 8.2276 0.0000
-4 9 3 1.7551 0.0000
-4 9 4 -6.9860 0.0000
-4 9 5 1.0606 0.0000
-4 9 6 3.4091 0.0000
-4 9 7 -2.0217 0.0000
-4 9 8 -0.7465 0.0000
-4 9 9 1.9405 0.0000
-4 9 10 0.5431 0.0000
-4 9 11 -0.5145 0.0000
-4 9 12 1.9016 0.0000
-4 9 13 0.1475 0.0000
-4 9 14 -1.3955 0.0000
-4 9 15 0.0342 0.0000
-4 9 16 1.9011 0.0000
-4 9 17 -0.1946 0.0000
-4 9 18 -0.5173 0.0000
-4 9 19 1.9235 0.0000
-4 10 1 -4.3498 0.0000
-4 10 2 -2.5953 0.0000
-4 10 3 6.0143 0.0000
-4 10 4 1.3652 0.0000
-4 10 5 -1.7740 0.0000
-4 10 6 0.6990 0.0000
-4 10 7 -1.7168 0.0000
-4 10 8 -0.6854 0.0000
-4 10 9 4.5201 0.0000
-4 10 10 0.6731 0.0000
-4 10 11 -2.8536 0.0000
-4 10 12 -0.4599 0.0000
-4 10 13 2.0544 0.0000
-4 10 14 0.4612 0.0000
-4 10 15 0.3553 0.0000
-4 10 16 -0.8370 0.0000
-4 10 17 1.2894 0.0000
-4 10 18 1.1012 0.0000
-4 11 1 -0.9092 0.0000
-4 11 2 7.7949 0.0000
-4 11 3 1.4878 0.0000
-4 11 4 -3.9446 0.0000
-4 11 5 -1.3675 0.0000
-4 11 6 1.2309 0.0000
-4 11 7 0.7077 0.0000
-4 11 8 1.0939 0.0000
-4 11 9 -0.0588 0.0000
-4 11 10 -2.3637 0.0000
-4 11 11 -1.0016 0.0000
-4 11 12 3.2709 0.0000
-4 11 13 0.6025 0.0000
-4 11 14 -2.2910 0.0000
-4 11 15 0.2740 0.0000
-4 11 16 3.0014 0.0000
-4 11 17 -1.3854 0.0000
-4 11 18 -0.7883 0.0000
-4 12 1 -3.6357 0.0000
-4 12 2 2.5602 0.0000
-4 12 3 2.6468 0.0000
-4 12 4 -2.9139 0.0000
-4 12 5 -0.7724 0.0000
-4 12 6 1.4312 0.0000
-4 12 7 -2.6011 0.0000
-4 12 8 -0.7666 0.0000
-4 12 9 3.0301 0.0000
-4 12 10 -0.5982 0.0000
-4 12 11 -2.4585 0.0000
-4 12 12 0.4124 0.0000
-4 12 13 1.5822 0.0000
-4 12 14 -0.0650 0.0000
-4 12 15 -0.3328 0.0000
-4 12 16 0.1444 0.0000
-4 12 17 1.0863 0.0000
-4 13 1 0.1805 0.0000
-4 13 2 4.1302 0.0000
-4 13 3 0.6078 0.0000
-4 13 5 -2.5288 0.0000
-4 13 6 2.4890 0.0000
-4 13 7 2.4946 0.0000
-4 13 8 -0.8902 0.0000
-4 13 9 -1.8487 0.0000
-4 13 10 -0.5897 0.0000
-4 13 11 0.7860 0.0000
-4 13 12 0.9326 0.0000
-4 13 13 -0.3605 0.0000
-4 13 14 -0.3296 0.0000
-4 13 15 1.3070 0.0000
-4 13 16 0.2229 0.0000
-4 14 1 0.1555 0.0000
-4 14 2 -0.3382 0.0000
-4 14 3 -1.2101 0.0000
-4 14 4 -2.4935 0.0000
-4 14 5 1.9978 0.0000
-4 14 6 2.5197 0.0000
-4 14 7 -0.8859 0.0000
-4 14 8 -1.2864 0.0000
-4 14 9 0.3288 0.0000
-4 14 10 0.3387 0.0000
-4 14 11 0.1354 0.0000
-4 14 12 0.5239 0.0000
-4 14 13 -0.1333 0.0000
-4 14 14 0.1650 0.0000
-4 14 15 0.5843 0.0000
-4 14 16 1.0242 0.0000
-4 15 1 -0.4214 0.0000
-4 15 2 -0.6444 0.0000
-4 15 3 0.2286 0.0000
-4 15 4 0.3290 0.0000
-4 15 5 -0.6188 0.0000
-4 15 6 2.0078 0.0000
-4 15 7 0.0155 0.0000
-4 15 8 -0.5635 0.0000
-4 15 9 0.8496 0.0000
-4 15 10 0.0132 0.0000
-4 15 11 -1.5442 0.0000
-4 15 12 0.3933 0.0000
-4 15 13 2.4541 0.0000
-4 15 14 -0.0152 0.0000
-4 15 15 -0.2467 0.0000
-4 16 1 -1.9660 0.0000
-4 16 2 0.2532 0.0000
-4 16 3 -1.1381 0.0000
-4 16 4 -0.5003 0.0000
-4 16 5 2.5805 0.0000
-4 16 6 1.9027 0.0000
-4 16 7 -0.1843 0.0000
-4 16 8 -3.5161 0.0000
-4 16 9 -0.2010 0.0000
-4 16 10 2.2161 0.0000
-4 16 11 0.5381 0.0000
-4 16 12 -0.6771 0.0000
-4 16 13 -0.3452 0.0000
-4 16 14 1.0435 0.0000
-4 16 15 0.0112 0.0000
-4 17 1 -3.2795 0.0000
-4 17 2 -1.7561 0.0000
-4 17 3 3.7247 0.0000
-4 17 4 0.6614 0.0000
-4 17 5 -1.1209 0.0000
-4 17 6 0.0339 0.0000
-4 17 7 -1.3688 0.0000
-4 17 8 1.1381 0.0000
-4 17 9 0.5701 0.0000
-4 17 10 -1.3149 0.0000
-4 17 11 -1.3772 0.0000
-4 17 12 1.2391 0.0000
-4 17 14 -1.1196 0.0000
-4 18 1 0.3451 0.0000
-4 18 2 0.2060 0.0000
-4 18 3 -0.5747 0.0000
-4 18 4 1.2892 0.0000
-4 18 5 1.1533 0.0000
-4 18 6 -0.7085 0.0000
-4 18 7 -1.2843 0.0000
-4 18 8 -2.5936 0.0000
-4 18 9 1.4909 0.0000
-4 18 10 1.3590 0.0000
-4 18 11 -0.3896 0.0000
-4 18 12 -1.0142 0.0000
-4 19 1 -0.5658 0.0000
-4 19 2 -0.8681 0.0000
-4 19 3 1.5918 0.0000
-4 19 4 0.8131 0.0000
-4 19 5 -0.8436 0.0000
-4 19 6 -1.6860 0.0000
-4 19 7 -1.2721 0.0000
-4 19 8 2.2239 0.0000
-4 19 9 -0.4559 0.0000
-4 19 10 -0.4784 0.0000
-4 19 11 -0.2218 0.0000
-4 20 1 0.3968 0.0000
-4 20 2 2.1039 0.0000
-4 20 3 0.5210 0.0000
-4 20 4 0.0281 0.0000
-4 20 5 -3.8370 0.0000
-4 20 6 -0.8749 0.0000
-4 20 7 2.7700 0.0000
-4 20 8 -0.0003 0.0000
-4 20 9 0.2255 0.0000
-4 20 10 -0.5720 0.0000
-4 21 1 -1.6214 0.0000
-4 21 2 -2.3052 0.0000
-4 21 3 1.3901 0.0000
-4 21 4 -0.5065 0.0000
-4 21 5 -0.0022 0.0000
-4 21 6 -1.2908 0.0000
-4 21 7 0.9730 0.0000
-4 21 8 0.7858 0.0000
-4 22 1 2.5263 0.0000
-4 22 2 0.6302 0.0000
-4 22 3 -0.8808 0.0000
-4 22 4 -2.1283 0.0000
-4 22 5 -2.1703 0.0000
-3 0 2 3.6571 0.0000
-3 0 4 -5.9819 0.0000
-3 0 6 6.0136 0.0000
-3 0 10 0.6624 0.0000
-3 0 12 -1.7556 0.0000
-3 0 14 0.1102 0.0000
-3 0 16 1.2452 0.0000
-3 0 18 -2.0637 0.0000
-3 0 20 3.4843 0.0000
-3 1 1 -7.4081 0.0000
-3 1 2 -1.7911 0.0000
-3 1 3 1.7218 0.0000
-3 1 4 5.3468 0.0000
-3 1 5 3.6782 0.0000
-3 1 7 -3.7894 0.0000
-3 1 8 1.5721 0.0000
-3 1 9 1.4944 0.0000
-3 1 10 -0.7308 0.0000
-3 1 11 -2.1334 0.0000
-3 1 12 -0.9026 0.0000
-3 1 13 -1.1768 0.0000
-3 1 14 0.9302 0.0000
-3 1 15 1.7083 0.0000
-3 1 16 -0.6378 0.0000
-3 1 17 -1.0122 0.0000
-3 1 18 0.3610 0.0000
-3 1 19 0.3331 0.0000
-3 1 20 0.5165 0.0000
-3 1 21 1.1115 0.0000
-3 2 1 -9.7075 0.0000
-3 2 2 30.6257 0.0000
-3 2 3 7.9842 0.0000
-3 2 4 -15.0448 0.0000
-3 2 5 -3.2940 0.0000
-3 2 6 7.6587 0.0000
-3 2 7 0.1534 0.0000
-3 2 8 -3.0568 0.0000
-3 2 9 1.3762 0.0000
-3 2 10 -4.1915 0.0000
-3 2 11 -2.9611 0.0000
-3 2 12 1.8237 0.0000
-3 2 13 3.1448 0.0000
-3 2 14 -1.3316 0.0000
-3 2 15 -1.8305 0.0000
-3 2 16 0.7747 0.0000
-3 2 17 -0.6856 0.0000
-3 2 18 -0.6712 0.0000
-3 2 19 2.1705 0.0000
-3 2 20 0.5357 0.0000
-3 2 21 -1.1544 0.0000
-3 3 1 4.8033 0.0000
-3 3 2 4.7921 0.0000
-3 3 3 8.6394 0.0000
-3 3 4 -10.4462 0.0000
-3 3 5 -3.7383 0.0000
-3 3 6 7.3840 0.0000
-3 3 7 -0.2478 0.0000
-3 3 8 -7.4100 0.0000
-3 3 9 -0.8125 0.0000
-3 3 10 3.7231 0.0000
-3 3 11 -2.1067 0.0000
-3 3 12 0.3567 0.0000
-3 3 13 0.4021 0.0000
-3 3 14 -0.5733 0.0000
-3 3 15 -0.2553 0.0000
-3 3 16 0.0067 0.0000
-3 3 17 0.4905 0.0000
-3 3 18 -0.9778 0.0000
-3 3 19 -0.2183 0.0000
-3 3 20 1.5279 0.0000
-3 4 1 18.3660 0.0000
-3 4 2 15.2142 0.0000
-3 4 3 -11.5158 0.0000
-3 4 4 -10.5840 0.0000
-3 4 5 -1.1084 0.0000
-3 4 6 5.4254 0.0000
-3 4 7 0.9879 0.0000
-3 4 8 -1.1103 0.0000
-3 4 9 -1.2300 0.0000
-3 4 10 -1.0874 0.0000
-3 4 11 0.6872 0.0000
-3 4 12 1.3264 0.0000
-3 4 13 2.4993 0.0000
-3 4 14 -2.4804 0.0000
-3 4 15 -2.1915 0.0000
-3 4 16 1.2203 0.0000
-3 4 17 0.1343 0.0000
-3 4 18 1.0051 0.0000
-3 4 19 0.1489 0.0000
-3 4 20 -0.0024 0.0000
-3 5 1 -4.8041 0.0000
-3 5 2 -0.3832 0.0000
-3 5 3 -6.4410 0.0000
-3 5 4 -12.1928 0.0000
-3 5 5 8.9610 0.0000
-3 5 6 11.3017 0.0000
-3 5 7 -5.5156 0.0000
-3 5 8 -6.7225 0.0000
-3 5 9 4.5124 0.0000
-3 5 10 2.4955 0.0000
-3 5 11 -0.8603 0.0000
-3 5 12 0.6743 0.0000
-3 5 13 -1.6986 0.0000
-3 5 14 -0.9028 0.0000
-3 5 15 0.9474 0.0000
-3 5 16 1.1517 0.0000
-3 5 17 -0.6381 0.0000
-3 5 18 -1.5036 0.0000
-3 5 19 1.6952 0.0000
-3 5 20 0.8162 0.0000
-3 6 1 -3.5213 0.0000
-3 6 2 -4.8378 0.0000
-3 6 3 0.1575 0.0000
-3 6 4 -0.2526 0.0000
-3 6 5 -0.2237 0.0000
-3 6 6 6.2270 0.0000
-3 6 7 1.7813 0.0000
-3 6 8 -4.2913 0.0000
-3 6 9 0.3158 0.0000
-3 6 10 2.2285 0.0000
-3 6 11 -3.4694 0.0000
-3 6 12 -0.0197 0.0000
-3 6 13 2.9416 0.0000
-3 6 14 -1.7948 0.0000
-3 6 15 -1.3236 0.0000
-3 6 16 0.7555 0.0000
-3 6 17 0.1069 0.0000
-3 6 18 -0.4282 0.0000
-3 6 19 -0.1340 0.0000
-3 6 20 0.6175 0.0000
-3 7 1 -6.9448 0.0000
-3 7 2 -1.6285 0.0000
-3 7 3 0.1063 0.0000
-3 7 4 -1.7550 0.0000
-3 7 5 7.4397 0.0000
-3 7 6 5.4260 0.0000
-3 7 7 -4.9714 0.0000
-3 7 8 -5.5331 0.0000
-3 7 9 -0.2886 0.0000
-3 7 10 1.8198 0.0000
-3 7 11 1.5309 0.0000
-3 7 12 -1.1192 0.0000
-3 7 13 -0.9310 0.0000
-3 7 14 -0.3007 0.0000
-3 7 15 -0.5298 0.0000
-3 7 16 -0.4128 0.0000
-3 7 17 -0.3253 0.0000
-3 7 18 -0.1670 0.0000
-3 7 19 0.0022 0.0000
-3 7 20 0.0101 0.0000
-3 8 1 -5.5715 0.0000
-3 8 2 -0.7004 0.0000
-3 8 3 4.4133 0.0000
-3 8 4 3.1976 0.0000
-3 8 5 -2.1792 0.0000
-3 8 6 0.4118 0.0000
-3 8 7 -2.8186 0.0000
-3 8 8 -3.5793 0.0000
-3 8 9 3.3976 0.0000
-3 8 10 1.0034 0.0000
-3 8 11 -4.1191 0.0000
-3 8 12 1.1757 0.0000
-3 8 13 2.4022 0.0000
-3 8 14 -1.3973 0.0000
-3 8 15 -2.0507 0.0000
-3 8 16 -0.5438 0.0000
-3 8 17 -0.4606 0.0000
-3 8 18 0.9797 0.0000
-3 8 19 0.3301 0.0000
-3 9 1 -7.0322 0.0000
-3 9 2 2.7841 0.0000
-3 9 3 1.7342 0.0000
-3 9 4 -4.8857 0.0000
-3 9 5 2.2914 0.0000
-3 9 6 3.8155 0.0000
-3 9 7 -2.9344 0.0000
-3 9 8 -5.4250 0.0000
-3 9 9 0.4786 0.0000
-3 9 10 4.4865 0.0000
-3 9 11 1.1935 0.0000
-3 9 12 -2.0457 0.0000
-3 9 13 -0.4752 0.0000
-3 9 14 -0.8067 0.0000
-3 9 15 -1.3405 0.0000
-3 9 16 0.7594 0.0000
-3 9 17 1.4616 0.0000
-3 9 18 -0.6308 0.0000
-3 9 19 0.2896 0.0000
-3 10 1 -7.8804 0.0000
-3 10 2 -6.2608 0.0000
-3 10 3 8.5612 0.0000
-3 10 4 4.0586 0.0000
-3 10 5 -4.6425 0.0000
-3 10 6 -0.9282 0.0000
-3 10 7 -0.8205 0.0000
-3 10 8 -0.7387 0.0000
-3 10 9 3.6508 0.0000
-3 10 10 1.3358 0.0000
-3 10 11 -3.3799 0.0000
-3 10 12 0.0972 0.0000
-3 10 13 1.6225 0.0000
-3 10 14 -0.5052 0.0000
-3 10 15 -0.7821 0.0000
-3 10 16 -0.0551 0.0000
-3 10 17 1.7907 0.0000
-3 10 18 0.3784 0.0000
-3 10 19 -1.8071 0.0000
-3 11 1 -2.5373 0.0000
-3 11 2 4.3769 0.0000
-3 11 3 1.2639 0.0000
-3 11 4 -1.7521 0.0000
-3 11 5 0.4598 0.0000
-3 11 6 1.6265 0.0000
-3 11 7 -0.8820 0.0000
-3 11 8 -2.1274 0.0000
-3 11 9 0.4366 0.0000
-3 11 10 1.7233 0.0000
-3 11 11 0.4670 0.0000
-3 11 12 -1.2171 0.0000
-3 11 13 0.9418 0.0000
-3 11 14 -0.5490 0.0000
-3 11 15 -0.6481 0.0000
-3 11 16 2.4074 0.0000
-3 11 17 -0.2735 0.0000
-3 11 18 -1.0764 0.0000
-3 12 1 -8.3106 0.0000
-3 12 2 0.5278 0.0000
-3 12 3 8.9197 0.0000
-3 12 4 0.7646 0.0000
-3 12 5 -5.1947 0.0000
-3 12 6 -1.1543 0.0000
-3 12 7 -0.7051 0.0000
-3 12 8 -0.1442 0.0000
-3 12 9 2.9250 0.0000
-3 12 10 0.6014 0.0000
-3 12 11 -3.2768 0.0000
-3 12 12 0.7140 0.0000
-3 12 13 1.2816 0.0000
-3 12 14 1.0816 0.0000
-3 12 15 -0.6923 0.0000
-3 12 16 -0.6922 0.0000
-3 12 17 0.1363 0.0000
-3 12 18 -2.5553 0.0000
-3 13 1 2.5326 0.0000
-3 13 2 4.6454 0.0000
-3 13 3 0.7883 0.0000
-3 13 4 -3.6844 0.0000
-3 13 5 -3.4411 0.0000
-3 13 6 0.9559 0.0000
-3 13 7 2.5920 0.0000
-3 13 8 -1.2293 0.0000
-3 13 9 -1.6032 0.0000
-3 13 10 1.0637 0.0000
-3 13 11 1.0061 0.0000
-3 13 12 -0.8382 0.0000
-3 13 13 1.7341 0.0000
-3 13 14 -0.8673 0.0000
-3 13 15 -0.3351 0.0000
-3 13 16 -0.9052 0.0000
-3 13 17 -1.6205 0.0000
-3 14 1 -2.0771 0.0000
-3 14 2 0.1569 0.0000
-3 14 3 2.8864 0.0000
-3 14 4 -2.3952 0.0000
-3 14 5 -2.1578 0.0000
-3 14 6 0.8624 0.0000
-3 14 7 0.5972 0.0000
-3 14 8 -0.6027 0.0000
-3 14 9 0.3770 0.0000
-3 14 10 1.0263 0.0000
-3 14 11 -0.5597 0.0000
-3 14 12 0.1322 0.0000
-3 14 13 0.2696 0.0000
-3 14 14 0.9397 0.0000
-3 14 15 -2.0524 0.0000
-3 14 16 -0.4508 0.0000
-3 15 1 5.0138 0.0000
-3 15 2 -0.7029 0.0000
-3 15 3 -1.5046 0.0000
-3 15 4 -0.1180 0.0000
-3 15 5 -2.5267 0.0000
-3 15 6 1.4368 0.0000
-3 15 7 2.5020 0.0000
-3 15 8 -0.8337 0.0000
-3 15 9 -1.3000 0.0000
-3 15 10 0.4241 0.0000
-3 15 11 0.4859 0.0000
-3 15 12 0.4130 0.0000
-3 15 13 1.4539 0.0000
-3 15 14 -1.0535 0.0000
-3 15 15 -1.1954 0.0000
-3 15 16 -1.2793 0.0000
-3 16 1 -1.0292 0.0000
-3 16 2 -0.1136 0.0000
-3 16 3 -1.1281 0.0000
-3 16 4 -0.7802 0.0000
-3 16 5 1.6969 0.0000
-3 16 6 1.3395 0.0000
-3 16 7 -0.6285 0.0000
-3 16 8 -2.9066 0.0000
-3 16 9 0.3967 0.0000
-3 16 10 3.3110 0.0000
-3 16 11 0.2841 0.0000
-3 16 12 -1.2665 0.0000
-3 16 13 -0.1440 0.0000
-3 16 15 -0.6975 0.0000
-3 17 1 -0.4547 0.0000
-3 17 2 -2.1555 0.0000
-3 17 3 2.4706 0.0000
-3 17 4 0.3466 0.0000
-3 17 5 -3.3981 0.0000
-3 17 6 0.5611 0.0000
-3 17 7 2.1104 0.0000
-3 17 8 0.3595 0.0000
-3 17 9 -0.6059 0.0000
-3 17 10 -0.8075 0.0000
-3 17 11 -0.0860 0.0000
-3 17 12 0.8355 0.0000
-3 17 13 0.9598 0.0000
-3 17 14 -0.5598 0.0000
-3 18 1 1.2403 0.0000
-3 18 2 -1.4772 0.0000
-3 18 3 -1.3734 0.0000
-3 18 4 1.2997 0.0000
-3 18 5 2.6385 0.0000
-3 18 6 -0.7226 0.0000
-3 18 7 -1.9128 0.0000
-3 18 8 -1.6725 0.0000
-3 18 9 1.4651 0.0000
-3 18 10 2.6633 0.0000
-3 18 11 -1.3425 0.0000
-3 18 12 -1.9227 0.0000
-3 18 13 0.2418 0.0000
-3 19 1 0.3493 0.0000
-3 19 2 -0.4710 0.0000
-3 19 3 1.2441 0.0000
-3 19 4 0.4868 0.0000
-3 19 5 -1.9706 0.0000
-3 19 6 0.0153 0.0000
-3 19 7 0.9770 0.0000
-3 19 8 0.8508 0.0000
-3 19 9 -2.0130 0.0000
-3 19 10 -1.9542 0.0000
-3 19 11 1.3036 0.0000
-3 19 12 0.5519 0.0000
-3 20 1 2.5524 0.0000
-3 20 2 0.9196 0.0000
-3 20 3 -0.8585 0.0000
-3 20 4 0.3831 0.0000
-3 20 5 -1.1424 0.0000
-3 20 6 -0.9294 0.0000
-3 20 7 0.5663 0.0000
-3 20 8 -1.0569 0.0000
-3 20 9 -0.2508 0.0000
-3 20 10 0.5737 0.0000
-3 21 1 -1.4935 0.0000
-3 21 2 -0.6832 0.0000
-3 21 3 0.4508 0.0000
-3 21 4 -0.5410 0.0000
-3 21 5 -0.9802 0.0000
-3 21 6 -0.6905 0.0000
-3 21 7 0.8614 0.0000
-3 21 8 -0.8249 0.0000
-3 21 9 -1.3696 0.0000
-3 22 1 3.7988 0.0000
-3 22 2 -1.3208 0.0000
-3 22 3 -1.9341 0.0000
-3 22 4 -2.2534 0.0000
-3 22 5 0.4553 0.0000
-3 22 7 -0.2328 0.0000
-3 23 1 -0.0335 0.0000
-3 23 2 -0.5452 0.0000
-3 23 3 -2.7284 0.0000
-2 0 2 -24.9188 0.0000
-2 0 4 8.9370 0.0000
-2 0 6 -6.7834 0.0000
-2 0 10 3.9628 0.0000
-2 0 12 -2.9556 0.0000
-2 0 14 1.9845 0.0000
-2 0 16 0.3976 0.0000
-2 0 18 -0.0939 0.0000
-2 0 20 1.9616 0.0000
-2 1 1 -24.2738 0.0000
-2 1 2 -5.0085 0.0000
-2 1 3 11.7019 0.0000
-2 1 4 9.5423 0.0000
-2 1 5 -4.5276 0.0000
-2 1 6 -5.5283 0.0000
-2 1 7 -7.5276 0.0000
-2 1 8 6.1511 0.0000
-2 1 9 9.4563 0.0000
-2 1 10 -3.4566 0.0000
-2 1 11 -7.6079 0.0000
-2 1 12 -0.3494 0.0000
-2 1 13 4.1693 0.0000
-2 1 14 1.1670 0.0000
-2 1 15 -0.0611 0.0000
-2 1 16 -0.2454 0.0000
-2 1 17 0.1213 0.0000
-2 1 18 1.1848 0.0000
-2 1 19 0.5842 0.0000
-2 1 20 -0.8287 0.0000
-2 1 21 0.0450 0.0000
-2 2 1 -32.1264 0.0000
-2 2 2 18.1792 0.0000
-2 2 3 25.4735 0.0000
-2 2 4 -7.7472 0.0000
-2 2 5 -16.7763 0.0000
-2 2 6 0.9879 0.0000
-2 2 7 12.0182 0.0000
-2 2 8 -3.3951 0.0000
-2 2 9 -4.3143 0.0000
-2 2 10 -0.4170 0.0000
-2 2 11 -1.7384 0.0000
-2 2 12 -0.3914 0.0000
-2 2 13 3.0077 0.0000
-2 2 14 2.0317 0.0000
-2 2 15 -2.0163 0.0000
-2 2 16 0.1415 0.0000
-2 2 17 1.6544 0.0000
-2 2 18 -0.3140 0.0000
-2 2 19 0.3292 0.0000
-2 2 20 -0.2194 0.0000
-2 2 21 -1.1416 0.0000
-2 3 1 -6.6339 0.0000
-2 3 2 6.9312 0.0000
-2 3 3 23.0298 0.0000
-2 3 4 -5.4242 0.0000
-2 3 5 -14.9521 0.0000
-2 3 6 0.6258 0.0000
-2 3 7 1.0101 0.0000
-2 3 9 0.0003 0.0000
-2 3 10 -3.1427 0.0000
-2 3 11 -3.9949 0.0000
-2 3 12 2.8252 0.0000
-2 3 13 4.3602 0.0000
-2 3 14 -0.3478 0.0000
-2 3 15 -0.7746 0.0000
-2 3 16 0.0176 0.0000
-2 3 17 1.1190 0.0000
-2 3 18 -0.1340 0.0000
-2 3 19 -1.6163 0.0000
-2 3 20 -0.0312 0.0000
-2 3 21 1.2091 0.0000
-2 4 1 12.7182 0.0000
-2 4 2 23.9127 0.0000
-2 4 3 2.2358 0.0000
-2 4 4 -19.7440 0.0000
-2 4 5 -15.8419 0.0000
-2 4 6 11.0504 0.0000
-2 4 7 12.4649 0.0000
-2 4 8 -9.7111 0.0000
-2 4 9 -6.8570 0.0000
-2 4 10 3.9585 0.0000
-2 4 11 1.5709 0.0000
-2 4 12 0.4596 0.0000
-2 4 13 4.4548 0.0000
-2 4 15 -3.7057 0.0000
-2 4 16 2.6009 0.0000
-2 4 17 1.8277 0.0000
-2 4 18 -1.0345 0.0000
-2 4 19 -0.6585 0.0000
-2 4 20 0.4042 0.0000
-2 5 1 -2.1310 0.0000
-2 5 2 -0.3682 0.0000
-2 5 3 -0.7677 0.0000
-2 5 4 -9.4322 0.0000
-2 5 5 -2.9966 0.0000
-2 5 6 4.8992 0.0000
-2 5 7 1.0531 0.0000
-2 5 8 -0.6919 0.0000
-2 5 9 -0.7659 0.0000
-2 5 10 0.6001 0.0000
-2 5 11 2.2265 0.0000
-2 5 12 1.0168 0.0000
-2 5 13 -0.9225 0.0000
-2 5 14 1.1393 0.0000
-2 5 15 0.8545 0.0000
-2 5 16 0.1548 0.0000
-2 5 17 -0.1539 0.0000
-2 5 18 -0.3601 0.0000
-2 5 19 0.4829 0.0000
-2 5 20 1.0040 0.0000
-2 6 1 -0.5336 0.0000
-2 6 2 2.3016 0.0000
-2 6 3 -0.7852 0.0000
-2 6 4 -13.8821 0.0000
-2 6 5 -4.1262 0.0000
-2 6 6 14.9923 0.0000
-2 6 7 6.9781 0.0000
-2 6 8 -9.7926 0.0000
-2 6 9 -1.5600 0.0000
-2 6 10 4.2658 0.0000
-2 6 11 -1.4936 0.0000
-2 6 12 1.2035 0.0000
-2 6 13 3.0065 0.0000
-2 6 14 -2.6668 0.0000
-2 6 15 -0.1030 0.0000
-2 6 16 2.0636 0.0000
-2 6 17 -0.0132 0.0000
-2 6 18 -1.0988 0.0000
-2 6 19 1.2923 0.0000
-2 6 20 0.0441 0.0000
-2 7 1 -8.8151 0.0000
-2 7 2 -10.3218 0.0000
-2 7 3 4.0451 0.0000
-2 7 4 1.3254 0.0000
-2 7 5 -0.4387 0.0000
-2 7 6 6.1978 0.0000
-2 7 7 2.3483 0.0000
-2 7 8 -6.1551 0.0000
-2 7 9 -4.3220 0.0000
-2 7 10 4.8778 0.0000
-2 7 11 2.6566 0.0000
-2 7 12 -3.4919 0.0000
-2 7 13 -0.1656 0.0000
-2 7 14 2.8630 0.0000
-2 7 15 -0.9610 0.0000
-2 7 16 -1.1524 0.0000
-2 7 17 0.1932 0.0000
-2 7 18 0.8426 0.0000
-2 7 19 -0.8187 0.0000
-2 7 20 0.4727 0.0000
-2 8 1 1.5688 0.0000
-2 8 2 2.1683 0.0000
-2 8 3 -1.6666 0.0000
-2 8 4 -0.7093 0.0000
-2 8 5 0.0344 0.0000
-2 8 6 4.1287 0.0000
-2 8 7 0.2153 0.0000
-2 8 8 -5.0983 0.0000
-2 8 9 -1.2651 0.0000
-2 8 10 0.8058 0.0000
-2 8 11 0.1013 0.0000
-2 8 12 1.3529 0.0000
-2 8 13 0.9277 0.0000
-2 8 14 -1.3482 0.0000
-2 8 15 -0.5615 0.0000
-2 8 16 -1.0433 0.0000
-2 8 17 -0.5465 0.0000
-2 8 18 1.2549 0.0000
-2 8 19 0.5907 0.0000
-2 8 20 -1.6656 0.0000
-2 9 1 -9.7286 0.0000
-2 9 2 -1.3187 0.0000
-2 9 3 3.0525 0.0000
-2 9 4 -3.5684 0.0000
-2 9 5 1.3821 0.0000
-2 9 6 5.2795 0.0000
-2 9 7 -2.2477 0.0000
-2 9 8 -8.7919 0.0000
-2 9 9 0.0655 0.0000
-2 9 10 6.9352 0.0000
-2 9 11 1.2976 0.0000
-2 9 12 -3.7418 0.0000
-2 9 13 -1.0482 0.0000
-2 9 14 1.5918 0.0000
-2 9 15 -1.9042 0.0000
-2 9 16 -0.5186 0.0000
-2 9 17 1.4048 0.0000
-2 9 18 0.1034 0.0000
-2 9 19 -0.0608 0.0000
-2 10 1 -2.0460 0.0000
-2 10 2 -9.5492 0.0000
-2 10 3 5.4864 0.0000
-2 10 4 4.5522 0.0000
-2 10 5 -5.6510 0.0000
-2 10 6 -0.7919 0.0000
-2 10 7 2.8479 0.0000
-2 10 8 -1.2146 0.0000
-2 10 9 -1.5256 0.0000
-2 10 10 2.5666 0.0000
-2 10 11 -0.0164 0.0000
-2 10 12 -1.2496 0.0000
-2 10 13 0.2874 0.0000
-2 10 14 -0.4976 0.0000
-2 10 15 0.0244 0.0000
-2 10 16 -1.2357 0.0000
-2 10 17 1.8858 0.0000
-2 10 18 1.4936 0.0000
-2 10 19 -0.7127 0.0000
-2 11 1 -2.6408 0.0000
-2 11 2 -1.0869 0.0000
-2 11 3 -2.2310 0.0000
-2 11 4 1.8233 0.0000
-2 11 5 3.8431 0.0000
-2 11 6 1.4751 0.0000
-2 11 7 -2.4912 0.0000
-2 11 8 -4.0689 0.0000
-2 11 9 1.2228 0.0000
-2 11 10 4.3542 0.0000
-2 11 11 0.7530 0.0000
-2 11 12 -4.1376 0.0000
-2 11 13 0.0372 0.0000
-2 11 14 1.8598 0.0000
-2 11 15 -1.3546 0.0000
-2 11 16 1.9777 0.0000
-2 11 17 0.9370 0.0000
-2 11 18 0.1509 0.0000
-2 12 1 -7.2645 0.0000
-2 12 2 -2.1223 0.0000
-2 12 3 9.1153 0.0000
-2 12 4 3.2623 0.0000
-2 12 5 -5.5408 0.0000
-2 12 6 -1.3624 0.0000
-2 12 7 1.4225 0.0000
-2 12 8 -0.0299 0.0000
-2 12 9 0.4568 0.0000
-2 12 10 1.3727 0.0000
-2 12 11 -1.5538 0.0000
-2 12 12 -0.9990 0.0000
-2 12 13 1.0373 0.0000
-2 12 14 2.0341 0.0000
-2 12 15 -0.4048 0.0000
-2 12 16 -1.2167 0.0000
-2 12 17 1.5064 0.0000
-2 12 18 -0.5704 0.0000
-2 13 1 2.7973 0.0000
-2 13 2 1.0060 0.0000
-2 13 3 -0.2955 0.0000
-2 13 4 0.9832 0.0000
-2 13 5 -0.3541 0.0000
-2 13 6 -1.3048 0.0000
-2 13 7 0.6667 0.0000
-2 13 8 -1.4827 0.0000
-2 13 9 0.0955 0.0000
-2 13 10 2.1668 0.0000
-2 13 11 -0.0323 0.0000
-2 13 12 -1.1857 0.0000
-2 13 13 0.9356 0.0000
-2 13 14 -0.1073 0.0000
-2 13 15 -0.1921 0.0000
-2 13 16 -0.1912 0.0000
-2 13 17 -0.5524 0.0000
-2 14 1 -1.5358 0.0000
-2 14 2 -0.3981 0.0000
-2 14 3 4.6638 0.0000
-2 14 4 0.1801 0.0000
-2 14 5 -4.4433 0.0000
-2 14 6 -1.1685 0.0000
-2 14 7 1.6933 0.0000
-2 14 8 1.5892 0.0000
-2 14 9 -0.5283 0.0000
-2 14 10 0.2636 0.0000
-2 14 11 -0.7970 0.0000
-2 14 12 -0.8887 0.0000
-2 14 13 2.0970 0.0000
-2 14 14 0.0885 0.0000
-2 14 15 -2.6885 0.0000
-2 14 16 -0.1744 0.0000
-2 14 17 0.0674 0.0000
-2 15 1 6.1313 0.0000
-2 15 2 -1.5075 0.0000
-2 15 3 -3.0182 0.0000
-2 15 4 0.8029 0.0000
-2 15 5 -0.7655 0.0000
-2 15 6 -0.4462 0.0000
-2 15 7 2.7773 0.0000
-2 15 8 -0.9140 0.0000
-2 15 9 -2.1455 0.0000
-2 15 10 0.3701 0.0000
-2 15 11 1.9691 0.0000
-2 15 12 0.4077 0.0000
-2 15 13 -1.7158 0.0000
-2 15 14 -0.0847 0.0000
-2 15 15 -0.9961 0.0000
-2 15 16 -0.9848 0.0000
-2 16 1 0.2110 0.0000
-2 16 2 -1.1591 0.0000
-2 16 3 -0.4458 0.0000
-2 16 4 0.6188 0.0000
-2 16 5 -0.5040 0.0000
-2 16 6 0.3097 0.0000
-2 16 7 -0.6311 0.0000
-2 16 8 -0.5667 0.0000
-2 16 9 -0.3436 0.0000
-2 16 10 1.9696 0.0000
-2 16 11 0.9929 0.0000
-2 16 12 -0.6557 0.0000
-2 16 13 -0.2940 0.0000
-2 16 14 -1.9996 0.0000
-2 16 15 0.6629 0.0000
-2 17 1 1.4104 0.0000
-2 17 2 -2.0562 0.0000
-2 17 3 -0.3635 0.0000
-2 17 4 0.2890 0.0000
-2 17 5 -1.8333 0.0000
-2 17 6 -0.6266 0.0000
-2 17 7 3.0183 0.0000
-2 17 8 -0.7163 0.0000
-2 17 9 -0.2180 0.0000
-2 17 10 0.8939 0.0000
-2 17 11 1.1485 0.0000
-2 17 12 0.1132 0.0000
-2 17 13 -0.8262 0.0000
-2 17 14 0.2924 0.0000
-2 18 1 0.3370 0.0000
-2 18 2 -3.3568 0.0000
-2 18 3 -1.2068 0.0000
-2 18 4 1.9053 0.0000
-2 18 5 1.9685 0.0000
-2 18 6 -0.9564 0.0000
-2 18 7 -2.5755 0.0000
-2 18 8 1.3584 0.0000
-2 18 9 2.1103 0.0000
-2 18 10 3.3021 0.0000
-2 18 11 -0.9618 0.0000
-2 18 12 -3.0672 0.0000
-2 18 13 -0.4351 0.0000
-2 19 1 0.3246 0.0000
-2 19 2 -0.9216 0.0000
-2 19 3 -0.3245 0.0000
-2 19 4 0.3752 0.0000
-2 19 5 -0.9243 0.0000
-2 19 6 -0.0545 0.0000
-2 19 7 2.9322 0.0000
-2 19 8 0.9845 0.0000
-2 19 9 -1.0883 0.0000
-2 19 10 -2.1839 0.0000
-2 19 11 2.0048 0.0000
-2 19 12 0.3747 0.0000
-2 20 1 1.2315 0.0000
-2 20 2 -1.2906 0.0000
-2 20 3 -0.7884 0.0000
-2 20 4 1.8471 0.0000
-2 20 5 0.4328 0.0000
-2 20 6 -1.2421 0.0000
-2 20 7 -0.9800 0.0000
-2 20 8 1.1348 0.0000
-2 20 9 0.5561 0.0000
-2 20 10 0.8073 0.0000
-2 21 1 -2.2922 0.0000
-2 21 2 0.7663 0.0000
-2 21 3 0.1075 0.0000
-2 21 4 -0.2896 0.0000
-2 21 5 -1.4005 0.0000
-2 21 6 -0.6016 0.0000
-2 21 7 1.9058 0.0000
-2 21 8 -0.7222 0.0000
-2 21 9 -1.4444 0.0000
-2 22 1 1.8385 0.0000
-2 22 2 -2.4231 0.0000
-2 22 3 -1.0655 0.0000
-2 22 4 -1.0919 0.0000
-2 22 5 1.3143 0.0000
-2 22 6 -0.0169 0.0000
-2 22 7 -1.0684 0.0000
-2 23 1 -0.4410 0.0000
-2 23 2 0.2075 0.0000
-2 23 3 -1.8747 0.0000
-2 23 4 0.6525 0.0000
-1 0 4 34.2639 0.0000
-1 0 6 -7.2652 0.0000
-1 0 8 -1.8863 0.0000
-1 0 10 13.1008 0.0000
-1 0 12 -8.3169 0.0000
-1 0 14 1.5593 0.0000
-1 0 16 -1.1981 0.0000
-1 0 18 0.1748 0.0000
-1 1 2 -23.4280 0.0000
-1 1 3 -15.2931 0.0000
-1 1 4 28.9608 0.0000
-1 1 5 13.5565 0.0000
-1 1 6 -17.6935 0.0000
-1 1 7 -9.9840 0.0000
-1 1 8 12.7662 0.0000
-1 1 9 14.1675 0.0000
-1 1 10 -6.0151 0.0000
-1 1 11 -7.6664 0.0000
-1 1 12 -0.8090 0.0000
-1 1 13 3.1356 0.0000
-1 1 14 1.4597 0.0000
-1 1 15 -2.0874 0.0000
-1 1 16 -0.3779 0.0000
-1 1 17 -0.2623 0.0000
-1 1 18 1.6910 0.0000
-1 1 19 0.8637 0.0000
-1 1 20 -1.0274 0.0000
-1 1 21 -0.2847 0.0000
-1 2 1 -80.5812 0.0000
-1 2 2 -18.5378 0.0000
-1 2 3 49.3668 0.0000
-1 2 4 10.0952 0.0000
-1 2 5 -20.3259 0.0000
-1 2 6 -0.7424 0.0000
-1 2 7 9.6628 0.0000
-1 2 8 -1.0002 0.0000
-1 2 9 -0.6934 0.0000
-1 2 10 3.8380 0.0000
-1 2 11 -5.0623 0.0000
-1 2 12 -3.7381 0.0000
-1 2 13 2.8539 0.0000
-1 2 14 2.1440 0.0000
-1 2 15 -1.7231 0.0000
-1 2 16 -0.6867 0.0000
-1 2 17 2.3073 0.0000
-1 2 18 -0.5998 0.0000
-1 2 19 -0.4285 0.0000
-1 2 20 -0.4576 0.0000
-1 2 21 -0.9029 0.0000
-1 3 1 -13.0183 0.0000
-1 3 2 -17.1733 0.0000
-1 3 3 30.1654 0.0000
-1 3 4 26.9451 0.0000
-1 3 5 -21.5815 0.0000
-1 3 6 -20.4092 0.0000
-1 3 7 11.7958 0.0000
-1 3 8 12.4558 0.0000
-1 3 9 -2.8366 0.0000
-1 3 10 -8.7275 0.0000
-1 3 11 -3.0187 0.0000
-1 3 12 2.5407 0.0000
-1 3 13 4.4152 0.0000
-1 3 14 0.6382 0.0000
-1 3 15 -2.1837 0.0000
-1 3 16 -1.0823 0.0000
-1 3 17 1.1390 0.0000
-1 3 18 0.4850 0.0000
-1 3 19 -1.6207 0.0000
-1 3 20 -0.7745 0.0000
-1 3 21 0.3693 0.0000
-1 4 1 -17.3161 0.0000
-1 4 2 29.8774 0.0000
-1 4 3 21.9242 0.0000
-1 4 4 -18.7128 0.0000
-1 4 5 -18.4506 0.0000
-1 4 6 9.8741 0.0000
-1 4 7 10.4550 0.0000
-1 4 8 -5.3469 0.0000
-1 4 9 -7.3947 0.0000
-1 4 10 2.7224 0.0000
-1 4 11 1.4182 0.0000
-1 4 12 1.0983 0.0000
-1 4 13 3.1848 0.0000
-1 4 14 -1.9550 0.0000
-1 4 15 -2.9916 0.0000
-1 4 16 2.9007 0.0000
-1 4 17 1.5706 0.0000
-1 4 18 -2.3055 0.0000
-1 4 19 -1.7860 0.0000
-1 4 20 0.4209 0.0000
-1 4 21 0.4254 0.0000
-1 5 1 -5.5589 0.0000
-1 5 2 -6.1945 0.0000
-1 5 3 18.5369 0.0000
-1 5 4 4.8940 0.0000
-1 5 5 -23.7425 0.0000
-1 5 6 -5.7704 0.0000
-1 5 7 15.2870 0.0000
-1 5 8 3.3871 0.0000
-1 5 9 -5.6415 0.0000
-1 5 10 -1.4477 0.0000
-1 5 11 3.8277 0.0000
-1 5 12 0.6152 0.0000
-1 5 13 0.1709 0.0000
-1 5 14 1.7302 0.0000
-1 5 15 -0.8281 0.0000
-1 5 16 -0.7683 0.0000
-1 5 17 0.2045 0.0000
-1 5 18 -0.1628 0.0000
-1 5 19 -0.1853 0.0000
-1 5 20 -0.1317 0.0000
-1 6 1 2.9022 0.0000
-1 6 2 15.4893 0.0000
-1 6 3 -3.2691 0.0000
-1 6 4 -18.3748 0.0000
-1 6 5 -2.9871 0.0000
-1 6 6 11.4332 0.0000
-1 6 7 8.3488 0.0000
-1 6 8 -4.6543 0.0000
-1 6 9 -5.3303 0.0000
-1 6 10 2.9763 0.0000
-1 6 11 3.2045 0.0000
-1 6 12 2.1549 0.0000
-1 6 13 -1.0388 0.0000
-1 6 14 -2.6730 0.0000
-1 6 15 1.8075 0.0000
-1 6 16 2.6221 0.0000
-1 6 17 -1.0121 0.0000
-1 6 18 -2.5921 0.0000
-1 6 19 0.7741 0.0000
-1 6 20 0.7261 0.0000
-1 7 1 -11.8666 0.0000
-1 7 2 -11.1379 0.0000
-1 7 3 15.5985 0.0000
-1 7 4 0.6257 0.0000
-1 7 5 -13.2749 0.0000
-1 7 6 5.4511 0.0000
-1 7 7 10.6257 0.0000
-1 7 8 -3.1925 0.0000
-1 7 9 -5.5266 0.0000
-1 7 10 3.6259 0.0000
-1 7 11 2.0128 0.0000
-1 7 12 -2.6771 0.0000
-1 7 13 1.3685 0.0000
-1 7 14 2.4050 0.0000
-1 7 15 -0.4923 0.0000
-1 7 16 -1.4508 0.0000
-1 7 17 -0.1689 0.0000
-1 7 18 0.1840 0.0000
-1 7 19 -1.2319 0.0000
-1 7 20 0.6187 0.0000
-1 8 1 15.4981 0.0000
-1 8 2 5.0788 0.0000
-1 8 3 -10.3140 0.0000
-1 8 4 -0.6169 0.0000
-1 8 5 1.4177 0.0000
-1 8 6 3.6765 0.0000
-1 8 7 4.9992 0.0000
-1 8 8 -3.4759 0.0000
-1 8 9 -6.7590 0.0000
-1 8 10 0.7669 0.0000
-1 8 11 6.0677 0.0000
-1 8 12 0.7424 0.0000
-1 8 13 -2.6084 0.0000
-1 8 14 0.1475 0.0000
-1 8 15 1.0526 0.0000
-1 8 16 -0.3032 0.0000
-1 8 17 -2.7522 0.0000
-1 8 18 -0.1431 0.0000
-1 8 19 0.7701 0.0000
-1 8 20 -1.2024 0.0000
-1 9 1 -9.7778 0.0000
-1 9 2 1.4287 0.0000
-1 9 3 4.9763 0.0000
-1 9 4 -4.1704 0.0000
-1 9 5 -0.6180 0.0000
-1 9 6 3.9410 0.0000
-1 9 7 -0.0881 0.0000
-1 9 8 -5.5527 0.0000
-1 9 9 -0.9326 0.0000
-1 9 10 4.8286 0.0000
-1 9 11 1.5169 0.0000
-1 9 12 -1.5497 0.0000
-1 9 13 -1.2541 0.0000
-1 9 14 1.0685 0.0000
-1 9 15 -0.0296 0.0000
-1 9 16 -2.3356 0.0000
-1 9 17 -0.1076 0.0000
-1 9 18 -1.0376 0.0000
-1 9 19 0.3896 0.0000
-1 10 1 8.2665 0.0000
-1 10 2 -9.1308 0.0000
-1 10 3 0.0192 0.0000
-1 10 4 3.3172 0.0000
-1 10 5 -5.3881 0.0000
-1 10 6 -0.0308 0.0000
-1 10 7 6.1933 0.0000
-1 10 8 -2.0248 0.0000
-1 10 9 -5.0387 0.0000
-1 10 10 2.8118 0.0000
-1 10 11 4.6938 0.0000
-1 10 12 -2.3353 0.0000
-1 10 13 -2.1383 0.0000
-1 10 15 0.0791 0.0000
-1 10 16 -1.8933 0.0000
-1 10 17 -0.7138 0.0000
-1 10 18 1.9620 0.0000
-1 10 19 -0.3906 0.0000
-1 11 1 -0.8667 0.0000
-1 11 2 -3.3919 0.0000
-1 11 3 -4.0923 0.0000
-1 11 4 2.9145 0.0000
-1 11 5 4.4906 0.0000
-1 11 6 -0.1482 0.0000
-1 11 7 -2.2471 0.0000
-1 11 8 -1.7020 0.0000
-1 11 9 -0.0056 0.0000
-1 11 10 4.7829 0.0000
-1 11 11 0.7404 0.0000
-1 11 12 -3.5804 0.0000
-1 11 13 -1.5623 0.0000
-1 11 14 2.0652 0.0000
-1 11 15 0.3740 0.0000
-1 11 16 -0.6788 0.0000
-1 11 17 0.4299 0.0000
-1 11 18 0.2392 0.0000
-1 12 1 -1.2795 0.0000
-1 12 2 -1.4985 0.0000
-1 12 3 3.4547 0.0000
-1 12 4 2.2924 0.0000
-1 12 5 -3.8956 0.0000
-1 12 6 0.5223 0.0000
-1 12 7 3.3795 0.0000
-1 12 8 -0.9317 0.0000
-1 12 9 -1.6086 0.0000
-1 12 10 0.5881 0.0000
-1 12 11 2.0756 0.0000
-1 12 12 -2.3807 0.0000
-1 12 13 0.5922 0.0000
-1 12 14 2.0792 0.0000
-1 12 15 -1.2595 0.0000
-1 12 16 -0.2031 0.0000
-1 12 17 1.4594 0.0000
-1 12 18 0.6887 0.0000
-1 13 1 1.9129 0.0000
-1 13 2 -1.3880 0.0000
-1 13 3 -1.7615 0.0000
-1 13 4 2.8012 0.0000
-1 13 5 3.5148 0.0000
-1 13 6 -2.3630 0.0000
-1 13 7 -2.1116 0.0000
-1 13 8 -0.6031 0.0000
-1 13 9 1.3869 0.0000
-1 13 10 2.8787 0.0000
-1 13 11 -1.1511 0.0000
-1 13 12 -0.5369 0.0000
-1 13 13 -0.9458 0.0000
-1 13 14 1.0239 0.0000
-1 13 15 1.2562 0.0000
-1 13 16 -0.5815 0.0000
-1 13 17 0.5463 0.0000
-1 14 1 1.5705 0.0000
-1 14 2 -0.1487 0.0000
-1 14 3 2.2428 0.0000
-1 14 4 1.1269 0.0000
-1 14 5 -3.8457 0.0000
-1 14 6 -1.4528 0.0000
-1 14 7 2.5973 0.0000
-1 14 8 2.0850 0.0000
-1 14 9 -0.9437 0.0000
-1 14 10 -1.0395 0.0000
-1 14 11 -0.0398 0.0000
-1 14 12 -0.8775 0.0000
-1 14 13 2.4520 0.0000
-1 14 14 -1.0029 0.0000
-1 14 15 -1.5325 0.0000
-1 14 16 1.2300 0.0000
-1 14 17 -0.3449 0.0000
-1 15 1 4.3885 0.0000
-1 15 2 -2.3129 0.0000
-1 15 3 -4.5445 0.0000
-1 15 4 1.7667 0.0000
-1 15 5 3.3516 0.0000
-1 15 6 -1.7207 0.0000
-1 15 7 -0.5615 0.0000
-1 15 8 0.8318 0.0000
-1 15 9 -1.2309 0.0000
-1 15 10 0.1455 0.0000
-1 15 11 1.1276 0.0000
-1 15 12 -0.5304 0.0000
-1 15 13 -2.9201 0.0000
-1 15 14 1.1492 0.0000
-1 15 15 0.6201 0.0000
-1 15 16 -0.3394 0.0000
-1 16 1 0.2004 0.0000
-1 16 2 -0.9331 0.0000
-1 16 3 0.3484 0.0000
-1 16 4 1.4263 0.0000
-1 16 5 -1.9424 0.0000
-1 16 6 0.0630 0.0000
-1 16 7 1.4093 0.0000
-1 16 8 0.0759 0.0000
-1 16 9 -1.4390 0.0000
-1 16 10 -1.4023 0.0000
-1 16 11 1.5817 0.0000
-1 16 12 0.5794 0.0000
-1 16 13 -1.0305 0.0000
-1 16 14 -1.7814 0.0000
-1 16 15 1.6481 0.0000
-1 17 1 1.6112 0.0000
-1 17 2 -1.4614 0.0000
-1 17 3 -2.3256 0.0000
-1 17 4 1.6563 0.0000
-1 17 5 2.1825 0.0000
-1 17 6 -1.9071 0.0000
-1 17 7 -0.0331 0.0000
-1 17 8 0.2841 0.0000
-1 17 9 -0.1287 0.0000
-1 17 10 1.1721 0.0000
-1 17 11 0.2169 0.0000
-1 17 12 -0.2399 0.0000
-1 17 13 -0.9429 0.0000
-1 17 14 0.7566 0.0000
-1 18 1 -1.1935 0.0000
-1 18 2 -0.9500 0.0000
-1 18 3 1.1037 0.0000
-1 18 4 1.0034 0.0000
-1 18 5 0.4130 0.0000
-1 18 6 -0.0285 0.0000
-1 18 7 -1.1084 0.0000
-1 18 8 1.2703 0.0000
-1 18 9 2.0769 0.0000
-1 18 10 1.5430 0.0000
-1 18 11 -0.2319 0.0000
-1 18 12 -2.8716 0.0000
-1 18 13 -0.6411 0.0000
-1 19 1 1.3875 0.0000
-1 19 2 -0.3073 0.0000
-1 19 3 -1.1571 0.0000
-1 19 4 1.2670 0.0000
-1 19 5 1.4166 0.0000
-1 19 6 -0.4058 0.0000
-1 19 7 1.9490 0.0000
-1 19 8 2.4502 0.0000
-1 19 9 -1.1097 0.0000
-1 19 10 -2.0763 0.0000
-1 19 11 0.8456 0.0000
-1 19 12 0.0146 0.0000
-1 20 1 0.2539 0.0000
-1 20 2 0.6420 0.0000
-1 20 3 0.5673 0.0000
-1 20 4 1.4779 0.0000
-1 20 5 1.1863 0.0000
-1 20 6 -0.0744 0.0000
-1 20 7 -0.3754 0.0000
-1 20 8 1.0059 0.0000
-1 20 9 0.6515 0.0000
-1 20 10 -1.5809 0.0000
-1 21 1 0.1099 0.0000
-1 21 2 1.6959 0.0000
-1 21 3 0.2284 0.0000
-1 21 4 0.6898 0.0000
-1 21 5 -0.2158 0.0000
-1 21 6 -0.3451 0.0000
-1 21 7 1.3198 0.0000
-1 21 8 -0.3951 0.0000
-1 21 9 -3.3717 0.0000
-1 22 1 0.1874 0.0000
-1 22 2 0.0571 0.0000
-1 22 3 0.1228 0.0000
-1 22 4 -0.5062 0.0000
-1 22 5 1.3528 0.0000
-1 22 6 -0.3365 0.0000
-1 22 7 -1.6454 0.0000
-1 22 8 -1.0493 0.0000
-1 23 1 1.6036 0.0000
-1 23 2 0.4453 0.0000
-1 23 3 -0.3595 0.0000
-1 23 4 -0.4124 0.0000
-1 23 5 -0.6476 0.0000
0 0 4 35.3640 0.0000
0 0 6 5.1226 0.0000
0 0 8 -14.8398 0.0000
0 0 10 14.3575 0.0000
0 0 14 2.2272 0.0000
0 0 16 -1.1598 0.0000
0 0 18 0.8545 0.0000
0 0 20 0.8058 0.0000
0 1 1 30.0148 0.0000
0 1 2 -47.1408 0.0000
0 1 3 -52.3508 0.0000
0 1 6 -21.9768 0.0000
0 1 7 -7.9746 0.0000
0 1 8 10.6037 0.0000
0 1 9 -0.7328 0.0000
0 1 10 -1.7149 0.0000
0 1 11 -0.5457 0.0000
0 1 12 -2.8738 0.0000
0 1 13 -1.0440 0.0000
0 1 14 1.7906 0.0000
0 1 15 -0.7292 0.0000
0 1 16 -0.4950 0.0000
0 1 17 0.5848 0.0000
0 1 18 1.1664 0.0000
0 1 19 0.1837 0.0000
0 1 20 0.0979 0.0000
0 1 21 0.9564 0.0000
0 2 0 50.8252 0.0000
0 2 1 -101.7045 0.0000
0 2 2 -43.0579 0.0000
0 2 3 41.8673 0.0000
0 2 4 24.6286 0.0000
0 2 5 -1.5936 0.0000
0 2 6 -2.0504 0.0000
0 2 8 -2.6097 0.0000
0 2 9 9.1661 0.0000
0 2 10 -0.0696 0.0000
0 2 11 -6.6676 0.0000
0 2 12 -4.6691 0.0000
0 2 13 1.9016 0.0000
0 2 14 2.6783 0.0000
0 2 15 -0.8025 0.0000
0 2 16 -0.3528 0.0000
0 2 17 1.6146 0.0000
0 2 18 -0.1931 0.0000
0 2 19 -0.5436 0.0000
0 2 20 0.4993 0.0000
0 2 21 0.5884 0.0000
0 3 1 -17.6710 0.0000
0 3 2 -47.8463 0.0000
0 3 3 29.3936 0.0000
0 3 4 51.1454 0.0000
0 3 5 -16.5384 0.0000
0 3 6 -29.7144 0.0000
0 3 7 14.1601 0.0000
0 3 9 -9.3232 0.0000
0 3 10 -4.1041 0.0000
0 3 12 0.6195 0.0000
0 3 13 2.9963 0.0000
0 3 14 1.5114 0.0000
0 3 15 -1.7934 0.0000
0 3 16 -1.6567 0.0000
0 3 17 1.4058 0.0000
0 3 18 0.5388 0.0000
0 3 19 -0.0688 0.0000
0 3 20 0.2430 0.0000
0 3 21 -0.3767 0.0000
0 4 0 -34.8406 0.0000
0 4 1 -37.3755 0.0000
0 4 2 17.6013 0.0000
0 4 3 24.8066 0.0000
0 4 4 4.7763 0.0000
0 4 5 -6.6507 0.0000
0 4 6 -5.7811 0.0000
0 4 8 3.9713 0.0000
0 4 9 -3.9624 0.0000
0 4 10 -4.4922 0.0000
0 4 11 3.1027 0.0000
0 4 12 0.9210 0.0000
0 4 13 0.7214 0.0000
0 4 14 -1.2559 0.0000
0 4 15 -1.0824 0.0000
0 4 17 0.5939 0.0000
0 4 18 -1.4804 0.0000
0 4 19 -0.7480 0.0000
0 4 20 1.5436 0.0000
0 5 1 -15.3476 0.0000
0 5 2 -6.7285 0.0000
0 5 3 33.7851 0.0000
0 5 4 14.7296 0.0000
0 5 5 -28.5231 0.0000
0 5 6 -13.0278 0.0000
0 5 7 15.1791 0.0000
0 5 8 4.1825 0.0000
0 5 9 -6.2478 0.0000
0 5 10 -2.6014 0.0000
0 5 11 1.9880 0.0000
0 5 12 2.1101 0.0000
0 5 13 0.1791 0.0000
0 5 14 0.1532 0.0000
0 5 15 -1.7603 0.0000
0 5 16 -0.5540 0.0000
0 5 17 0.5722 0.0000
0 5 18 1.3402 0.0000
0 5 19 0.3198 0.0000
0 5 20 -1.2412 0.0000
0 6 0 -21.3072 0.0000
0 6 1 -0.4249 0.0000
0 6 2 16.8239 0.0000
0 6 3 0.7302 0.0000
0 6 4 -4.0612 0.0000
0 6 5 -3.7590 0.0000
0 6 6 -3.0136 0.0000
0 6 7 5.5908 0.0000
0 6 8 2.0511 0.0000
0 6 9 -6.1807 0.0000
0 6 10 0.5321 0.0000
0 6 11 5.7005 0.0000
0 6 12 0.2242 0.0000
0 6 13 -4.0754 0.0000
0 6 14 -1.3663 0.0000
0 6 15 2.2633 0.0000
0 6 16 1.6383 0.0000
0 6 17 -0.2264 0.0000
0 6 18 -2.1809 0.0000
0 6 19 1.0850 0.0000
0 6 20 0.7601 0.0000
0 7 1 -10.7149 0.0000
0 7 2 -0.7582 0.0000
0 7 3 22.2952 0.0000
0 7 4 -1.3698 0.0000
0 7 5 -17.8370 0.0000
0 7 6 -1.6472 0.0000
0 7 7 11.8500 0.0000
0 7 8 3.6556 0.0000
0 7 9 -5.6491 0.0000
0 7 10 -1.7749 0.0000
0 7 11 1.2882 0.0000
0 7 12 -0.1995 0.0000
0 7 14 0.1104 0.0000
0 7 15 0.3805 0.0000
0 7 16 -0.6551 0.0000
0 7 17 0.0281 0.0000
0 7 18 1.0497 0.0000
0 7 19 -1.6746 0.0000
0 7 20 0.6356 0.0000
0 8 0 -15.5371 0.0000
0 8 1 20.0440 0.0000
0 8 2 7.1709 0.0000
0 8 3 -10.1702 0.0000
0 8 4 1.2879 0.0000
0 8 5 -0.4604 0.0000
0 8 6 0.4154 0.0000
0 8 7 4.9753 0.0000
0 8 8 -0.8971 0.0000
0 8 9 -7.2216 0.0000
0 8 10 0.1891 0.0000
0 8 11 6.0551 0.0000
0 8 12 -0.1194 0.0000
0 8 13 -4.2458 0.0000
0 8 14 0.7090 0.0000
0 8 15 1.7736 0.0000
0 8 16 0.8479 0.0000
0 8 17 -2.6517 0.0000
0 8 18 -1.1334 0.0000
0 8 19 1.2945 0.0000
0 9 1 -2.7650 0.0000
0 9 2 8.8116 0.0000
0 9 3 3.9936 0.0000
0 9 4 -4.8064 0.0000
0 9 5 -3.4515 0.0000
0 9 6 -0.1234 0.0000
0 9 7 2.8863 0.0000
0 9 8 0.1781 0.0000
0 9 9 -2.8269 0.0000
0 9 10 -0.9228 0.0000
0 9 11 2.6474 0.0000
0 9 12 0.8506 0.0000
0 9 13 -1.4592 0.0000
0 9 14 -0.6746 0.0000
0 9 15 1.3221 0.0000
0 9 16 -2.0178 0.0000
0 9 17 -0.9289 0.0000
0 9 18 -0.9015 0.0000
0 9 19 0.5527 0.0000
0 10 0 7.8190 0.0000
0 10 1 13.3495 0.0000
0 10 2 -4.4432 0.0000
0 10 3 -4.2968 0.0000
0 10 4 0.1583 0.0000
0 10 5 -2.2894 0.0000
0 10 6 -0.3617 0.0000
0 10 7 4.7682 0.0000
0 10 8 -1.4401 0.0000
0 10 9 -4.7045 0.0000
0 10 10 2.1678 0.0000
0 10 11 4.7652 0.0000
0 10 12 -1.3577 0.0000
0 10 13 -4.0842 0.0000
0 10 14 1.0045 0.0000
0 10 15 0.5666 0.0000
0 10 16 -1.8522 0.0000
0 10 17 -1.8049 0.0000
0 10 18 1.2842 0.0000
0 10 19 0.1153 0.0000
0 11 1 2.6304 0.0000
0 11 2 -2.4592 0.0000
0 11 3 -3.7944 0.0000
0 11 4 1.9327 0.0000
0 11 5 1.5989 0.0000
0 11 6 -1.8759 0.0000
0 11 7 -0.3737 0.0000
0 11 8 1.9950 0.0000
0 11 9 -1.2679 0.0000
0 11 10 1.4317 0.0000
0 11 11 1.8670 0.0000
0 11 12 -2.5306 0.0000
0 11 13 -2.6978 0.0000
0 11 14 0.9382 0.0000
0 11 15 1.4962 0.0000
0 11 16 -2.0369 0.0000
0 11 17 -1.0546 0.0000
0 11 18 1.0049 0.0000
0 12 0 -0.6277 0.0000
0 12 1 3.3753 0.0000
0 12 2 0.5717 0.0000
0 12 3 -2.8429 0.0000
0 12 4 -0.9666 0.0000
0 12 5 -0.5180 0.0000
0 12 6 2.0845 0.0000
0 12 7 2.8690 0.0000
0 12 8 -1.0065 0.0000
0 12 9 -2.5159 0.0000
0 12 10 0.2286 0.0000
0 12 11 2.2676 0.0000
0 12 12 -1.4180 0.0000
0 12 13 -1.0352 0.0000
0 12 14 0.8867 0.0000
0 12 15 -0.9640 0.0000
0 12 16 -0.1553 0.0000
0 12 17 1.1377 0.0000
0 12 18 0.4283 0.0000
0 13 1 0.4804 0.0000
0 13 2 -0.5967 0.0000
0 13 3 -2.0560 0.0000
0 13 4 2.0341 0.0000
0 13 5 3.2338 0.0000
0 13 6 -1.9705 0.0000
0 13 7 -2.5293 0.0000
0 13 8 0.4675 0.0000
0 13 9 1.9887 0.0000
0 13 10 0.6030 0.0000
0 13 11 -0.1893 0.0000
0 13 12 -1.2261 0.0000
0 13 13 -1.0506 0.0000
0 13 14 1.1586 0.0000
0 13 15 0.9196 0.0000
0 13 16 -0.5470 0.0000
0 13 17 0.4900 0.0000
0 14 0 -0.2507 0.0000
0 14 1 3.9546 0.0000
0 14 2 1.1638 0.0000
0 14 3 -1.7243 0.0000
0 14 4 -1.6791 0.0000
0 14 5 -0.2235 0.0000
0 14 6 -0.2368 0.0000
0 14 7 1.6620 0.0000
0 14 8 1.1218 0.0000
0 14 9 -1.1400 0.0000
0 14 10 -0.3179 0.0000
0 14 11 -0.7772 0.0000
0 14 12 0.8569 0.0000
0 14 13 0.2526 0.0000
0 14 14 -0.7981 0.0000
0 14 15 -0.2276 0.0000
0 14 16 0.4668 0.0000
0 14 17 0.2286 0.0000
0 15 1 2.1654 0.0000
0 15 2 -1.9252 0.0000
0 15 3 -5.0724 0.0000
0 15 4 1.5151 0.0000
0 15 5 4.1821 0.0000
0 15 6 -1.2106 0.0000
0 15 7 -3.0983 0.0000
0 15 8 1.9290 0.0000
0 15 9 0.7645 0.0000
0 15 10 -1.0544 0.0000
0 15 11 0.6529 0.0000
0 15 12 -2.3413 0.0000
0 15 13 -1.3884 0.0000
0 15 14 0.6661 0.0000
0 15 15 1.7538 0.0000
0 15 16 0.3676 0.0000
0 16 0 -0.7324 0.0000
0 16 1 0.5229 0.0000
0 16 2 -0.5562 0.0000
0 16 3 -0.8961 0.0000
0 16 4 -0.4361 0.0000
0 16 5 -0.2926 0.0000
0 16 6 0.6712 0.0000
0 16 7 1.9130 0.0000
0 16 8 -0.3206 0.0000
0 16 9 -2.2194 0.0000
0 16 10 -2.5827 0.0000
0 16 11 0.2160 0.0000
0 16 12 2.1296 0.0000
0 16 13 -1.3985 0.0000
0 16 14 -0.0870 0.0000
0 16 15 0.5342 0.0000
0 17 1 0.0694 0.0000
0 17 2 -1.3806 0.0000
0 17 3 -3.0616 0.0000
0 17 4 3.2133 0.0000
0 17 5 3.5720 0.0000
0 17 6 -2.0732 0.0000
0 17 7 -2.9825 0.0000
0 17 8 0.4456 0.0000
0 17 9 0.6006 0.0000
0 17 10 -0.4640 0.0000
0 17 11 -0.2259 0.0000
0 17 12 -0.4997 0.0000
0 17 13 0.9035 0.0000
0 17 14 1.0453 0.0000
0 18 0 -1.7626 0.0000
0 18 1 -1.3764 0.0000
0 18 2 1.0397 0.0000
0 18 3 2.4804 0.0000
0 18 4 -1.2131 0.0000
0 18 5 0.3967 0.0000
0 18 6 0.1032 0.0000
0 18 7 -0.5558 0.0000
0 18 8 0.0120 0.0000
0 18 9 0.5240 0.0000
0 18 10 0.6267 0.0000
0 18 11 0.0401 0.0000
0 18 12 0.4229 0.0000
0 19 1 0.7106 0.0000
0 19 2 0.8996 0.0000
0 19 3 -1.3615 0.0000
0 19 4 1.7073 0.0000
0 19 5 1.2578 0.0000
0 19 6 -0.1589 0.0000
0 19 7 -0.7592 0.0000
0 19 8 1.9655 0.0000
0 19 9 0.1098 0.0000
0 19 10 -1.5425 0.0000
0 19 11 1.3139 0.0000
0 20 0 -1.0187 0.0000
0 20 1 0.8319 0.0000
0 20 2 1.8800 0.0000
0 20 3 1.7137 0.0000
0 20 4 -1.2236 0.0000
0 20 5 0.9026 0.0000
0 20 6 0.3256 0.0000
0 20 7 0.9675 0.0000
0 20 8 -0.2940 0.0000
0 20 9 -0.6133 0.0000
0 20 10 -1.3101 0.0000
0 21 1 2.1029 0.0000
0 21 2 1.8997 0.0000
0 21 3 -1.7916 0.0000
0 21 4 1.3086 0.0000
0 21 5 0.5763 0.0000
0 21 6 0.1158 0.0000
0 21 7 -1.2519 0.0000
0 21 8 -0.5476 0.0000
0 22 0 3.0905 0.0000
0 22 1 -0.1300 0.0000
0 22 2 1.0627 0.0000
0 22 3 0.6711 0.0000
0 22 4 -2.0161 0.0000
0 22 5 1.3422 0.0000
0 22 6 -0.2882 0.0000
0 22 7 -2.0432 0.0000
0 22 8 -3.4279 0.0000
0 23 1 2.8112 0.0000
0 23 2 -0.8011 0.0000
0 23 3 -1.1099 0.0000
0 23 4 0.0041 0.0000
0 23 5 -1.0020 0.0000
1 0 4 11.8865 0.0000
1 0 6 5.0443 0.0000
1 0 8 -12.3700 0.0000
1 0 10 8.2887 0.0000
1 0 12 -0.5761 0.0000
1 0 14 1.7152 0.0000
1 0 16 -2.4638 0.0000
1 0 18 2.7190 0.0000
1 0 20 -2.0182 0.0000
1 1 0 17.1720 0.0000
1 1 1 50.2383 0.0000
1 1 2 -46.0230 0.0000
1 1 3 -53.3438 0.0000
1 1 4 30.2048 0.0000
1 1 5 22.4864 0.0000
1 1 6 -9.0759 0.0000
1 1 7 -0.0306 0.0000
1 1 8 0.7723 0.0000
1 1 9 -13.0401 0.0000
1 1 10 4.9440 0.0000
1 1 11 11.1888 0.0000
1 1 12 -3.9281 0.0000
1 1 13 -2.5755 0.0000
1 1 14 0.3688 0.0000
1 1 15 0.2708 0.0000
1 1 16 0.3835 0.0000
1 1 17 0.7005 0.0000
1 1 18 0.2340 0.0000
1 1 19 -0.6305 0.0000
1 1 20 0.1034 0.0000
1 1 21 0.1701 0.0000
1 2 0 26.5217 0.0000
1 2 1 -62.2143 0.0000
1 2 2 -32.4676 0.0000
1 2 3 8.4155 0.0000
1 2 4 23.2533 0.0000
1 2 5 15.6975 0.0000
1 2 6 -9.6403 0.0000
1 2 7 -14.7587 0.0000
1 2 8 1.2367 0.0000
1 2 9 10.0440 0.0000
1 2 10 -2.1055 0.0000
1 2 11 -1.9005 0.0000
1 2 12 -0.6536 0.0000
1 2 13 -2.1355 0.0000
1 2 14 3.8124 0.0000
1 2 15 0.8374 0.0000
1 2 16 -2.1140 0.0000
1 2 17 0.9781 0.0000
1 2 18 1.3862 0.0000
1 2 19 -1.2808 0.0000
1 2 20 -0.8488 0.0000
1 2 21 1.0935 0.0000
1 3 0 12.7259 0.0000
1 3 1 -18.0786 0.0000
1 3 2 -39.6310 0.0000
1 3 3 17.1208 0.0000
1 3 4 34.2423 0.0000
1 3 5 -5.0994 0.0000
1 3 6 -14.0201 0.0000
1 3 7 3.8286 0.0000
1 3 8 -0.4640 0.0000
1 3 9 -6.0829 0.0000
1 3 10 2.9938 0.0000
1 3 11 0.9834 0.0000
1 3 12 -0.5008 0.0000
1 3 13 1.2174 0.0000
1 3 14 -0.1710 0.0000
1 3 15 0.2706 0.0000
1 3 16 0.0671 0.0000
1 3 17 0.2454 0.0000
1 3 18 -0.2467 0.0000
1 3 19 0.2917 0.0000
1 3 20 0.2483 0.0000
1 4 0 -25.5553 0.0000
1 4 1 -19.3611 0.0000
1 4 2 -5.2753 0.0000
1 4 4 23.5397 0.0000
1 4 5 3.1821 0.0000
1 4 6 -19.8425 0.0000
1 4 7 -6.8336 0.0000
1 4 8 8.5942 0.0000
1 4 9 -0.9479 0.0000
1 4 10 -3.0716 0.0000
1 4 11 3.6317 0.0000
1 4 12 -0.0658 0.0000
1 4 13 -0.9783 0.0000
1 4 14 2.5116 0.0000
1 4 15 0.1050 0.0000
1 4 16 -1.3219 0.0000
1 4 17 0.3746 0.0000
1 4 18 0.2613 0.0000
1 4 19 -0.0864 0.0000
1 4 20 0.5743 0.0000
1 5 0 -14.8086 0.0000
1 5 1 -11.0226 0.0000
1 5 2 6.5639 0.0000
1 5 3 19.1550 0.0000
1 5 4 9.9454 0.0000
1 5 6 -10.9923 0.0000
1 5 8 5.7188 0.0000
1 5 9 -0.7146 0.0000
1 5 10 -3.6278 0.0000
1 5 11 3.3721 0.0000
1 5 12 3.8786 0.0000
1 5 13 -1.3143 0.0000
1 5 14 -2.2137 0.0000
1 5 15 0.4925 0.0000
1 5 16 0.8408 0.0000
1 5 17 -0.5388 0.0000
1 5 18 1.3823 0.0000
1 5 19 0.3732 0.0000
1 5 20 -1.4586 0.0000
1 6 0 -9.9794 0.0000
1 6 1 -4.5243 0.0000
1 6 2 4.4944 0.0000
1 6 3 7.4444 0.0000
1 6 4 7.7364 0.0000
1 6 5 -4.1395 0.0000
1 6 6 -12.5036 0.0000
1 6 7 1.5705 0.0000
1 6 8 4.5624 0.0000
1 6 10 1.3213 0.0000
1 6 11 2.5822 0.0000
1 6 12 -1.2151 0.0000
1 6 13 -2.7004 0.0000
1 6 14 0.8310 0.0000
1 6 15 0.8962 0.0000
1 6 16 0.0488 0.0000
1 6 17 0.7505 0.0000
1 6 18 -0.3822 0.0000
1 6 19 0.5555 0.0000
1 6 20 -1.2369 0.0000
1 7 0 -14.0344 0.0000
1 7 1 -0.0639 0.0000
1 7 2 8.9259 0.0000
1 7 3 11.5006 0.0000
1 7 4 -1.0959 0.0000
1 7 5 -12.1915 0.0000
1 7 6 -7.2947 0.0000
1 7 7 8.0330 0.0000
1 7 8 9.3552 0.0000
1 7 9 -5.0180 0.0000
1 7 10 -5.0238 0.0000
1 7 11 3.0199 0.0000
1 7 12 1.2590 0.0000
1 7 13 -2.5838 0.0000
1 7 14 -0.5310 0.0000
1 7 15 2.6484 0.0000
1 7 16 0.0239 0.0000
1 7 17 -0.5030 0.0000
1 7 18 0.8069 0.0000
1 7 19 -1.1487 0.0000
1 7 20 0.0296 0.0000
1 8 0 -10.8288 0.0000
1 8 1 11.2831 0.0000
1 8 2 6.1244 0.0000
1 8 3 -4.1598 0.0000
1 8 4 -0.1923 0.0000
1 8 5 0.0277 0.0000
1 8 6 -2.0202 0.0000
1 8 7 0.5809 0.0000
1 8 8 1.7715 0.0000
1 8 9 -1.8627 0.0000
1 8 10 -1.0407 0.0000
1 8 11 1.3837 0.0000
1 8 12 -0.1507 0.0000
1 8 14 0.4257 0.0000
1 8 15 2.2818 0.0000
1 8 16 1.2732 0.0000
1 8 17 -2.1448 0.0000
1 8 18 -0.2952 0.0000
1 8 19 0.6058 0.0000
1 9 0 -9.3567 0.0000
1 9 1 6.9103 0.0000
1 9 2 11.5920 0.0000
1 9 3 -1.2041 0.0000
1 9 4 -4.7741 0.0000
1 9 5 -4.1765 0.0000
1 9 6 -0.4388 0.0000
1 9 7 4.5391 0.0000
1 9 8 2.2970 0.0000
1 9 9 -4.2548 0.0000
1 9 10 -3.8175 0.0000
1 9 11 3.2556 0.0000
1 9 12 2.3857 0.0000
1 9 13 -1.5647 0.0000
1 9 14 0.1351 0.0000
1 9 15 1.6100 0.0000
1 9 16 -0.7919 0.0000
1 9 17 -0.8776 0.0000
1 9 18 -0.6164 0.0000
1 9 19 1.2515 0.0000
1 10 0 7.1143 0.0000
1 10 1 9.5284 0.0000
1 10 2 -0.1356 0.0000
1 10 3 -7.2078 0.0000
1 10 4 -1.8324 0.0000
1 10 5 3.8081 0.0000
1 10 6 -0.2709 0.0000
1 10 7 -0.7831 0.0000
1 10 8 -0.2370 0.0000
1 10 9 -0.6907 0.0000
1 10 10 0.3924 0.0000
1 10 11 2.2593 0.0000
1 10 12 0.4522 0.0000
1 10 13 -2.1607 0.0000
1 10 14 0.0119 0.0000
1 10 15 2.0579 0.0000
1 10 16 -1.8627 0.0000
1 10 17 -1.4527 0.0000
1 10 18 1.8129 0.0000
1 10 19 -0.3906 0.0000
1 11 0 -0.2632 0.0000
1 11 1 4.1318 0.0000
1 11 2 -1.9088 0.0000
1 11 3 -2.7506 0.0000
1 11 4 0.5817 0.0000
1 11 5 1.2260 0.0000
1 11 6 -1.4346 0.0000
1 11 7 1.0481 0.0000
1 11 8 2.2494 0.0000
1 11 9 -1.4400 0.0000
1 11 10 -0.4936 0.0000
1 11 11 2.0335 0.0000
1 11 12 -0.2631 0.0000
1 11 13 -2.8796 0.0000
1 11 14 1.1387 0.0000
1 11 15 0.9093 0.0000
1 11 16 -0.8767 0.0000
1 11 17 -1.6614 0.0000
1 11 18 1.0468 0.0000
1 12 0 -0.4319 0.0000
1 12 1 3.2042 0.0000
1 12 2 -0.4473 0.0000
1 12 3 -5.8311 0.0000
1 12 4 -0.0758 0.0000
1 12 5 4.6853 0.0000
1 12 6 2.7726 0.0000
1 12 7 -2.2428 0.0000
1 12 8 0.2978 0.0000
1 12 9 -0.7176 0.0000
1 12 10 -0.5007 0.0000
1 12 11 1.1417 0.0000
1 12 12 -0.1658 0.0000
1 12 13 -0.9214 0.0000
1 12 14 -0.6903 0.0000
1 12 15 1.1166 0.0000
1 12 16 -0.9790 0.0000
1 12 17 1.0065 0.0000
1 12 18 0.2806 0.0000
1 13 0 -1.4347 0.0000
1 13 1 -3.1697 0.0000
1 13 2 0.6409 0.0000
1 13 3 0.8001 0.0000
1 13 4 2.7277 0.0000
1 13 5 1.8504 0.0000
1 13 6 -1.9961 0.0000
1 13 7 -0.8498 0.0000
1 13 8 -0.1096 0.0000
1 13 9 2.0935 0.0000
1 13 10 -1.2614 0.0000
1 13 11 -0.1333 0.0000
1 13 12 -0.1759 0.0000
1 13 13 -0.2448 0.0000
1 13 14 1.0278 0.0000
1 13 15 -0.3464 0.0000
1 13 16 0.6493 0.0000
1 13 17 -0.3306 0.0000
1 14 0 -0.3056 0.0000
1 14 1 3.2788 0.0000
1 14 2 0.9580 0.0000
1 14 3 -2.6556 0.0000
1 14 4 -0.9172 0.0000
1 14 5 4.1476 0.0000
1 14 6 -0.2181 0.0000
1 14 7 -2.8091 0.0000
1 14 8 1.4882 0.0000
1 14 9 -0.0007 0.0000
1 14 10 -0.1259 0.0000
1 14 11 -0.5324 0.0000
1 14 12 1.5777 0.0000
1 14 13 -0.4650 0.0000
1 14 14 -0.4071 0.0000
1 14 15 0.5049 0.0000
1 14 16 -0.9424 0.0000
1 15 0 -1.3822 0.0000
1 15 1 -2.0742 0.0000
1 15 2 0.0503 0.0000
1 15 3 -0.3789 0.0000
1 15 4 0.9403 0.0000
1 15 5 1.3115 0.0000
1 15 6 -0.8947 0.0000
1 15 7 -1.9376 0.0000
1 15 8 0.8220 0.0000
1 15 9 2.2558 0.0000
1 15 10 -0.7517 0.0000
1 15 11 -0.3117 0.0000
1 15 12 -1.2476 0.0000
1 15 13 -0.8824 0.0000
1 15 14 -0.1533 0.0000
1 15 15 1.8711 0.0000
1 15 16 0.5910 0.0000
1 16 0 -0.0933 0.0000
1 16 1 0.7681 0.0000
1 16 2 -1.0838 0.0000
1 16 3 -2.1304 0.0000
1 16 4 0.1574 0.0000
1 16 5 1.6282 0.0000
1 16 6 0.3556 0.0000
1 16 7 -0.0133 0.0000
1 16 8 1.1153 0.0000
1 16 9 -1.9232 0.0000
1 16 10 -2.2153 0.0000
1 16 11 0.3668 0.0000
1 16 12 1.2082 0.0000
1 16 13 -0.5625 0.0000
1 16 14 -0.4285 0.0000
1 16 15 -0.4323 0.0000
1 17 0 -1.2043 0.0000
1 17 1 -2.7654 0.0000
1 17 2 -0.9610 0.0000
1 17 3 -0.1697 0.0000
1 17 4 2.3470 0.0000
1 17 5 2.6320 0.0000
1 17 6 -1.2623 0.0000
1 17 7 -2.8257 0.0000
1 17 8 -0.7229 0.0000
1 17 9 2.4472 0.0000
1 17 10 -1.0966 0.0000
1 17 11 -1.6769 0.0000
1 17 12 0.3825 0.0000
1 17 13 0.7613 0.0000
1 17 14 1.5463 0.0000
1 18 0 -0.9086 0.0000
1 18 1 -1.5205 0.0000
1 18 2 0.0529 0.0000
1 18 3 1.8168 0.0000
1 18 4 0.6407 0.0000
1 18 5 0.3356 0.0000
1 18 6 -0.4094 0.0000
1 18 7 -1.1547 0.0000
1 18 8 0.4747 0.0000
1 18 9 -0.5383 0.0000
1 18 10 0.6600 0.0000
1 18 11 0.7077 0.0000
1 18 12 1.3495 0.0000
1 19 0 -0.2308 0.0000
1 19 1 -2.0911 0.0000
1 19 2 1.2137 0.0000
1 19 3 0.9130 0.0000
1 19 4 0.7320 0.0000
1 19 5 1.3491 0.0000
1 19 6 -1.0118 0.0000
1 19 7 -1.8604 0.0000
1 19 8 1.3409 0.0000
1 19 9 2.8318 0.0000
1 19 10 -0.8357 0.0000
1 19 11 0.9541 0.0000
1 20 0 -1.4511 0.0000
1 20 1 0.0458 0.0000
1 20 2 0.9893 0.0000
1 20 3 2.5440 0.0000
1 20 4 -0.8853 0.0000
1 20 5 -1.5599 0.0000
1 20 6 1.0404 0.0000
1 20 7 1.6122 0.0000
1 20 8 0.7746 0.0000
1 20 9 -0.9260 0.0000
1 20 10 0.3080 0.0000
1 21 0 0.2188 0.0000
1 21 1 1.1315 0.0000
1 21 2 1.0549 0.0000
1 21 3 -1.9291 0.0000
1 21 4 1.2802 0.0000
1 21 5 1.4749 0.0000
1 21 6 -1.0617 0.0000
1 21 7 -0.5471 0.0000
1 21 8 0.2582 0.0000
1 21 9 -0.4318 0.0000
1 22 0 1.2550 0.0000
1 22 1 -0.1316 0.0000
1 22 2 0.8563 0.0000
1 22 3 0.7086 0.0000
1 22 4 -1.9473 0.0000
1 22 5 0.7564 0.0000
1 22 6 0.9971 0.0000
1 22 7 -2.0483 0.0000
1 23 0 1.8186 0.0000
1 23 1 0.9843 0.0000
1 23 2 -1.6895 0.0000
1 23 3 -0.7239 0.0000
1 23 4 0.9219 0.0000
1 23 5 -0.4877 0.0000
2 0 0 27.6154 0.0000
2 0 2 -3.7675 0.0000
2 0 4 -1.9462 0.0000
2 0 8 7.5648 0.0000
2 0 10 -4.5921 0.0000
2 0 12 5.1294 0.0000
2 0 14 -2.0469 0.0000
2 0 16 -2.6716 0.0000
2 0 18 4.3959 0.0000
2 0 20 -2.4177 0.0000
2 1 0 18.3572 0.0000
2 1 1 34.3510 0.0000
2 1 2 -22.1658 0.0000
2 1 3 -21.6343 0.0000
2 1 4 3.3215 0.0000
2 1 5 3.9633 0.0000
2 1 6 4.9038 0.0000
2 1 7 5.9007 0.0000
2 1 8 -4.8914 0.0000
2 1 9 -9.1722 0.0000
2 1 10 4.8730 0.0000
2 1 11 8.9165 0.0000
2 1 12 -0.8133 0.0000
2 1 13 -4.0246 0.0000
2 1 14 -1.7541 0.0000
2 1 15 -0.4982 0.0000
2 1 16 1.8899 0.0000
2 1 17 0.4639 0.0000
2 1 18 -0.5844 0.0000
2 1 19 0.6866 0.0000
2 1 20 -0.3534 0.0000
2 2 0 -14.3200 0.0000
2 2 1 -9.7980 0.0000
2 2 2 -4.9041 0.0000
2 2 3 -12.3009 0.0000
2 2 4 14.2072 0.0000
2 2 5 8.9643 0.0000
2 2 6 -11.7002 0.0000
2 2 7 -3.7234 0.0000
2 2 8 9.5586 0.0000
2 2 9 0.0308 0.0000
2 2 10 -4.2777 0.0000
2 2 11 4.1118 0.0000
2 2 12 -0.2058 0.0000
2 2 13 -4.1487 0.0000
2 2 14 1.0085 0.0000
2 2 15 2.2326 0.0000
2 2 16 -3.1775 0.0000
2 2 17 0.8534 0.0000
2 2 18 2.7375 0.0000
2 2 19 -1.6140 0.0000
2 2 20 -1.6152 0.0000
2 3 0 7.2613 0.0000
2 3 1 -13.1790 0.0000
2 3 2 -3.0545 0.0000
2 3 3 2.1372 0.0000
2 3 4 -2.0880 0.0000
2 3 5 7.6966 0.0000
2 3 6 3.9309 0.0000
2 3 7 -3.5259 0.0000
2 3 8 -6.6632 0.0000
2 3 9 1.0093 0.0000
2 3 10 2.7564 0.0000
2 3 11 2.5665 0.0000
2 3 12 1.0821 0.0000
2 3 13 -4.3783 0.0000
2 3 14 -1.7792 0.0000
2 3 15 1.9752 0.0000
2 3 16 2.5324 0.0000
2 3 17 -1.6522 0.0000
2 3 18 -0.8019 0.0000
2 3 19 0.8183 0.0000
2 3 20 -0.3547 0.0000
2 4 0 -11.9409 0.0000
2 4 1 6.8975 0.0000
2 4 2 -12.5408 0.0000
2 4 3 3.5845 0.0000
2 4 4 17.6636 0.0000
2 4 5 -0.5392 0.0000
2 4 6 -12.2652 0.0000
2 4 8 6.5204 0.0000
2 4 9 -1.5154 0.0000
2 4 10 1.7112 0.0000
2 4 11 1.8940 0.0000
2 4 12 -2.7330 0.0000
2 4 13 -0.6819 0.0000
2 4 14 2.7951 0.0000
2 4 15 1.2756 0.0000
2 4 16 -2.8361 0.0000
2 4 17 0.4226 0.0000
2 4 18 0.8435 0.0000
2 4 19 0.1435 0.0000
2 4 20 -0.6147 0.0000
2 5 0 -18.8838 0.0000
2 5 1 7.1857 0.0000
2 5 2 19.1307 0.0000
2 5 3 -9.0443 0.0000
2 5 4 -2.5699 0.0000
2 5 5 7.3878 0.0000
2 5 6 -3.9600 0.0000
2 5 7 -6.4034 0.0000
2 5 8 3.7639 0.0000
2 5 9 4.0700 0.0000
2 5 10 -2.6602 0.0000
2 5 11 4.2397 0.0000
2 5 12 2.8624 0.0000
2 5 13 -4.0827 0.0000
2 5 14 -1.9573 0.0000
2 5 15 2.5018 0.0000
2 5 16 1.9576 0.0000
2 5 17 -2.1357 0.0000
2 5 18 0.1040 0.0000
2 5 19 0.3131 0.0000
2 5 20 -0.4293 0.0000
2 6 0 4.6860 0.0000
2 6 1 -4.7160 0.0000
2 6 2 -2.4383 0.0000
2 6 3 7.5966 0.0000
2 6 4 3.9768 0.0000
2 6 5 -1.8496 0.0000
2 6 6 -6.2479 0.0000
2 6 7 -2.8412 0.0000
2 6 8 4.5213 0.0000
2 6 9 5.3644 0.0000
2 6 10 2.1079 0.0000
2 6 11 -1.9449 0.0000
2 6 12 -1.7158 0.0000
2 6 13 0.0731 0.0000
2 6 14 0.9949 0.0000
2 6 15 0.0673 0.0000
2 6 16 -1.2052 0.0000
2 6 17 0.1025 0.0000
2 6 18 0.3347 0.0000
2 6 19 0.2259 0.0000
2 6 20 -2.2364 0.0000
2 7 0 -10.7640 0.0000
2 7 1 10.6469 0.0000
2 7 2 8.5729 0.0000
2 7 3 -5.3034 0.0000
2 7 4 -1.1359 0.0000
2 7 5 -1.4909 0.0000
2 7 6 -4.9727 0.0000
2 7 7 4.4159 0.0000
2 7 8 7.0435 0.0000
2 7 9 -1.5366 0.0000
2 7 10 -3.4814 0.0000
2 7 11 2.3318 0.0000
2 7 12 0.4548 0.0000
2 7 13 -3.9048 0.0000
2 7 14 -0.5132 0.0000
2 7 15 2.9680 0.0000
2 7 16 0.2135 0.0000
2 7 17 -2.1649 0.0000
2 7 18 -0.8134 0.0000
2 7 19 0.0632 0.0000
2 8 0 -3.7316 0.0000
2 8 1 0.5636 0.0000
2 8 2 3.2372 0.0000
2 8 3 0.0202 0.0000
2 8 4 -2.6853 0.0000
2 8 5 2.5561 0.0000
2 8 6 -1.0578 0.0000
2 8 7 -3.2588 0.0000
2 8 8 3.8888 0.0000
2 8 9 2.9562 0.0000
2 8 10 -2.1873 0.0000
2 8 11 -3.1067 0.0000
2 8 12 -0.1769 0.0000
2 8 14 -0.1318 0.0000
2 8 15 1.4023 0.0000
2 8 16 -0.1088 0.0000
2 8 17 -2.5590 0.0000
2 8 18 0.4727 0.0000
2 8 19 0.6830 0.0000
2 9 0 -8.1809 0.0000
2 9 1 11.0421 0.0000
2 9 2 8.3230 0.0000
2 9 3 -6.0533 0.0000
2 9 4 -4.8914 0.0000
2 9 5 -0.9882 0.0000
2 9 6 2.9332 0.0000
2 9 7 3.0251 0.0000
2 9 8 0.5087 0.0000
2 9 9 -2.9219 0.0000
2 9 10 -3.2568 0.0000
2 9 11 1.1112 0.0000
2 9 12 2.3814 0.0000
2 9 13 -0.4959 0.0000
2 9 14 -0.6287 0.0000
2 9 15 0.7509 0.0000
2 9 16 -0.3094 0.0000
2 9 17 -1.4210 0.0000
2 9 18 -0.4413 0.0000
2 9 19 2.1919 0.0000
2 10 0 5.4847 0.0000
2 10 1 2.4054 0.0000
2 10 2 1.6003 0.0000
2 10 3 -6.1906 0.0000
2 10 5 6.4333 0.0000
2 10 6 0.7925 0.0000
2 10 7 -4.4818 0.0000
2 10 8 0.1134 0.0000
2 10 9 3.0875 0.0000
2 10 10 -1.6797 0.0000
2 10 11 -0.3329 0.0000
2 10 12 1.5983 0.0000
2 10 13 -0.1268 0.0000
2 10 14 -0.7588 0.0000
2 10 15 0.6677 0.0000
2 10 16 -1.7332 0.0000
2 10 17 -0.4299 0.0000
2 10 18 2.5621 0.0000
2 11 0 2.9646 0.0000
2 11 1 4.2889 0.0000
2 11 2 -1.9505 0.0000
2 11 3 -2.9320 0.0000
2 11 4 -0.7183 0.0000
2 11 5 2.7803 0.0000
2 11 6 0.6302 0.0000
2 11 7 0.5635 0.0000
2 11 8 0.0921 0.0000
2 11 9 -0.9858 0.0000
2 11 10 0.0842 0.0000
2 11 11 0.6335 0.0000
2 11 12 1.4099 0.0000
2 11 13 -2.0586 0.0000
2 11 14 -0.9484 0.0000
2 11 15 0.4525 0.0000
2 11 16 0.3830 0.0000
2 11 17 -1.0740 0.0000
2 11 18 0.7491 0.0000
2 12 0 1.0801 0.0000
2 12 1 0.3041 0.0000
2 12 2 -2.4669 0.0000
2 12 3 -4.7386 0.0000
2 12 4 1.3916 0.0000
2 12 5 7.6684 0.0000
2 12 6 2.2447 0.0000
2 12 7 -6.4797 0.0000
2 12 8 0.3948 0.0000
2 12 9 2.1259 0.0000
2 12 10 -1.2398 0.0000
2 12 11 0.0870 0.0000
2 12 12 -0.0933 0.0000
2 12 13 -1.3435 0.0000
2 12 14 -1.2807 0.0000
2 12 15 1.2680 0.0000
2 12 16 0.1808 0.0000
2 12 17 0.7565 0.0000
2 13 0 0.7573 0.0000
2 13 1 -4.8743 0.0000
2 13 2 -0.2359 0.0000
2 13 3 3.1733 0.0000
2 13 4 3.9809 0.0000
2 13 5 -0.1124 0.0000
2 13 6 -1.2481 0.0000
2 13 7 -0.6017 0.0000
2 13 8 -1.3127 0.0000
2 13 9 1.3798 0.0000
2 13 10 -1.0646 0.0000
2 13 11 -1.7790 0.0000
2 13 12 0.5928 0.0000
2 13 13 0.5756 0.0000
2 13 14 -0.6851 0.0000
2 13 15 0.3171 0.0000
2 13 16 1.3271 0.0000
2 13 17 -0.5610 0.0000
2 14 0 1.3557 0.0000
2 14 1 0.8744 0.0000
2 14 2 -0.8886 0.0000
2 14 3 -1.2583 0.0000
2 14 4 2.3846 0.0000
2 14 5 6.3501 0.0000
2 14 8 1.6155 0.0000
2 14 9 2.0681 0.0000
2 14 10 -1.3610 0.0000
2 14 11 -0.5825 0.0000
2 14 12 0.8962 0.0000
2 14 13 -0.2332 0.0000
2 14 14 0.6194 0.0000
2 14 15 0.0175 0.0000
2 14 16 -0.2043 0.0000
2 15 0 -1.9256 0.0000
2 15 1 -4.9592 0.0000
2 15 2 1.8639 0.0000
2 15 3 5.1147 0.0000
2 15 4 0.1013 0.0000
2 15 5 -3.4754 0.0000
2 15 6 -0.3848 0.0000
2 15 7 -1.6288 0.0000
2 15 8 0.0155 0.0000
2 15 9 2.1008 0.0000
2 15 10 -0.1430 0.0000
2 15 11 -1.8286 0.0000
2 15 12 0.7720 0.0000
2 15 13 -0.2342 0.0000
2 15 14 -1.1898 0.0000
2 15 15 2.1505 0.0000
2 16 0 2.4417 0.0000
2 16 1 -0.7823 0.0000
2 16 2 -1.8911 0.0000
2 16 4 1.7072 0.0000
2 16 5 0.3764 0.0000
2 16 6 -2.8395 0.0000
2 16 7 0.4931 0.0000
2 16 8 1.2718 0.0000
2 16 9 -1.1462 0.0000
2 16 10 -1.7274 0.0000
2 16 11 0.9101 0.0000
2 16 12 -0.0191 0.0000
2 16 13 -0.3018 0.0000
2 16 14 -0.9636 0.0000
2 17 0 -3.7734 0.0000
2 17 1 -2.7491 0.0000
2 17 2 0.5279 0.0000
2 17 3 2.6183 0.0000
2 17 4 -0.0477 0.0000
2 17 6 0.2243 0.0000
2 17 7 -2.5236 0.0000
2 17 8 0.3650 0.0000
2 17 9 1.6617 0.0000
2 17 10 -1.4836 0.0000
2 17 11 -2.5714 0.0000
2 17 12 0.9041 0.0000
2 17 13 0.2728 0.0000
2 18 0 1.1213 0.0000
2 18 1 -2.3543 0.0000
2 18 2 -0.0710 0.0000
2 18 3 1.5707 0.0000
2 18 4 1.5393 0.0000
2 18 6 -0.6697 0.0000
2 18 7 -0.2244 0.0000
2 18 8 -1.7515 0.0000
2 18 9 0.4071 0.0000
2 18 10 0.1140 0.0000
2 18 11 0.2335 0.0000
2 18 12 0.6106 0.0000
2 19 1 -1.4860 0.0000
2 19 2 1.3537 0.0000
2 19 3 2.8123 0.0000
2 19 4 0.3038 0.0000
2 19 5 0.5125 0.0000
2 19 6 -1.5918 0.0000
2 19 7 -2.4033 0.0000
2 19 8 2.0695 0.0000
2 19 9 1.5599 0.0000
2 19 10 0.0332 0.0000
2 20 0 -0.6307 0.0000
2 20 1 -1.2446 0.0000
2 20 2 2.3568 0.0000
2 20 3 2.5886 0.0000
2 20 4 -0.8012 0.0000
2 20 5 -2.1126 0.0000
2 20 6 0.9632 0.0000
2 20 7 0.8969 0.0000
2 20 8 0.3554 0.0000
2 20 9 0.9606 0.0000
2 21 0 -1.4790 0.0000
2 21 1 2.3200 0.0000
2 21 2 0.1710 0.0000
2 21 3 0.3604 0.0000
2 21 4 1.2705 0.0000
2 21 5 -0.1172 0.0000
2 21 6 -1.9332 0.0000
2 21 7 0.7556 0.0000
2 21 8 1.6739 0.0000
2 22 0 0.1131 0.0000
2 22 1 0.6863 0.0000
2 22 2 3.0918 0.0000
2 22 3 -0.9077 0.0000
2 22 4 -1.5050 0.0000
2 22 5 0.9766 0.0000
2 22 6 0.7757 0.0000
2 23 0 1.8798 0.0000
2 23 1 1.2605 0.0000
2 23 2 -1.4109 0.0000
2 23 3 1.0576 0.0000
2 23 4 0.2218 0.0000
3 0 0 -9.9212 0.0000
3 0 4 -3.8455 0.0000
3 0 6 -14.0024 0.0000
3 0 8 14.1634 0.0000
3 0 10 -10.4900 0.0000
3 0 12 4.1086 0.0000
3 0 14 -1.3718 0.0000
3 0 16 1.0509 0.0000
3 0 18 3.9139 0.0000
3 0 20 -1.0300 0.0000
3 1 0 11.9844 0.0000
3 1 1 10.2593 0.0000
3 1 2 -5.0298 0.0000
3 1 3 1.6629 0.0000
3 1 4 -9.6323 0.0000
3 1 5 -2.4253 0.0000
3 1 6 7.1291 0.0000
3 1 7 -0.7547 0.0000
3 1 8 -1.9640 0.0000
3 1 9 -0.1259 0.0000
3 1 10 0.7922 0.0000
3 1 11 -0.3288 0.0000
3 1 12 1.8376 0.0000
3 1 13 -2.1348 0.0000
3 1 14 -1.2414 0.0000
3 1 15 1.9023 0.0000
3 1 16 1.5765 0.0000
3 1 17 0.8619 0.0000
3 1 18 -0.7971 0.0000
3 1 19 1.8587 0.0000
3 1 20 -0.6296 0.0000
3 2 0 -27.1302 0.0000
3 2 1 6.2273 0.0000
3 2 2 9.6942 0.0000
3 2 3 -9.6743 0.0000
3 2 4 4.2987 0.0000
3 2 5 -4.8939 0.0000
3 2 6 -7.7593 0.0000
3 2 7 7.3534 0.0000
3 2 8 8.6735 0.0000
3 2 10 -6.7466 0.0000
3 2 11 3.2256 0.0000
3 2 12 0.7536 0.0000
3 2 13 -1.1197 0.0000
3 2 14 -0.7315 0.0000
3 2 15 1.4591 0.0000
3 2 16 0.0330 0.0000
3 2 17 0.6390 0.0000
3 2 18 1.7381 0.0000
3 2 19 -1.8371 0.0000
3 2 20 -0.5746 0.0000
3 3 0 -5.2768 0.0000
3 3 1 -11.1304 0.0000
3 3 2 14.5916 0.0000
3 3 3 -3.1681 0.0000
3 3 4 -16.4455 0.0000
3 3 5 10.4532 0.0000
3 3 6 7.3335 0.0000
3 3 7 -5.8024 0.0000
3 3 8 -3.3053 0.0000
3 3 9 1.4624 0.0000
3 3 10 -0.4857 0.0000
3 3 11 0.8903 0.0000
3 3 12 1.5115 0.0000
3 3 13 -4.2993 0.0000
3 3 14 -0.9001 0.0000
3 3 15 2.6939 0.0000
3 3 16 1.8643 0.0000
3 3 17 -0.9859 0.0000
3 3 18 -0.7353 0.0000
3 3 19 0.7894 0.0000
3 3 20 -1.0991 0.0000
3 4 0 -8.7604 0.0000
3 4 1 5.8239 0.0000
3 4 2 -1.4954 0.0000
3 4 3 5.4254 0.0000
3 4 4 0.6225 0.0000
3 4 5 -7.7933 0.0000
3 4 6 0.6999 0.0000
3 4 7 3.5112 0.0000
3 4 8 0.6700 0.0000
3 4 9 -2.0482 0.0000
3 4 10 -0.5959 0.0000
3 4 11 0.2901 0.0000
3 4 12 -0.2356 0.0000
3 4 13 -0.2975 0.0000
3 4 14 0.5478 0.0000
3 4 15 1.6949 0.0000
3 4 16 0.2590 0.0000
3 4 17 -0.5390 0.0000
3 4 18 -0.1945 0.0000
3 4 19 0.1632 0.0000
3 5 0 -16.4985 0.0000
3 5 1 15.3290 0.0000
3 5 2 16.9176 0.0000
3 5 3 -16.3910 0.0000
3 5 4 -9.4234 0.0000
3 5 5 11.3308 0.0000
3 5 6 2.9316 0.0000
3 5 7 -5.7163 0.0000
3 5 8 -0.4206 0.0000
3 5 9 2.1897 0.0000
3 5 10 1.0062 0.0000
3 5 11 1.6393 0.0000
3 5 12 0.3703 0.0000
3 5 13 -1.9881 0.0000
3 5 14 -0.8198 0.0000
3 5 15 2.4239 0.0000
3 5 16 2.2764 0.0000
3 5 17 -0.8056 0.0000
3 5 18 -1.4668 0.0000
3 5 19 0.1961 0.0000
3 6 0 2.7422 0.0000
3 6 1 -4.6280 0.0000
3 6 2 4.5059 0.0000
3 6 3 3.0810 0.0000
3 6 4 -5.3018 0.0000
3 6 5 -0.5983 0.0000
3 6 6 3.0253 0.0000
3 6 7 -2.3239 0.0000
3 6 8 0.9721 0.0000
3 6 9 5.1938 0.0000
3 6 10 0.0852 0.0000
3 6 11 -1.7203 0.0000
3 6 12 -0.6155 0.0000
3 6 13 0.3775 0.0000
3 6 14 1.0552 0.0000
3 6 15 0.9172 0.0000
3 6 16 -0.4923 0.0000
3 6 17 -1.2041 0.0000
3 6 18 0.1410 0.0000
3 6 19 0.1954 0.0000
3 7 0 -1.1556 0.0000
3 7 1 11.7641 0.0000
3 7 2 3.1066 0.0000
3 7 3 -10.5845 0.0000
3 7 4 -4.3024 0.0000
3 7 5 5.5176 0.0000
3 7 6 2.3028 0.0000
3 7 7 -0.3826 0.0000
3 7 8 0.4372 0.0000
3 7 9 1.5570 0.0000
3 7 10 0.6222 0.0000
3 7 11 -1.3516 0.0000
3 7 12 -0.6380 0.0000
3 7 13 -1.1826 0.0000
3 7 14 -0.7981 0.0000
3 7 15 1.8544 0.0000
3 7 16 1.0828 0.0000
3 7 17 -2.5088 0.0000
3 7 18 -2.0695 0.0000
3 7 19 0.7941 0.0000
3 8 0 -0.8340 0.0000
3 8 1 -4.9840 0.0000
3 8 2 1.5310 0.0000
3 8 3 1.3435 0.0000
3 8 4 -2.8891 0.0000
3 8 5 1.3037 0.0000
3 8 6 0.9763 0.0000
3 8 7 -2.5111 0.0000
3 8 8 1.8315 0.0000
3 8 9 3.6819 0.0000
3 8 10 -1.9155 0.0000
3 8 11 -4.3049 0.0000
3 8 12 -0.9620 0.0000
3 8 13 0.9831 0.0000
3 8 14 0.9074 0.0000
3 8 15 0.1050 0.0000
3 8 16 -1.3247 0.0000
3 8 17 -2.1364 0.0000
3 8 18 0.2546 0.0000
3 9 0 -1.5958 0.0000
3 9 1 9.0264 0.0000
3 9 2 2.3028 0.0000
3 9 3 -7.3506 0.0000
3 9 4 -4.6542 0.0000
3 9 5 3.1945 0.0000
3 9 6 4.0161 0.0000
3 9 7 -1.0622 0.0000
3 9 8 -1.1486 0.0000
3 9 9 -0.1496 0.0000
3 9 10 -1.8794 0.0000
3 9 11 -2.2521 0.0000
3 9 12 1.6801 0.0000
3 9 13 1.6325 0.0000
3 9 14 -1.8944 0.0000
3 9 15 0.0521 0.0000
3 9 16 -0.0134 0.0000
3 9 17 -1.6371 0.0000
3 9 18 0.2397 0.0000
3 10 0 2.7506 0.0000
3 10 1 -3.9021 0.0000
3 10 2 1.8597 0.0000
3 10 3 -1.6762 0.0000
3 10 4 -2.9667 0.0000
3 10 5 2.0753 0.0000
3 10 6 1.9700 0.0000
3 10 7 -3.5509 0.0000
3 10 8 -0.2326 0.0000
3 10 9 3.8646 0.0000
3 10 10 -2.3788 0.0000
3 10 11 -2.4991 0.0000
3 10 12 1.8944 0.0000
3 10 13 1.9900 0.0000
3 10 14 -0.5985 0.0000
3 10 15 -2.0862 0.0000
3 10 16 -0.7268 0.0000
3 10 17 1.2640 0.0000
3 10 18 2.1032 0.0000
3 11 0 6.6401 0.0000
3 11 1 3.4607 0.0000
3 11 2 -3.6125 0.0000
3 11 3 -3.8670 0.0000
3 11 4 -1.6727 0.0000
3 11 5 2.1682 0.0000
3 11 6 1.4047 0.0000
3 11 7 0.9281 0.0000
3 11 8 -0.8803 0.0000
3 11 9 -0.5542 0.0000
3 11 10 0.0493 0.0000
3 11 11 0.1330 0.0000
3 11 12 2.2004 0.0000
3 11 13 -0.6852 0.0000
3 11 14 -2.5817 0.0000
3 11 15 0.0013 0.0000
3 11 16 1.0488 0.0000
3 11 17 0.8105 0.0000
3 12 0 1.1118 0.0000
3 12 1 -2.8543 0.0000
3 12 2 -3.1001 0.0000
3 12 3 -2.9171 0.0000
3 12 4 -0.4779 0.0000
3 12 5 5.2866 0.0000
3 12 6 2.4402 0.0000
3 12 7 -4.7307 0.0000
3 12 8 0.2571 0.0000
3 12 9 2.2655 0.0000
3 12 10 -0.5334 0.0000
3 12 11 -0.6239 0.0000
3 12 12 0.2801 0.0000
3 12 13 -1.2753 0.0000
3 12 14 -1.8262 0.0000
3 12 15 0.8168 0.0000
3 12 16 2.5195 0.0000
3 12 17 0.8313 0.0000
3 13 0 3.4782 0.0000
3 13 1 -4.5737 0.0000
3 13 2 -2.9189 0.0000
3 13 3 1.8416 0.0000
3 13 4 1.8567 0.0000
3 13 5 -1.3388 0.0000
3 13 6 1.7978 0.0000
3 13 7 1.0410 0.0000
3 13 8 -2.5059 0.0000
3 13 9 0.0267 0.0000
3 13 10 -0.2252 0.0000
3 13 11 -0.9680 0.0000
3 13 12 -0.0522 0.0000
3 13 13 0.3074 0.0000
3 13 14 -1.1134 0.0000
3 13 15 1.1591 0.0000
3 13 16 2.2777 0.0000
3 14 0 2.1429 0.0000
3 14 1 -1.3190 0.0000
3 14 2 -4.1480 0.0000
3 14 3 -0.9618 0.0000
3 14 5 5.0109 0.0000
3 14 6 -3.8163 0.0000
3 14 7 -4.8508 0.0000
3 14 8 0.9420 0.0000
3 14 9 1.9946 0.0000
3 14 10 -0.4133 0.0000
3 14 11 -1.5512 0.0000
3 14 12 0.1993 0.0000
3 14 13 0.5753 0.0000
3 14 14 1.4452 0.0000
3 14 15 0.7441 0.0000
3 14 16 0.6109 0.0000
3 15 0 -1.3369 0.0000
3 15 1 -5.1166 0.0000
3 15 2 1.5046 0.0000
3 15 3 4.0163 0.0000
3 15 4 -1.3980 0.0000
3 15 5 -2.9940 0.0000
3 15 6 1.2351 0.0000
3 15 7 -1.1549 0.0000
3 15 8 -1.2844 0.0000
3 15 9 1.5348 0.0000
3 15 10 0.3079 0.0000
3 15 11 -0.6191 0.0000
3 15 12 0.6125 0.0000
3 15 13 0.8173 0.0000
3 15 14 0.0252 0.0000
3 15 15 1.6208 0.0000
3 16 0 2.5174 0.0000
3 16 1 -2.9743 0.0000
3 16 2 -3.7342 0.0000
3 16 3 1.7169 0.0000
3 16 4 2.0933 0.0000
3 16 5 -1.7577 0.0000
3 16 6 -2.2623 0.0000
3 16 7 1.2071 0.0000
3 16 8 0.2028 0.0000
3 16 9 -0.1885 0.0000
3 16 10 0.6900 0.0000
3 16 12 0.5983 0.0000
3 16 13 0.3822 0.0000
3 16 14 -0.7738 0.0000
3 17 0 -3.6549 0.0000
3 17 1 -2.6357 0.0000
3 17 2 1.1674 0.0000
3 17 3 1.4753 0.0000
3 17 4 -0.7557 0.0000
3 17 5 -0.9746 0.0000
3 17 6 0.4448 0.0000
3 17 7 -0.2560 0.0000
3 17 8 0.8643 0.0000
3 17 9 0.1806 0.0000
3 17 10 -0.8856 0.0000
3 17 11 -0.4881 0.0000
3 17 12 -0.2196 0.0000
3 17 13 0.7720 0.0000
3 18 0 -0.3630 0.0000
3 18 1 -1.2634 0.0000
3 18 2 -0.8765 0.0000
3 18 3 2.2139 0.0000
3 18 4 0.3717 0.0000
3 18 5 -0.2247 0.0000
3 18 6 1.2135 0.0000
3 18 7 -0.6714 0.0000
3 18 8 -2.1546 0.0000
3 18 9 1.4331 0.0000
3 18 10 0.0544 0.0000
3 18 11 -0.9907 0.0000
3 19 0 -2.9173 0.0000
3 19 1 -1.4355 0.0000
3 19 2 3.5046 0.0000
3 19 3 1.3223 0.0000
3 19 4 0.5611 0.0000
3 19 5 -0.0514 0.0000
3 19 6 -0.8564 0.0000
3 19 7 -0.6133 0.0000
3 19 8 -0.0707 0.0000
3 19 9 0.1439 0.0000
3 20 0 -0.3745 0.0000
3 20 1 0.3770 0.0000
3 20 2 2.2326 0.0000
3 20 3 2.8029 0.0000
3 20 4 -2.5665 0.0000
3 20 5 -0.4372 0.0000
3 20 6 1.3853 0.0000
3 20 7 -1.1091 0.0000
3 20 8 0.0732 0.0000
3 21 0 -3.2310 0.0000
3 21 1 2.8861 0.0000
3 21 2 1.9476 0.0000
3 21 3 -0.5791 0.0000
3 21 4 1.4386 0.0000
3 21 5 -1.5457 0.0000
3 21 6 -1.6142 0.0000
3 21 7 0.7264 0.0000
3 22 0 0.2000 0.0000
3 22 1 2.7404 0.0000
3 22 2 2.9873 0.0000
3 22 3 -1.7721 0.0000
3 22 4 -2.9888 0.0000
3 22 5 2.1897 0.0000
3 23 0 0.3048 0.0000
3 23 1 1.9375 0.0000
3 23 2 0.1847 0.0000
4 0 0 -8.3320 0.0000
4 0 4 -10.6456 0.0000
4 0 6 -5.0269 0.0000
4 0 8 6.0032 0.0000
4 0 10 -4.3132 0.0000
4 0 12 2.3631 0.0000
4 0 14 -1.6883 0.0000
4 0 16 2.5899 0.0000
4 0 18 0.6385 0.0000
4 1 0 12.2861 0.0000
4 1 1 0.2134 0.0000
4 1 2 -2.7880 0.0000
4 1 3 4.3817 0.0000
4 1 4 -7.2563 0.0000
4 1 5 -2.3251 0.0000
4 1 6 4.1975 0.0000
4 1 7 -4.6052 0.0000
4 1 8 0.0672 0.0000
4 1 9 4.6806 0.0000
4 1 10 0.1831 0.0000
4 1 11 -2.0581 0.0000
4 1 12 -0.1315 0.0000
4 1 13 -1.0139 0.0000
4 1 14 1.5451 0.0000
4 1 15 2.5200 0.0000
4 1 16 0.2519 0.0000
4 1 17 -0.9021 0.0000
4 1 18 -0.0128 0.0000
4 1 19 0.7774 0.0000
4 2 0 -15.8167 0.0000
4 2 1 4.1233 0.0000
4 2 2 8.3399 0.0000
4 2 3 -5.4501 0.0000
4 2 4 -5.1260 0.0000
4 2 5 -4.2036 0.0000
4 2 6 0.1716 0.0000
4 2 7 5.5898 0.0000
4 2 8 3.1760 0.0000
4 2 9 -1.5541 0.0000
4 2 10 -3.9898 0.0000
4 2 11 -1.0871 0.0000
4 2 12 2.6255 0.0000
4 2 13 1.2541 0.0000
4 2 14 -1.5079 0.0000
4 2 15 0.9825 0.0000
4 2 16 0.8559 0.0000
4 2 17 0.3041 0.0000
4 2 18 -1.3288 0.0000
4 2 19 -1.1864 0.0000
4 3 0 -2.6049 0.0000
4 3 1 -13.9984 0.0000
4 3 2 5.9070 0.0000
4 3 3 -1.3740 0.0000
4 3 4 -7.1053 0.0000
4 3 5 5.3817 0.0000
4 3 6 3.5071 0.0000
4 3 7 -4.5545 0.0000
4 3 8 -0.9062 0.0000
4 3 9 2.6325 0.0000
4 3 10 -0.8539 0.0000
4 3 11 -1.4846 0.0000
4 3 12 -1.2317 0.0000
4 3 13 0.8608 0.0000
4 3 14 1.2693 0.0000
4 3 15 -0.1438 0.0000
4 3 16 -0.4504 0.0000
4 3 17 -0.7392 0.0000
4 3 18 0.1283 0.0000
4 3 19 -1.0873 0.0000
4 4 0 -8.6183 0.0000
4 4 1 -5.5448 0.0000
4 4 2 4.6598 0.0000
4 4 3 8.0371 0.0000
4 4 4 -6.6454 0.0000
4 4 5 -6.0599 0.0000
4 4 6 3.6839 0.0000
4 4 7 3.9543 0.0000
4 4 8 -0.2639 0.0000
4 4 9 -2.3266 0.0000
4 4 10 -3.1649 0.0000
4 4 11 -0.8965 0.0000
4 4 12 3.8100 0.0000
4 4 13 -0.0061 0.0000
4 4 14 -1.1350 0.0000
4 4 15 0.3671 0.0000
4 4 16 1.0262 0.0000
4 4 17 -0.6857 0.0000
4 4 18 -1.7127 0.0000
4 4 19 0.3359 0.0000
4 5 0 -9.4561 0.0000
4 5 1 4.4558 0.0000
4 5 2 6.9414 0.0000
4 5 3 -4.7067 0.0000
4 5 4 -5.1190 0.0000
4 5 5 3.0079 0.0000
4 5 6 4.9170 0.0000
4 5 7 -2.8323 0.0000
4 5 8 -3.1419 0.0000
4 5 9 1.4996 0.0000
4 5 10 1.7761 0.0000
4 5 11 -0.7449 0.0000
4 5 12 -0.3686 0.0000
4 5 13 2.0526 0.0000
4 5 14 -0.8540 0.0000
4 5 15 0.0726 0.0000
4 5 16 2.0086 0.0000
4 5 17 0.1943 0.0000
4 5 18 -1.6038 0.0000
4 5 19 -0.6561 0.0000
4 6 0 -6.0981 0.0000
4 6 1 -3.3014 0.0000
4 6 2 9.8602 0.0000
4 6 3 2.5350 0.0000
4 6 4 -8.1448 0.0000
4 6 5 -1.4319 0.0000
4 6 6 4.3923 0.0000
4 6 7 1.7171 0.0000
4 6 8 -0.9174 0.0000
4 6 9 0.1524 0.0000
4 6 10 -0.3522 0.0000
4 6 11 0.4276 0.0000
4 6 12 1.5969 0.0000
4 6 13 0.4502 0.0000
4 6 14 0.5155 0.0000
4 6 15 0.4630 0.0000
4 6 16 0.1728 0.0000
4 6 17 -0.4339 0.0000
4 6 18 -0.9961 0.0000
4 7 0 2.6276 0.0000
4 7 1 4.9563 0.0000
4 7 2 1.1319 0.0000
4 7 3 -6.2660 0.0000
4 7 4 -4.6480 0.0000
4 7 5 5.1056 0.0000
4 7 6 6.4634 0.0000
4 7 7 -3.2080 0.0000
4 7 8 -3.7402 0.0000
4 7 9 2.9206 0.0000
4 7 10 2.4484 0.0000
4 7 11 -1.3190 0.0000
4 7 12 -0.6039 0.0000
4 7 13 0.9334 0.0000
4 7 14 -0.6724 0.0000
4 7 15 0.9224 0.0000
4 7 16 1.2700 0.0000
4 7 17 -2.2328 0.0000
4 7 18 -1.6732 0.0000
4 8 0 -1.1307 0.0000
4 8 1 -4.1501 0.0000
4 8 2 0.6614 0.0000
4 8 3 3.2825 0.0000
4 8 4 -2.3696 0.0000
4 8 5 -1.2799 0.0000
4 8 6 1.9924 0.0000
4 8 7 1.0296 0.0000
4 8 8 -1.1863 0.0000
4 8 9 0.8602 0.0000
4 8 10 0.7770 0.0000
4 8 11 -2.4676 0.0000
4 8 12 -0.5627 0.0000
4 8 13 1.1601 0.0000
4 8 14 1.1240 0.0000
4 8 15 -1.0126 0.0000
4 8 16 -1.0299 0.0000
4 8 17 -1.2477 0.0000
4 8 18 -1.3073 0.0000
4 9 0 3.1901 0.0000
4 9 1 4.8458 0.0000
4 9 2 -2.2173 0.0000
4 9 3 -5.6695 0.0000
4 9 4 -0.6334 0.0000
4 9 5 4.7177 0.0000
4 9 6 3.1139 0.0000
4 9 7 -3.7099 0.0000
4 9 8 -2.1763 0.0000
4 9 9 1.9226 0.0000
4 9 10 0.2974 0.0000
4 9 11 -1.7515 0.0000
4 9 12 -0.0536 0.0000
4 9 13 1.5827 0.0000
4 9 14 -0.8894 0.0000
4 9 15 0.4011 0.0000
4 9 16 -1.1093 0.0000
4 9 17 -1.9342 0.0000
4 10 1 -4.9908 0.0000
4 10 2 1.5349 0.0000
4 10 3 2.8786 0.0000
4 10 4 -2.0963 0.0000
4 10 5 -0.8484 0.0000
4 10 6 1.6501 0.0000
4 10 7 -0.6630 0.0000
4 10 8 -0.5853 0.0000
4 10 9 2.5802 0.0000
4 10 10 -0.5387 0.0000
4 10 11 -2.9324 0.0000
4 10 12 1.4331 0.0000
4 10 13 3.3488 0.0000
4 10 14 -0.2779 0.0000
4 10 15 -3.5249 0.0000
4 10 16 -0.1672 0.0000
4 10 17 0.8663 0.0000
4 11 0 6.5598 0.0000
4 11 1 1.9749 0.0000
4 11 2 -4.2403 0.0000
4 11 3 -2.3627 0.0000
4 11 4 0.9600 0.0000
4 11 5 1.5618 0.0000
4 11 6 1.4084 0.0000
4 11 7 0.2607 0.0000
4 11 8 -0.4717 0.0000
4 11 9 0.2653 0.0000
4 11 10 0.7749 0.0000
4 11 11 0.8769 0.0000
4 11 12 0.9210 0.0000
4 11 13 -0.1682 0.0000
4 11 14 -0.7424 0.0000
4 11 15 -0.9215 0.0000
4 11 16 -1.2358 0.0000
4 11 17 1.6951 0.0000
4 12 0 0.4133 0.0000
4 12 1 -4.0050 0.0000
4 12 2 -1.9333 0.0000
4 12 3 0.7970 0.0000
4 12 4 0.4502 0.0000
4 12 5 1.9850 0.0000
4 12 6 1.1590 0.0000
4 12 7 -0.2346 0.0000
4 12 8 0.5117 0.0000
4 12 9 1.4877 0.0000
4 12 10 0.1969 0.0000
4 12 11 -0.7929 0.0000
4 12 12 0.7754 0.0000
4 12 13 -0.0574 0.0000
4 12 14 -2.7580 0.0000
4 12 15 -0.4232 0.0000
4 12 16 2.4401 0.0000
4 13 0 1.7685 0.0000
4 13 1 -1.6021 0.0000
4 13 2 -2.6715 0.0000
4 13 3 1.1440 0.0000
4 13 4 1.3327 0.0000
4 13 5 -0.2694 0.0000
4 13 6 3.3545 0.0000
4 13 7 1.8956 0.0000
4 13 8 -1.8974 0.0000
4 13 9 -1.6304 0.0000
4 13 10 1.1687 0.0000
4 13 11 0.9166 0.0000
4 13 12 -1.6257 0.0000
4 13 13 -1.1049 0.0000
4 13 14 -0.0674 0.0000
4 13 15 -0.1829 0.0000
4 14 0 1.0863 0.0000
4 14 1 -2.8389 0.0000
4 14 2 -2.2946 0.0000
4 14 3 1.8461 0.0000
4 14 4 4.5682 0.0000
4 14 5 1.7205 0.0000
4 14 6 -2.1663 0.0000
4 14 7 -0.7915 0.0000
4 14 8 0.1136 0.0000
4 14 9 0.8388 0.0000
4 14 10 -0.3657 0.0000
4 14 11 -1.6343 0.0000
4 14 12 -0.0896 0.0000
4 14 13 0.4552 0.0000
4 14 14 0.2761 0.0000
4 14 15 0.9031 0.0000
4 15 0 -1.2828 0.0000
4 15 1 0.9199 0.0000
4 15 2 0.9269 0.0000
4 15 3 1.6581 0.0000
4 15 4 -1.3289 0.0000
4 15 5 0.2673 0.0000
4 15 6 2.5091 0.0000
4 15 7 -0.6456 0.0000
4 15 8 -2.6769 0.0000
4 15 9 -0.9221 0.0000
4 15 10 2.3601 0.0000
4 15 12 -1.6440 0.0000
4 15 13 0.3565 0.0000
4 15 14 1.6355 0.0000
4 16 0 0.7466 0.0000
4 16 1 -3.0077 0.0000
4 16 2 -0.1024 0.0000
4 16 3 1.3037 0.0000
4 16 4 2.1321 0.0000
4 16 5 -1.6216 0.0000
4 16 6 -0.5166 0.0000
4 16 7 0.3779 0.0000
4 16 8 -1.2140 0.0000
4 16 9 0.8871 0.0000
4 16 11 0.1037 0.0000
4 16 12 0.4717 0.0000
4 16 13 0.1236 0.0000
4 17 0 -0.6733 0.0000
4 17 1 0.3291 0.0000
4 17 2 -0.5285 0.0000
4 17 3 0.9094 0.0000
4 17 4 -1.3953 0.0000
4 17 5 1.1130 0.0000
4 17 6 0.7833 0.0000
4 17 7 -0.0566 0.0000
4 17 8 -1.0412 0.0000
4 17 9 -0.3304 0.0000
4 17 10 2.7183 0.0000
4 17 11 -0.1186 0.0000
4 17 12 -1.8604 0.0000
4 18 0 -2.1572 0.0000
4 18 1 0.2032 0.0000
4 18 2 -0.7044 0.0000
4 18 3 0.2520 0.0000
4 18 4 3.2238 0.0000
4 18 5 -0.5825 0.0000
4 18 6 -0.3902 0.0000
4 18 7 -1.2151 0.0000
4 18 8 0.4135 0.0000
4 18 9 1.9933 0.0000
4 18 10 -0.9075 0.0000
4 19 0 -1.8689 0.0000
4 19 1 -0.7378 0.0000
4 19 2 3.4558 0.0000
4 19 3 0.7805 0.0000
4 19 4 -1.3248 0.0000
4 19 6 -0.5361 0.0000
4 19 7 -0.8623 0.0000
4 19 8 -1.1416 0.0000
4 20 0 -1.3425 0.0000
4 20 1 0.7134 0.0000
4 20 2 1.7442 0.0000
4 20 3 2.1079 0.0000
4 20 4 -0.7899 0.0000
4 20 5 -2.7768 0.0000
4 20 6 1.5722 0.0000
4 20 7 -0.0068 0.0000
4 21 0 -2.5164 0.0000
4 21 1 1.9862 0.0000
4 21 2 2.2446 0.0000
4 21 3 -1.4849 0.0000
4 21 4 -0.5859 0.0000
4 21 5 0.6948 0.0000
4 22 0 -1.5321 0.0000
4 22 1 2.8913 0.0000
4 22 2 1.2375 0.0000
4 22 3 -2.1696 0.0000
5 0 2 22.1472 0.0000
5 0 8 -1.5593 0.0000
5 0 10 -0.9202 0.0000
5 0 12 2.7880 0.0000
5 0 14 -3.9297 0.0000
5 0 16 2.5863 0.0000
5 0 18 -0.2476 0.0000
5 1 0 13.8066 0.0000
5 1 1 1.7311 0.0000
5 1 2 -3.1049 0.0000
5 1 3 3.4432 0.0000
5 1 4 -4.5647 0.0000
5 1 5 -4.5437 0.0000
5 1 6 3.3545 0.0000
5 1 7 -0.2387 0.0000
5 1 8 -1.3267 0.0000
5 1 9 2.4339 0.0000
5 1 10 2.2864 0.0000
5 1 11 -0.8489 0.0000
5 1 12 -1.6586 0.0000
5 1 13 -0.8835 0.0000
5 1 14 1.9860 0.0000
5 1 15 1.1000 0.0000
5 1 16 0.3977 0.0000
5 1 17 -1.1522 0.0000
5 1 18 0.4813 0.0000
5 2 0 -3.5821 0.0000
5 2 1 8.2846 0.0000
5 2 3 -9.6673 0.0000
5 2 4 -11.0219 0.0000
5 2 5 2.8037 0.0000
5 2 6 7.7440 0.0000
5 2 7 0.5592 0.0000
5 2 8 -1.8184 0.0000
5 2 9 -0.0148 0.0000
5 2 10 -0.2346 0.0000
5 2 11 0.4009 0.0000
5 2 12 1.4029 0.0000
5 2 13 -0.4703 0.0000
5 2 14 -1.2323 0.0000
5 2 15 1.8051 0.0000
5 2 16 0.4619 0.0000
5 2 17 0.0887 0.0000
5 2 18 -1.5250 0.0000
5 3 0 7.6752 0.0000
5 3 1 -10.3301 0.0000
5 3 2 -5.4295 0.0000
5 3 3 -0.7960 0.0000
5 3 4 0.7625 0.0000
5 3 5 2.4663 0.0000
5 3 6 1.7738 0.0000
5 3 7 -2.3013 0.0000
5 3 8 -2.0619 0.0000
5 3 9 4.0730 0.0000
5 3 10 1.7446 0.0000
5 3 11 -3.2914 0.0000
5 3 12 -2.3338 0.0000
5 3 13 2.1826 0.0000
5 3 14 1.7553 0.0000
5 3 15 -0.8311 0.0000
5 3 16 -1.0977 0.0000
5 3 17 -1.1044 0.0000
5 3 18 0.3359 0.0000
5 4 0 -1.3980 0.0000
5 4 1 -5.2847 0.0000
5 4 2 1.0283 0.0000
5 4 3 1.7425 0.0000
5 4 4 -3.8916 0.0000
5 4 5 1.2336 0.0000
5 4 6 3.3075 0.0000
5 4 7 0.1344 0.0000
5 4 8 -0.4692 0.0000
5 4 9 -1.3101 0.0000
5 4 10 -1.0136 0.0000
5 4 11 -0.1237 0.0000
5 4 12 1.3443 0.0000
5 4 13 0.2978 0.0000
5 4 14 -0.4250 0.0000
5 4 15 -0.9273 0.0000
5 4 16 -0.3969 0.0000
5 4 17 -0.0558 0.0000
5 4 18 -0.8031 0.0000
5 5 0 1.0928 0.0000
5 5 1 -5.2225 0.0000
5 5 2 -3.7014 0.0000
5 5 3 4.4812 0.0000
5 5 4 2.8459 0.0000
5 5 5 -1.3606 0.0000
5 5 6 1.3881 0.0000
5 5 7 -1.4752 0.0000
5 5 8 -2.3240 0.0000
5 5 9 2.8850 0.0000
5 5 10 1.6530 0.0000
5 5 11 -2.3621 0.0000
5 5 12 -0.5790 0.0000
5 5 13 1.5690 0.0000
5 5 14 0.1400 0.0000
5 5 15 -0.4500 0.0000
5 5 16 0.3000 0.0000
5 5 17 -0.5277 0.0000
5 5 18 0.0566 0.0000
5 6 0 -6.8010 0.0000
5 6 1 -0.6440 0.0000
5 6 2 7.2972 0.0000
5 6 3 1.7992 0.0000
5 6 4 -3.5285 0.0000
5 6 5 -1.1198 0.0000
5 6 6 1.4769 0.0000
5 6 7 2.3015 0.0000
5 6 8 -0.0739 0.0000
5 6 9 -1.4591 0.0000
5 6 10 0.0690 0.0000
5 6 11 0.8420 0.0000
5 6 12 0.6842 0.0000
5 6 13 1.5460 0.0000
5 6 14 -0.3235 0.0000
5 6 15 -1.2603 0.0000
5 6 16 0.0683 0.0000
5 6 17 1.5167 0.0000
5 6 18 -0.6413 0.0000
5 7 0 4.4394 0.0000
5 7 1 -1.4650 0.0000
5 7 2 -1.2485 0.0000
5 7 3 0.7867 0.0000
5 7 4 -0.7166 0.0000
5 7 5 1.4071 0.0000
5 7 6 3.1867 0.0000
5 7 7 -2.3660 0.0000
5 7 8 -2.7349 0.0000
5 7 9 3.0022 0.0000
5 7 10 2.1687 0.0000
5 7 11 -1.2716 0.0000
5 7 12 -0.8467 0.0000
5 7 13 0.4870 0.0000
5 7 14 0.7207 0.0000
5 7 15 0.0354 0.0000
5 7 16 -0.1316 0.0000
5 7 17 -0.9831 0.0000
5 8 0 -2.6012 0.0000
5 8 1 0.5516 0.0000
5 8 2 1.2907 0.0000
5 8 3 2.3348 0.0000
5 8 4 -0.7227 0.0000
5 8 5 -3.0203 0.0000
5 8 6 0.6762 0.0000
5 8 7 3.1746 0.0000
5 8 8 -0.5862 0.0000
5 8 9 -2.0650 0.0000
5 8 10 0.8882 0.0000
5 8 11 -0.1909 0.0000
5 8 12 -0.2102 0.0000
5 8 13 0.7660 0.0000
5 8 14 -0.5219 0.0000
5 8 15 -1.7698 0.0000
5 8 16 0.1515 0.0000
5 8 17 0.4882 0.0000
5 9 0 5.0933 0.0000
5 9 1 0.4538 0.0000
5 9 2 -3.2827 0.0000
5 9 3 -1.1844 0.0000
5 9 4 1.4965 0.0000
5 9 5 2.9481 0.0000
5 9 6 0.8183 0.0000
5 9 7 -3.3659 0.0000
5 9 8 -1.9357 0.0000
5 9 9 2.0036 0.0000
5 9 10 0.9855 0.0000
5 9 11 -0.7157 0.0000
5 9 12 -1.5915 0.0000
5 9 13 -0.6291 0.0000
5 9 14 0.2243 0.0000
5 9 15 1.1364 0.0000
5 9 16 -1.3163 0.0000
5 10 0 -0.3692 0.0000
5 10 1 0.6440 0.0000
5 10 2 0.9417 0.0000
5 10 3 2.6272 0.0000
5 10 4 -0.1292 0.0000
5 10 5 -2.7554 0.0000
5 10 6 0.6381 0.0000
5 10 7 1.8856 0.0000
5 10 8 -1.1321 0.0000
5 10 9 -0.6488 0.0000
5 10 10 0.4268 0.0000
5 10 11 -1.3128 0.0000
5 10 12 -0.0830 0.0000
5 10 13 1.8851 0.0000
5 10 14 -0.3765 0.0000
5 10 15 -2.5161 0.0000
5 10 16 0.5776 0.0000
5 11 0 4.8577 0.0000
5 11 1 1.2158 0.0000
5 11 2 -1.7408 0.0000
5 11 3 -1.8749 0.0000
5 11 4 2.0315 0.0000
5 11 5 2.9294 0.0000
5 11 6 -0.7607 0.0000
5 11 7 -2.1125 0.0000
5 11 8 -0.1982 0.0000
5 11 9 0.4437 0.0000
5 11 10 1.2431 0.0000
5 11 11 0.7511 0.0000
5 11 12 -1.4768 0.0000
5 11 13 -1.1050 0.0000
5 11 14 2.1815 0.0000
5 11 15 -0.0129 0.0000
5 11 16 -3.1956 0.0000
5 12 0 0.8228 0.0000
5 12 1 -1.2621 0.0000
5 12 2 -1.8774 0.0000
5 12 3 3.1724 0.0000
5 12 4 1.2966 0.0000
5 12 5 -0.9852 0.0000
5 12 6 -0.1219 0.0000
5 12 7 0.3579 0.0000
5 12 8 -0.2578 0.0000
5 12 9 0.5029 0.0000
5 12 10 0.1770 0.0000
5 12 11 -0.6783 0.0000
5 12 12 0.2740 0.0000
5 12 13 0.6085 0.0000
5 12 14 -2.1766 0.0000
5 12 15 -0.8626 0.0000
5 13 0 0.1380 0.0000
5 13 1 0.4790 0.0000
5 13 2 -0.8812 0.0000
5 13 3 -1.2829 0.0000
5 13 4 3.7282 0.0000
5 13 5 0.7965 0.0000
5 13 6 -1.1976 0.0000
5 13 7 -0.0067 0.0000
5 13 8 -0.7643 0.0000
5 13 9 -1.2757 0.0000
5 13 10 1.6622 0.0000
5 13 11 0.9407 0.0000
5 13 12 -3.2169 0.0000
5 13 13 -1.3278 0.0000
5 13 14 1.5027 0.0000
5 13 15 -1.2072 0.0000
5 14 0 -1.2173 0.0000
5 14 1 -2.7524 0.0000
5 14 2 0.4892 0.0000
5 14 3 5.4727 0.0000
5 14 4 1.7171 0.0000
5 14 5 -1.4973 0.0000
5 14 6 -3.4978 0.0000
5 14 7 -0.0324 0.0000
5 14 8 1.7095 0.0000
5 14 9 -0.1712 0.0000
5 14 10 -2.0942 0.0000
5 14 12 0.6290 0.0000
5 14 13 -0.4876 0.0000
5 14 14 -0.7193 0.0000
5 15 0 -2.2182 0.0000
5 15 1 4.9582 0.0000
5 15 2 1.7152 0.0000
5 15 3 -0.5448 0.0000
5 15 4 0.6414 0.0000
5 15 5 -1.8402 0.0000
5 15 6 0.1398 0.0000
5 15 7 -0.2475 0.0000
5 15 8 -2.0563 0.0000
5 15 9 -1.4431 0.0000
5 15 10 2.0526 0.0000
5 15 11 0.1558 0.0000
5 15 12 -2.5516 0.0000
5 15 13 0.5060 0.0000
5 16 0 -0.7746 0.0000
5 16 1 -0.6933 0.0000
5 16 2 4.0524 0.0000
5 16 3 0.4793 0.0000
5 16 4 -2.1192 0.0000
5 16 5 -1.1677 0.0000
5 16 6 -2.1382 0.0000
5 16 7 0.8119 0.0000
5 16 8 0.2262 0.0000
5 16 9 -1.0617 0.0000
5 16 10 -0.4227 0.0000
5 16 11 1.7717 0.0000
5 16 12 0.3166 0.0000
5 17 0 0.1931 0.0000
5 17 1 3.8572 0.0000
5 17 2 -0.8395 0.0000
5 17 3 -2.0615 0.0000
5 17 4 -2.1482 0.0000
5 17 5 -0.2244 0.0000
5 17 6 2.5481 0.0000
5 17 7 -1.4776 0.0000
5 17 8 -2.2455 0.0000
5 17 9 0.5913 0.0000
5 17 10 3.0777 0.0000
5 17 11 -0.0871 0.0000
5 18 0 -0.6037 0.0000
5 18 1 -0.1757 0.0000
5 18 2 -1.2146 0.0000
5 18 3 -1.5241 0.0000
5 18 4 3.1358 0.0000
5 18 5 0.1578 0.0000
5 18 6 -4.4609 0.0000
5 18 7 1.1082 0.0000
5 18 8 2.0943 0.0000
5 18 9 0.5117 0.0000
5 19 0 -1.6070 0.0000
5 19 1 1.6904 0.0000
5 19 3 -1.1581 0.0000
5 19 4 -0.6800 0.0000
5 19 5 2.6101 0.0000
5 19 6 0.3311 0.0000
5 20 0 -0.9112 0.0000
5 20 1 -2.1055 0.0000
5 20 2 1.8556 0.0000
5 20 3 2.2226 0.0000
5 20 4 0.5765 0.0000
5 20 5 -4.0631 0.0000
5 21 0 -1.1353 0.0000
5 21 1 1.7225 0.0000
5 21 2 0.1337 0.0000
5 21 3 -0.5547 0.0000
6 0 0 -5.1288 0.0000
6 0 2 14.6864 0.0000
6 0 4 -13.2230 0.0000
6 0 6 7.5177 0.0000
6 0 8 -2.4302 0.0000
6 0 12 3.1371 0.0000
6 0 14 -2.8362 0.0000
6 0 16 1.5118 0.0000
6 1 0 8.3608 0.0000
6 1 1 1.5443 0.0000
6 1 2 -0.5859 0.0000
6 1 3 3.8310 0.0000
6 1 4 -3.4141 0.0000
6 1 5 -5.3259 0.0000
6 1 6 1.8707 0.0000
6 1 7 3.3301 0.0000
6 1 8 -0.8669 0.0000
6 1 9 -0.2363 0.0000
6 1 10 1.6097 0.0000
6 1 11 -0.3477 0.0000
6 1 12 -0.5107 0.0000
6 1 13 0.3799 0.0000
6 1 14 0.3074 0.0000
6 1 15 0.3807 0.0000
6 1 16 0.6837 0.0000
6 1 17 -0.4928 0.0000
6 2 0 2.5087 0.0000
6 2 1 10.0464 0.0000
6 2 2 3.0993 0.0000
6 2 3 -9.2787 0.0000
6 2 4 -9.9336 0.0000
6 2 5 3.2860 0.0000
6 2 6 9.8277 0.0000
6 2 7 0.3450 0.0000
6 2 8 -3.9722 0.0000
6 2 9 -1.6806 0.0000
6 2 10 1.9556 0.0000
6 2 11 2.9526 0.0000
6 2 12 -0.0323 0.0000
6 2 13 -2.2409 0.0000
6 2 14 -0.1254 0.0000
6 2 15 1.5578 0.0000
6 2 16 0.8572 0.0000
6 2 17 0.0862 0.0000
6 3 0 6.3352 0.0000
6 3 1 -2.6806 0.0000
6 3 2 -5.9370 0.0000
6 3 3 -2.4173 0.0000
6 3 4 2.0164 0.0000
6 3 5 1.1034 0.0000
6 3 6 0.8945 0.0000
6 3 7 1.2042 0.0000
6 3 8 -1.6561 0.0000
6 3 9 1.7691 0.0000
6 3 10 1.7888 0.0000
6 3 11 -1.4191 0.0000
6 3 12 -1.9766 0.0000
6 3 13 0.6690 0.0000
6 3 14 1.0171 0.0000
6 3 15 0.8541 0.0000
6 3 16 -0.6611 0.0000
6 3 17 -1.0662 0.0000
6 4 0 5.3321 0.0000
6 4 1 -0.4099 0.0000
6 4 2 -2.5197 0.0000
6 4 3 -4.0530 0.0000
6 4 4 -2.2926 0.0000
6 4 5 6.1592 0.0000
6 4 6 4.7439 0.0000
6 4 7 -2.1227 0.0000
6 4 8 -2.5717 0.0000
6 4 9 -0.8110 0.0000
6 4 10 1.9740 0.0000
6 4 11 0.8622 0.0000
6 4 12 -1.2740 0.0000
6 4 13 -1.2198 0.0000
6 4 14 1.0366 0.0000
6 4 15 -0.1221 0.0000
6 4 16 -0.5915 0.0000
6 4 17 -0.3394 0.0000
6 5 0 4.9974 0.0000
6 5 1 -4.0167 0.0000
6 5 2 -8.3194 0.0000
6 5 3 4.3799 0.0000
6 5 4 7.4648 0.0000
6 5 5 -1.6661 0.0000
6 5 6 -1.1638 0.0000
6 5 7 -0.2866 0.0000
6 5 8 -0.9465 0.0000
6 5 9 1.9846 0.0000
6 5 10 1.7831 0.0000
6 5 11 -2.1900 0.0000
6 5 12 -2.2936 0.0000
6 5 13 0.6636 0.0000
6 5 14 1.5969 0.0000
6 5 15 0.9377 0.0000
6 5 16 -1.3275 0.0000
6 5 17 -1.5522 0.0000
6 6 0 -1.7345 0.0000
6 6 1 1.5673 0.0000
6 6 2 2.7722 0.0000
6 6 3 -1.4220 0.0000
6 6 4 0.6137 0.0000
6 6 5 2.5772 0.0000
6 6 6 -0.9381 0.0000
6 6 7 0.0214 0.0000
6 6 8 0.0593 0.0000
6 6 9 -0.8181 0.0000
6 6 10 0.5397 0.0000
6 6 11 0.8276 0.0000
6 6 12 -1.3424 0.0000
6 6 13 0.4651 0.0000
6 6 14 1.4543 0.0000
6 6 15 -0.9228 0.0000
6 6 16 -0.5632 0.0000
6 6 17 1.0590 0.0000
6 7 0 3.7182 0.0000
6 7 1 -3.5933 0.0000
6 7 2 -3.6971 0.0000
6 7 3 4.9900 0.0000
6 7 4 2.7700 0.0000
6 7 5 -1.9722 0.0000
6 7 6 -0.8601 0.0000
6 7 7 -1.5245 0.0000
6 7 8 0.0356 0.0000
6 7 9 2.9565 0.0000
6 7 10 0.4580 0.0000
6 7 11 -2.8581 0.0000
6 7 12 -1.0708 0.0000
6 7 13 1.7394 0.0000
6 7 14 2.0086 0.0000
6 7 15 -0.3364 0.0000
6 7 16 -1.8225 0.0000
6 8 0 -2.0870 0.0000
6 8 1 3.1828 0.0000
6 8 2 1.2844 0.0000
6 8 3 -0.9185 0.0000
6 8 4 1.1281 0.0000
6 8 5 -3.0735 0.0000
6 8 6 -2.2106 0.0000
6 8 7 3.8515 0.0000
6 8 8 0.7646 0.0000
6 8 9 -3.4334 0.0000
6 8 10 0.0106 0.0000
6 8 11 0.7234 0.0000
6 8 12 -0.2244 0.0000
6 8 13 0.6702 0.0000
6 8 14 0.2351 0.0000
6 8 15 -2.0458 0.0000
6 8 16 0.0381 0.0000
6 9 0 1.1605 0.0000
6 9 1 -1.9855 0.0000
6 9 3 2.0608 0.0000
6 9 4 -0.0555 0.0000
6 9 5 0.1294 0.0000
6 9 6 -1.6715 0.0000
6 9 7 -2.4561 0.0000
6 9 8 1.5775 0.0000
6 9 9 1.3668 0.0000
6 9 10 -1.7409 0.0000
6 9 11 -0.7175 0.0000
6 9 12 -0.0970 0.0000
6 9 13 -0.1304 0.0000
6 9 14 -0.1207 0.0000
6 9 15 0.9649 0.0000
6 10 0 -0.4812 0.0000
6 10 1 3.9390 0.0000
6 10 2 1.2864 0.0000
6 10 3 -0.1393 0.0000
6 10 4 -0.7633 0.0000
6 10 5 -5.1427 0.0000
6 10 6 1.1168 0.0000
6 10 7 4.5967 0.0000
6 10 8 -1.8706 0.0000
6 10 9 -2.9537 0.0000
6 10 10 0.0943 0.0000
6 10 11 0.7674 0.0000
6 10 12 0.1309 0.0000
6 10 13 0.5114 0.0000
6 10 14 -0.2639 0.0000
6 10 15 -1.1743 0.0000
6 11 0 2.1852 0.0000
6 11 1 1.9094 0.0000
6 11 2 -0.0782 0.0000
6 11 3 -2.6506 0.0000
6 11 4 -0.0275 0.0000
6 11 5 2.9545 0.0000
6 11 6 -3.0716 0.0000
6 11 7 -1.3597 0.0000
6 11 8 2.3524 0.0000
6 11 9 -1.0032 0.0000
6 11 10 -0.6409 0.0000
6 11 11 1.1666 0.0000
6 11 12 -0.1538 0.0000
6 11 13 -1.0832 0.0000
6 11 14 2.4852 0.0000
6 11 15 1.4196 0.0000
6 12 0 0.7101 0.0000
6 12 1 2.3455 0.0000
6 12 2 -0.5982 0.0000
6 12 3 -0.2967 0.0000
6 12 4 -1.9319 0.0000
6 12 5 -1.8740 0.0000
6 12 6 2.8610 0.0000
6 12 7 0.4066 0.0000
6 12 8 -1.7585 0.0000
6 12 9 -0.8461 0.0000
6 12 10 0.3952 0.0000
6 12 11 1.2500 0.0000
6 12 12 0.8791 0.0000
6 12 13 0.5066 0.0000
6 12 14 -0.8347 0.0000
6 13 0 1.4252 0.0000
6 13 1 -0.3504 0.0000
6 13 2 -2.0153 0.0000
6 13 3 -3.2630 0.0000
6 13 4 3.1349 0.0000
6 13 5 1.9407 0.0000
6 13 6 -3.7658 0.0000
6 13 7 -0.2598 0.0000
6 13 8 0.3835 0.0000
6 13 9 -0.6888 0.0000
6 13 10 1.3085 0.0000
6 13 11 1.8288 0.0000
6 13 12 -1.8465 0.0000
6 13 13 -0.6319 0.0000
6 14 0 -1.9804 0.0000
6 14 1 -1.2333 0.0000
6 14 2 0.1007 0.0000
6 14 3 2.3907 0.0000
6 14 4 -0.3381 0.0000
6 14 5 -1.5656 0.0000
6 14 6 -1.5575 0.0000
6 14 7 -0.8620 0.0000
6 14 8 2.0310 0.0000
6 14 9 -0.0569 0.0000
6 14 10 -1.2883 0.0000
6 14 11 0.5015 0.0000
6 14 12 1.2466 0.0000
6 14 13 -1.0925 0.0000
6 15 0 -1.9864 0.0000
6 15 1 1.3103 0.0000
6 15 2 0.7785 0.0000
6 15 3 -0.6160 0.0000
6 15 4 1.4949 0.0000
6 15 5 -1.6393 0.0000
6 15 6 -3.4685 0.0000
6 15 7 0.7732 0.0000
6 15 8 1.0903 0.0000
6 15 9 0.3422 0.0000
6 15 10 0.2752 0.0000
6 15 11 -0.6484 0.0000
6 15 12 -0.8535 0.0000
6 16 0 -2.0790 0.0000
6 16 1 1.2375 0.0000
6 16 2 3.5996 0.0000
6 16 3 -0.2930 0.0000
6 16 4 -4.0627 0.0000
6 16 5 -1.6188 0.0000
6 16 6 -0.2606 0.0000
6 16 7 0.9979 0.0000
6 16 8 2.1259 0.0000
6 16 9 -1.9352 0.0000
6 16 10 -0.8919 0.0000
6 16 11 2.1937 0.0000
6 17 0 0.0486 0.0000
6 17 1 1.6736 0.0000
6 17 2 0.6089 0.0000
6 17 3 -3.3074 0.0000
6 17 4 -2.1814 0.0000
6 17 5 -0.9407 0.0000
6 17 6 1.6401 0.0000
6 17 7 1.3462 0.0000
6 17 8 -0.8291 0.0000
6 17 9 0.0082 0.0000
6 18 0 0.1787 0.0000
6 18 1 0.1728 0.0000
6 18 2 -2.5024 0.0000
6 18 3 -1.6734 0.0000
6 18 4 0.8170 0.0000
6 18 5 1.0338 0.0000
6 18 6 -2.1218 0.0000
6 18 7 1.4498 0.0000
6 19 0 -0.9695 0.0000
6 19 1 0.4294 0.0000
6 19 2 -1.0051 0.0000
6 19 3 -2.2883 0.0000
6 19 4 1.1550 0.0000
6 20 0 -0.5261 0.0000
6 20 1 -2.2031 0.0000
6 20 2 0.4846 0.0000
7 0 0 -0.0455 0.0000
7 0 2 2.1770 0.0000
7 0 4 -0.3806 0.0000
7 0 6 1.5233 0.0000
7 0 8 -3.3968 0.0000
7 0 10 -0.6284 0.0000
7 0 12 1.3770 0.0000
7 0 14 -0.4575 0.0000
7 0 16 -0.2102 0.0000
7 1 0 2.4210 0.0000
7 1 1 -0.6963 0.0000
7 1 2 0.9246 0.0000
7 1 3 3.6378 0.0000
7 1 4 -1.1033 0.0000
7 1 5 -2.4720 0.0000
7 1 6 -1.6402 0.0000
7 1 7 1.4495 0.0000
7 1 8 0.7606 0.0000
7 1 9 -3.3130 0.0000
7 1 10 0.5086 0.0000
7 1 11 1.7045 0.0000
7 1 12 -0.0156 0.0000
7 1 13 -0.4050 0.0000
7 1 14 0.4534 0.0000
7 1 15 0.3385 0.0000
7 1 16 -0.4345 0.0000
7 2 0 4.5055 0.0000
7 2 1 4.9449 0.0000
7 2 2 -1.9027 0.0000
7 2 3 -2.9965 0.0000
7 2 4 -2.5956 0.0000
7 2 5 -0.5250 0.0000
7 2 6 4.7490 0.0000
7 2 7 -0.1653 0.0000
7 2 8 -4.3856 0.0000
7 2 9 -0.9341 0.0000
7 2 10 1.7641 0.0000
7 2 11 2.1216 0.0000
7 2 12 0.0812 0.0000
7 2 13 -1.2174 0.0000
7 2 14 -0.1732 0.0000
7 2 15 0.5925 0.0000
7 2 16 0.0538 0.0000
7 3 0 -1.0014 0.0000
7 3 1 -0.4282 0.0000
7 3 2 -1.0188 0.0000
7 3 3 -0.9244 0.0000
7 3 4 1.1100 0.0000
7 3 5 -1.7599 0.0000
7 3 6 -1.8863 0.0000
7 3 7 3.0413 0.0000
7 3 8 -0.1297 0.0000
7 3 9 -2.4021 0.0000
7 3 10 1.5744 0.0000
7 3 11 1.1203 0.0000
7 3 12 -1.9790 0.0000
7 3 13 0.4290 0.0000
7 3 14 1.1781 0.0000
7 3 15 -0.4821 0.0000
7 3 16 -0.7365 0.0000
7 4 0 4.2416 0.0000
7 4 1 0.9226 0.0000
7 4 2 -2.7204 0.0000
7 4 3 -3.5850 0.0000
7 4 4 -1.1736 0.0000
7 4 5 4.5797 0.0000
7 4 6 2.6278 0.0000
7 4 7 -2.5627 0.0000
7 4 8 -2.7044 0.0000
7 4 9 -0.0467 0.0000
7 4 10 1.0238 0.0000
7 4 11 1.8893 0.0000
7 4 12 -0.0814 0.0000
7 4 13 -2.3985 0.0000
7 4 14 0.5833 0.0000
7 4 15 0.5839 0.0000
7 4 16 -0.9339 0.0000
7 5 0 0.7781 0.0000
7 5 1 -1.1229 0.0000
7 5 2 -3.6411 0.0000
7 5 3 2.8071 0.0000
7 5 4 4.3938 0.0000
7 5 5 -2.5947 0.0000
7 5 6 -1.4645 0.0000
7 5 7 1.0003 0.0000
7 5 8 0.0189 0.0000
7 5 9 -0.4164 0.0000
7 5 10 1.6644 0.0000
7 5 11 -1.4353 0.0000
7 5 12 -0.9485 0.0000
7 5 13 1.3493 0.0000
7 5 14 0.2862 0.0000
7 5 15 0.0603 0.0000
7 5 16 -0.9473 0.0000
7 6 0 0.9405 0.0000
7 6 1 3.5909 0.0000
7 6 2 -0.2700 0.0000
7 6 3 -3.2258 0.0000
7 6 4 2.5610 0.0000
7 6 5 3.2403 0.0000
7 6 6 -2.1790 0.0000
7 6 7 -1.0069 0.0000
7 6 8 -0.1108 0.0000
7 6 9 -0.6465 0.0000
7 6 10 0.8044 0.0000
7 6 11 3.0780 0.0000
7 6 12 -1.9062 0.0000
7 6 13 -1.3807 0.0000
7 6 14 1.8578 0.0000
7 6 15 0.0688 0.0000
7 7 0 -0.2066 0.0000
7 7 1 -2.2289 0.0000
7 7 2 -0.2828 0.0000
7 7 3 4.1753 0.0000
7 7 4 0.8253 0.0000
7 7 5 -2.4459 0.0000
7 7 6 -1.9318 0.0000
7 7 7 -0.4045 0.0000
7 7 8 2.0378 0.0000
7 7 9 1.8398 0.0000
7 7 10 -1.1727 0.0000
7 7 11 -1.8428 0.0000
7 7 12 1.3865 0.0000
7 7 13 1.1681 0.0000
7 7 14 0.6877 0.0000
7 7 15 -0.5578 0.0000
7 8 0 0.4776 0.0000
7 8 1 3.3992 0.0000
7 8 2 -0.6805 0.0000
7 8 3 -1.7954 0.0000
7 8 4 1.7220 0.0000
7 8 5 -2.6889 0.0000
7 8 6 -2.0102 0.0000
7 8 7 3.1723 0.0000
7 8 8 0.4440 0.0000
7 8 9 -2.4183 0.0000
7 8 10 1.1827 0.0000
7 8 11 1.3875 0.0000
7 8 12 -0.8344 0.0000
7 8 13 0.3086 0.0000
7 8 14 0.4916 0.0000
7 8 15 -1.5497 0.0000
7 9 0 -2.7792 0.0000
7 9 1 -1.3072 0.0000
7 9 2 0.9870 0.0000
7 9 3 0.9511 0.0000
7 9 4 -1.2903 0.0000
7 9 5 -0.4346 0.0000
7 9 6 -2.3292 0.0000
7 9 7 -0.3051 0.0000
7 9 8 4.1082 0.0000
7 9 9 -0.0003 0.0000
7 9 10 -3.0098 0.0000
7 9 11 0.6280 0.0000
7 9 12 1.6483 0.0000
7 9 13 -0.4408 0.0000
7 9 14 -1.0265 0.0000
7 10 0 -0.7844 0.0000
7 10 1 3.0517 0.0000
7 10 2 1.2301 0.0000
7 10 3 -0.6489 0.0000
7 10 4 -2.2294 0.0000
7 10 5 -3.2831 0.0000
7 10 6 2.7333 0.0000
7 10 7 3.7960 0.0000
7 10 8 -1.7049 0.0000
7 10 9 -1.5769 0.0000
7 10 10 0.1965 0.0000
7 10 11 1.3812 0.0000
7 10 12 0.2093 0.0000
7 10 13 -0.4586 0.0000
7 10 14 -1.2673 0.0000
7 11 0 0.5519 0.0000
7 11 1 1.2384 0.0000
7 11 2 0.8415 0.0000
7 11 3 -1.2195 0.0000
7 11 4 0.1197 0.0000
7 11 5 0.5629 0.0000
7 11 6 -2.1703 0.0000
7 11 7 1.3973 0.0000
7 11 8 3.7477 0.0000
7 11 9 -1.6982 0.0000
7 11 10 -2.0543 0.0000
7 11 11 1.1392 0.0000
7 11 12 1.5722 0.0000
7 11 13 -1.2746 0.0000
7 12 0 0.2668 0.0000
7 12 1 4.2692 0.0000
7 12 2 1.6889 0.0000
7 12 3 -2.9094 0.0000
7 12 4 -3.7083 0.0000
7 12 5 0.7827 0.0000
7 12 6 4.0082 0.0000
7 12 7 1.3441 0.0000
7 12 8 -1.7227 0.0000
7 12 9 -1.5113 0.0000
7 12 10 0.2904 0.0000
7 12 11 1.9231 0.0000
7 12 12 0.9765 0.0000
7 12 13 -0.4013 0.0000
7 13 0 1.7890 0.0000
7 13 1 -1.1222 0.0000
7 13 2 -1.3887 0.0000
7 13 3 -1.0518 0.0000
7 13 4 0.1696 0.0000
7 13 5 1.4320 0.0000
7 13 6 -0.3133 0.0000
7 13 7 0.1472 0.0000
7 13 8 1.0822 0.0000
7 13 9 -1.4308 0.0000
7 13 10 -0.2606 0.0000
7 13 11 2.8303 0.0000
7 13 12 0.2081 0.0000
7 14 0 0.3596 0.0000
7 14 1 0.5213 0.0000
7 14 2 0.0037 0.0000
7 14 3 -2.0873 0.0000
7 14 4 -0.1372 0.0000
7 14 5 0.6395 0.0000
7 14 6 1.7265 0.0000
7 14 7 -0.0718 0.0000
7 14 8 -1.4291 0.0000
7 14 9 0.1322 0.0000
7 14 10 0.8164 0.0000
7 14 11 1.5274 0.0000
7 15 0 -0.2768 0.0000
7 15 1 -2.2609 0.0000
7 15 2 -0.5957 0.0000
7 15 3 1.4216 0.0000
7 15 4 0.8685 0.0000
7 15 5 0.8848 0.0000
7 15 6 -3.2796 0.0000
7 15 7 -0.0017 0.0000
7 15 8 2.7194 0.0000
7 15 9 0.2079 0.0000
7 15 10 0.0804 0.0000
7 16 0 -1.4779 0.0000
7 16 1 1.9455 0.0000
7 16 2 2.0932 0.0000
7 16 3 -1.7576 0.0000
7 16 4 -2.1453 0.0000
7 16 5 -0.0671 0.0000
7 16 6 2.1339 0.0000
7 16 7 -0.6177 0.0000
7 16 8 0.2907 0.0000
7 16 9 0.6634 0.0000
7 17 0 -0.0964 0.0000
7 17 1 -2.1342 0.0000
7 17 2 1.2367 0.0000
7 17 3 -0.2199 0.0000
7 17 4 -2.0700 0.0000
7 17 5 -0.8808 0.0000
7 17 6 0.2948 0.0000
7 17 7 2.7191 0.0000
7 18 0 0.9140 0.0000
7 18 1 0.6607 0.0000
7 18 2 -2.6942 0.0000
7 18 3 -2.3757 0.0000
7 18 4 0.8921 0.0000
7 19 0 -1.3767 0.0000
8 0 0 1.1420 0.0000
8 0 2 -3.1307 0.0000
8 0 4 4.4471 0.0000
8 0 8 -2.1710 0.0000
8 0 10 1.2081 0.0000
8 0 12 0.7633 0.0000
8 0 14 0.0386 0.0000
8 1 0 0.9828 0.0000
8 1 1 -0.1192 0.0000
8 1 2 0.8161 0.0000
8 1 3 0.4374 0.0000
8 1 4 0.6625 0.0000
8 1 5 -0.0401 0.0000
8 1 6 -2.2880 0.0000
8 1 7 0.2431 0.0000
8 1 8 0.4102 0.0000
8 1 9 -3.8059 0.0000
8 1 10 1.0656 0.0000
8 1 11 5.1351 0.0000
8 1 12 -1.1310 0.0000
8 1 13 -2.3154 0.0000
8 1 14 1.3084 0.0000
8 1 15 0.6275 0.0000
8 2 0 3.9187 0.0000
8 2 1 1.4292 0.0000
8 2 2 -4.5178 0.0000
8 2 3 0.2841 0.0000
8 2 4 1.6196 0.0000
8 2 5 -0.5587 0.0000
8 2 6 -0.8921 0.0000
8 2 7 -1.6057 0.0000
8 2 8 -1.7327 0.0000
8 2 9 1.0345 0.0000
8 2 10 1.8738 0.0000
8 2 11 0.1125 0.0000
8 2 12 0.9116 0.0000
8 2 13 -0.5142 0.0000
8 2 14 -0.4652 0.0000
8 2 15 0.2828 0.0000
8 3 0 -3.2783 0.0000
8 3 1 -0.4357 0.0000
8 3 2 1.2710 0.0000
8 3 3 -0.6646 0.0000
8 3 4 0.4930 0.0000
8 3 5 -3.0283 0.0000
8 3 6 -1.7394 0.0000
8 3 7 1.6877 0.0000
8 3 8 0.1420 0.0000
8 3 9 -1.7880 0.0000
8 3 10 2.0451 0.0000
8 3 11 2.0531 0.0000
8 3 12 -2.8414 0.0000
8 3 13 0.8646 0.0000
8 3 14 0.8276 0.0000
8 3 15 -1.6460 0.0000
8 4 0 1.6578 0.0000
8 4 1 -1.0003 0.0000
8 4 2 -2.6152 0.0000
8 4 3 -1.4602 0.0000
8 4 4 0.4024 0.0000
8 4 5 2.4960 0.0000
8 4 6 -2.0614 0.0000
8 4 7 -1.7908 0.0000
8 4 8 0.0945 0.0000
8 4 9 1.4522 0.0000
8 4 10 -0.1632 0.0000
8 4 11 0.6592 0.0000
8 4 12 1.1920 0.0000
8 4 13 -2.1236 0.0000
8 4 14 0.0420 0.0000
8 4 15 -0.3634 0.0000
8 5 0 -3.1995 0.0000
8 5 1 0.0702 0.0000
8 5 2 0.9194 0.0000
8 5 3 1.0758 0.0000
8 5 4 0.0439 0.0000
8 5 5 -2.5817 0.0000
8 5 6 -0.1907 0.0000
8 5 7 0.5511 0.0000
8 5 8 1.5940 0.0000
8 5 9 -0.3683 0.0000
8 5 10 -0.1203 0.0000
8 5 11 -0.7720 0.0000
8 5 12 1.1127 0.0000
8 5 13 1.3702 0.0000
8 5 14 -2.0985 0.0000
8 6 0 0.4881 0.0000
8 6 1 1.5922 0.0000
8 6 2 -1.3202 0.0000
8 6 3 -2.2575 0.0000
8 6 4 2.9714 0.0000
8 6 5 1.8791 0.0000
8 6 6 -3.1539 0.0000
8 6 7 -0.4658 0.0000
8 6 8 0.8230 0.0000
8 6 9 0.2915 0.0000
8 6 10 0.5945 0.0000
8 6 11 2.2851 0.0000
8 6 12 -0.8424 0.0000
8 6 13 -1.5423 0.0000
8 6 14 0.1925 0.0000
8 7 0 -3.1359 0.0000
8 7 1 0.0103 0.0000
8 7 2 2.4719 0.0000
8 7 3 1.4346 0.0000
8 7 4 -1.7899 0.0000
8 7 5 -1.5823 0.0000
8 7 6 -0.9313 0.0000
8 7 7 0.7415 0.0000
8 7 8 3.0861 0.0000
8 7 9 -0.0794 0.0000
8 7 10 -2.6251 0.0000
8 7 11 1.2585 0.0000
8 7 12 2.6030 0.0000
8 7 13 -1.2291 0.0000
8 7 14 -1.3986 0.0000
8 8 0 0.4655 0.0000
8 8 1 0.8645 0.0000
8 8 2 -1.2062 0.0000
8 8 3 -1.0382 0.0000
8 8 4 1.0798 0.0000
8 8 5 -1.6142 0.0000
8 8 6 -1.0972 0.0000
8 8 7 1.5872 0.0000
8 8 8 0.4719 0.0000
8 8 9 0.0394 0.0000
8 8 10 1.1266 0.0000
8 8 11 -0.1578 0.0000
8 8 12 -0.1821 0.0000
8 8 13 -0.6858 0.0000
8 9 0 -3.0569 0.0000
8 9 1 -0.4859 0.0000
8 9 2 1.7939 0.0000
8 9 3 -0.6009 0.0000
8 9 4 -1.9168 0.0000
8 9 5 -0.7145 0.0000
8 9 6 -0.1312 0.0000
8 9 7 2.0290 0.0000
8 9 8 2.5870 0.0000
8 9 9 -2.3428 0.0000
8 9 10 -1.6983 0.0000
8 9 11 2.4470 0.0000
8 9 12 0.2662 0.0000
8 9 13 -1.7825 0.0000
8 10 0 -1.6345 0.0000
8 10 1 0.7193 0.0000
8 10 2 0.0260 0.0000
8 10 3 -0.6073 0.0000
8 10 4 -1.7228 0.0000
8 10 5 0.8367 0.0000
8 10 6 2.1150 0.0000
8 10 7 0.7630 0.0000
8 10 8 -0.8071 0.0000
8 10 9 0.2684 0.0000
8 10 10 -0.5056 0.0000
8 10 11 0.3668 0.0000
8 10 12 -0.0188 0.0000
8 11 0 -0.9645 0.0000
8 11 1 -1.1519 0.0000
8 11 2 1.3584 0.0000
8 11 3 0.8549 0.0000
8 11 4 0.3503 0.0000
8 11 5 -0.7956 0.0000
8 11 6 1.3862 0.0000
8 11 7 0.9640 0.0000
8 11 8 0.4789 0.0000
8 11 9 -1.0682 0.0000
8 11 10 -0.6026 0.0000
8 11 11 -0.0318 0.0000
8 11 12 -0.0453 0.0000
8 12 0 -0.4081 0.0000
8 12 1 2.0958 0.0000
8 12 2 1.7078 0.0000
8 12 3 -1.5564 0.0000
8 12 4 -1.0558 0.0000
8 12 5 2.4916 0.0000
8 12 6 0.7223 0.0000
8 12 7 0.3092 0.0000
8 12 8 -1.0212 0.0000
8 12 9 -0.6136 0.0000
8 12 10 -0.2688 0.0000
8 12 11 0.0108 0.0000
8 13 0 -0.6800 0.0000
8 13 1 -0.9387 0.0000
8 13 2 1.2715 0.0000
8 13 3 1.6865 0.0000
8 13 4 -1.9056 0.0000
8 13 5 0.6274 0.0000
8 13 6 1.7079 0.0000
8 13 7 -1.5693 0.0000
8 13 8 0.2765 0.0000
8 13 9 -0.8268 0.0000
8 13 10 -1.0590 0.0000
8 14 0 0.5480 0.0000
8 14 1 0.9742 0.0000
8 14 2 0.7823 0.0000
8 14 3 -1.6002 0.0000
8 14 4 0.4383 0.0000
8 14 5 0.4046 0.0000
8 14 6 1.1859 0.0000
8 14 7 -0.4371 0.0000
8 14 8 -2.3185 0.0000
8 14 9 0.3252 0.0000
8 15 0 1.1430 0.0000
8 15 1 -2.6380 0.0000
8 15 2 0.8096 0.0000
8 15 3 2.1918 0.0000
8 15 4 -0.1012 0.0000
8 15 5 0.5523 0.0000
8 15 6 -1.8739 0.0000
8 15 7 -0.9559 0.0000
8 15 8 1.0838 0.0000
8 16 0 -0.5395 0.0000
8 16 1 2.9485 0.0000
8 16 2 0.9808 0.0000
8 16 3 -0.9612 0.0000
8 16 4 -1.2491 0.0000
8 16 5 0.6731 0.0000
8 16 6 0.8790 0.0000
8 17 0 -0.3607 0.0000
8 17 1 -2.1779 0.0000
8 17 2 2.9392 0.0000
8 17 3 0.6628 0.0000
9 0 0 -2.9069 0.0000
9 0 2 -0.4960 0.0000
9 0 4 3.4531 0.0000
9 0 6 -0.2611 0.0000
9 0 8 0.8802 0.0000
9 0 10 -0.3783 0.0000
9 0 12 0.0945 0.0000
9 1 0 0.4226 0.0000
9 1 1 0.9281 0.0000
9 1 2 1.4531 0.0000
9 1 3 -1.5555 0.0000
9 1 4 0.7445 0.0000
9 1 5 3.3730 0.0000
9 1 6 -0.8295 0.0000
9 1 7 0.0881 0.0000
9 1 8 -0.5498 0.0000
9 1 9 -1.7535 0.0000
9 1 10 0.9353 0.0000
9 1 11 3.1195 0.0000
9 1 12 -0.9611 0.0000
9 1 13 -2.4537 0.0000
9 2 0 2.0028 0.0000
9 2 1 1.5176 0.0000
9 2 2 -2.1793 0.0000
9 2 3 0.8048 0.0000
9 2 4 2.0258 0.0000
9 2 5 0.4935 0.0000
9 2 6 -0.7029 0.0000
9 2 7 -1.4894 0.0000
9 2 8 0.4967 0.0000
9 2 9 0.4569 0.0000
9 2 10 0.3845 0.0000
9 2 11 -0.3297 0.0000
9 2 12 0.2520 0.0000
9 2 13 0.2310 0.0000
9 3 0 -1.9540 0.0000
9 3 1 1.6440 0.0000
9 3 2 1.0253 0.0000
9 3 3 -2.0347 0.0000
9 3 4 0.6163 0.0000
9 3 5 0.9545 0.0000
9 3 6 -0.9336 0.0000
9 3 7 -0.5692 0.0000
9 3 8 -0.5048 0.0000
9 3 9 0.1847 0.0000
9 3 10 1.0713 0.0000
9 3 11 0.3553 0.0000
9 3 12 -1.6262 0.0000
9 3 13 0.2353 0.0000
9 4 0 1.1451 0.0000
9 4 1 -2.5317 0.0000
9 4 2 -1.1467 0.0000
9 4 3 0.1692 0.0000
9 4 4 1.3701 0.0000
9 4 5 1.1208 0.0000
9 4 6 -1.8219 0.0000
9 4 7 -1.9903 0.0000
9 4 8 1.1505 0.0000
9 4 9 1.3747 0.0000
9 4 10 -0.9766 0.0000
9 4 11 -0.6584 0.0000
9 4 12 0.5206 0.0000
9 4 13 -0.0638 0.0000
9 5 0 -1.9089 0.0000
9 5 1 1.0833 0.0000
9 5 2 0.7237 0.0000
9 5 3 -0.2998 0.0000
9 5 4 -0.2612 0.0000
9 5 5 0.3145 0.0000
9 5 6 -0.8164 0.0000
9 5 7 -0.0277 0.0000
9 5 8 0.8604 0.0000
9 5 9 0.1464 0.0000
9 5 10 -1.2574 0.0000
9 5 11 -0.7782 0.0000
9 5 12 1.9753 0.0000
9 5 13 0.4409 0.0000
9 6 0 -0.7147 0.0000
9 6 1 -1.4858 0.0000
9 6 2 0.0388 0.0000
9 6 3 0.1824 0.0000
9 6 4 2.2512 0.0000
9 6 5 0.5822 0.0000
9 6 6 -1.8957 0.0000
9 6 7 -1.8211 0.0000
9 6 8 1.5301 0.0000
9 6 9 0.6235 0.0000
9 6 10 -0.0118 0.0000
9 6 11 0.4056 0.0000
9 6 12 0.1068 0.0000
9 7 0 -1.6195 0.0000
9 7 1 0.5196 0.0000
9 7 2 1.3790 0.0000
9 7 3 0.5638 0.0000
9 7 4 -1.2149 0.0000
9 7 5 -0.3161 0.0000
9 7 6 -0.9270 0.0000
9 7 7 0.8177 0.0000
9 7 8 0.8428 0.0000
9 7 9 0.0113 0.0000
9 7 10 -1.8675 0.0000
9 7 11 2.1203 0.0000
9 7 12 2.2570 0.0000
9 8 0 -1.2301 0.0000
9 8 1 -1.2477 0.0000
9 8 2 0.3752 0.0000
9 8 3 0.4289 0.0000
9 8 4 0.5131 0.0000
9 8 5 -1.3361 0.0000
9 8 6 -1.1906 0.0000
9 8 7 -0.7626 0.0000
9 8 8 1.8624 0.0000
9 8 9 1.4222 0.0000
9 8 10 0.3861 0.0000
9 8 11 -1.4240 0.0000
9 9 0 -1.5956 0.0000
9 9 1 -0.7860 0.0000
9 9 2 1.5483 0.0000
9 9 3 -0.1773 0.0000
9 9 4 -2.1041 0.0000
9 9 5 -1.1527 0.0000
9 9 6 0.8351 0.0000
9 9 7 2.3124 0.0000
9 9 8 0.1933 0.0000
9 9 9 -1.2929 0.0000
9 9 10 -0.2608 0.0000
9 9 11 2.0973 0.0000
9 10 0 -1.3300 0.0000
9 10 1 -0.5715 0.0000
9 10 2 -0.2154 0.0000
9 10 3 0.1883 0.0000
9 10 4 -0.9433 0.0000
9 10 5 0.8034 0.0000
9 10 6 0.6625 0.0000
9 10 7 0.1654 0.0000
9 10 8 1.0098 0.0000
9 10 9 0.3050 0.0000
9 10 10 -1.0026 0.0000
9 11 0 -1.2222 0.0000
9 11 1 -1.0588 0.0000
9 11 2 1.1627 0.0000
9 11 3 1.0308 0.0000
9 11 4 -0.8978 0.0000
9 11 5 -0.2141 0.0000
9 11 6 3.1209 0.0000
9 11 7 0.0862 0.0000
9 11 8 -1.8692 0.0000
9 11 9 0.0731 0.0000
9 11 10 0.8266 0.0000
9 12 0 -0.2750 0.0000
9 12 1 -0.8582 0.0000
9 12 2 1.3427 0.0000
9 12 3 0.0367 0.0000
9 12 4 0.7282 0.0000
9 12 5 0.8738 0.0000
9 12 6 0.1206 0.0000
9 12 7 -0.4111 0.0000
9 12 8 -0.7864 0.0000
9 12 9 0.2636 0.0000
9 13 0 -1.0682 0.0000
9 13 1 -0.0504 0.0000
9 13 2 1.5144 0.0000
9 13 3 1.6366 0.0000
9 13 4 -2.5382 0.0000
9 13 5 1.5571 0.0000
9 13 6 0.9205 0.0000
9 13 7 -1.9726 0.0000
9 13 8 -0.9963 0.0000
9 14 0 -0.7074 0.0000
9 14 1 0.7869 0.0000
9 14 2 0.5821 0.0000
9 14 3 -0.1581 0.0000
9 14 4 0.7694 0.0000
9 14 5 -0.8025 0.0000
9 14 6 0.4524 0.0000
9 14 7 -1.6874 0.0000
9 15 0 1.9001 0.0000
9 15 1 -1.7077 0.0000
9 15 2 1.3879 0.0000
9 15 3 0.8953 0.0000
9 15 4 -0.1641 0.0000
9 15 5 0.3346 0.0000
9 16 0 0.1489 0.0000
9 16 1 2.0492 0.0000
10 0 0 -5.7829 0.0000
10 0 2 1.8891 0.0000
10 0 4 1.0469 0.0000
10 0 6 -2.0731 0.0000
10 0 8 1.3597 0.0000
10 0 10 -1.1450 0.0000
10 1 0 -0.7320 0.0000
10 1 1 -0.5081 0.0000
10 1 2 1.7062 0.0000
10 1 3 -0.5229 0.0000
10 1 4 0.4551 0.0000
10 1 5 2.2722 0.0000
10 1 6 -0.2278 0.0000
10 1 7 -2.9942 0.0000
10 1 8 0.8150 0.0000
10 1 9 0.8487 0.0000
10 1 10 0.1401 0.0000
10 1 11 0.5386 0.0000
10 2 0 -0.4238 0.0000
10 2 1 1.4497 0.0000
10 2 2 1.8442 0.0000
10 2 3 0.9049 0.0000
10 2 4 -0.1756 0.0000
10 2 5 -0.6258 0.0000
10 2 6 -1.0407 0.0000
10 2 7 1.3201 0.0000
10 2 8 -0.2320 0.0000
10 2 9 0.0564 0.0000
10 2 10 -0.5168 0.0000
10 2 11 0.1585 0.0000
10 3 0 -0.1267 0.0000
10 3 1 2.0571 0.0000
10 3 2 0.0373 0.0000
10 3 3 -0.7746 0.0000
10 3 4 -0.1046 0.0000
10 3 5 1.2897 0.0000
10 3 6 -0.6363 0.0000
10 3 7 -2.2528 0.0000
10 3 8 1.3572 0.0000
10 3 9 -0.0594 0.0000
10 3 10 0.2996 0.0000
10 3 11 -0.2730 0.0000
10 4 0 -0.1347 0.0000
10 4 1 -1.0023 0.0000
10 4 2 1.3698 0.0000
10 4 3 -0.3397 0.0000
10 4 4 0.0963 0.0000
10 4 5 -0.5626 0.0000
10 4 6 -0.4006 0.0000
10 4 7 -0.1860 0.0000
10 4 8 -0.6043 0.0000
10 4 9 1.2090 0.0000
10 4 10 -1.3447 0.0000
10 4 11 -0.1715 0.0000
10 5 0 1.2277 0.0000
10 5 1 0.1820 0.0000
10 5 2 -0.0989 0.0000
10 5 3 0.1988 0.0000
10 5 4 -0.7348 0.0000
10 5 5 0.7710 0.0000
10 5 6 -0.4741 0.0000
10 5 7 -0.5030 0.0000
10 5 8 0.4222 0.0000
10 5 9 -0.7958 0.0000
10 5 10 0.2364 0.0000
10 5 11 -0.8442 0.0000
10 6 0 -0.6984 0.0000
10 6 1 -0.4523 0.0000
10 6 2 1.0713 0.0000
10 6 3 0.6556 0.0000
10 6 4 0.8206 0.0000
10 6 5 -0.7453 0.0000
10 6 6 -0.6701 0.0000
10 6 7 -0.5599 0.0000
10 6 8 0.1863 0.0000
10 6 9 0.4993 0.0000
10 6 10 -0.6546 0.0000
10 7 0 1.1953 0.0000
10 7 1 0.0474 0.0000
10 7 2 0.1180 0.0000
10 7 3 0.5099 0.0000
10 7 4 -1.0296 0.0000
10 7 5 0.4530 0.0000
10 7 6 0.0457 0.0000
10 7 7 -0.8151 0.0000
10 7 8 -0.6771 0.0000
10 7 9 0.3327 0.0000
10 7 10 0.6830 0.0000
10 8 0 -0.1179 0.0000
10 8 1 -0.7270 0.0000
10 8 2 0.7433 0.0000
10 8 3 0.8110 0.0000
10 8 4 -0.0376 0.0000
10 8 5 -2.1951 0.0000
10 8 6 -0.8193 0.0000
10 8 7 0.0342 0.0000
10 8 8 0.5381 0.0000
10 8 9 1.3992 0.0000
10 9 0 0.0590 0.0000
10 9 1 -0.8148 0.0000
10 9 2 0.6294 0.0000
10 9 3 -0.2717 0.0000
10 9 4 -1.6285 0.0000
10 9 5 -0.4094 0.0000
10 9 6 0.2916 0.0000
10 9 7 -0.1087 0.0000
10 9 8 0.5163 0.0000
10 10 0 0.0812 0.0000
10 10 1 -0.6213 0.0000
10 10 2 -0.0777 0.0000
10 10 3 0.5369 0.0000
10 10 4 -1.2258 0.0000
10 10 5 -1.1682 0.0000
10 10 6 0.5290 0.0000
10 10 7 1.7099 0.0000
10 10 8 0.4228 0.0000
10 11 0 0.3333 0.0000
10 11 1 0.2549 0.0000
10 11 2 -0.6814 0.0000
10 11 3 0.0991 0.0000
10 11 4 -0.8144 0.0000
10 11 5 0.2760 0.0000
10 11 6 1.5730 0.0000
10 11 7 0.0850 0.0000
10 12 0 0.3426 0.0000
10 12 1 -1.4438 0.0000
10 12 2 0.7072 0.0000
10 12 3 -0.3188 0.0000
10 12 4 0.1219 0.0000
10 12 5 -0.8351 0.0000
10 12 6 1.7496 0.0000
10 13 0 0.2683 0.0000
10 13 1 -0.3626 0.0000
10 13 2 -0.4895 0.0000
10 13 3 0.4401 0.0000
10 13 4 -1.7586 0.0000
10 13 5 1.3263 0.0000
10 14 0 -1.0749 0.0000
10 14 1 0.1553 0.0000
10 14 2 -0.8264 0.0000
11 0 0 -4.4738 0.0000
11 0 2 1.1317 0.0000
11 0 6 -2.5058 0.0000
11 0 8 1.6800 0.0000
11 1 0 -0.9789 0.0000
11 1 1 -2.0093 0.0000
11 1 2 0.3457 0.0000
11 1 3 0.9023 0.0000
11 1 4 1.0099 0.0000
11 1 5 -0.9096 0.0000
11 1 6 -0.5929 0.0000
11 1 7 -2.2307 0.0000
11 1 8 1.7831 0.0000
11 2 0 -1.8347 0.0000
11 2 1 0.5042 0.0000
11 2 2 3.2294 0.0000
11 2 3 0.4741 0.0000
11 2 4 -1.7986 0.0000
11 2 5 -1.0135 0.0000
11 2 6 -0.9962 0.0000
11 2 7 2.3434 0.0000
11 2 8 0.7031 0.0000
11 2 9 -0.1576 0.0000
11 3 0 0.9479 0.0000
11 3 1 -0.5938 0.0000
11 3 2 -0.4151 0.0000
11 3 3 2.2467 0.0000
11 3 4 -0.9449 0.0000
11 3 5 -1.9483 0.0000
11 3 6 -0.0134 0.0000
11 3 7 0.3007 0.0000
11 3 8 1.6767 0.0000
11 4 0 -1.8621 0.0000
11 4 1 1.4874 0.0000
11 4 2 1.5685 0.0000
11 4 3 -1.5808 0.0000
11 4 4 -1.2738 0.0000
11 4 5 -0.7623 0.0000
11 4 6 0.4528 0.0000
11 4 7 1.2513 0.0000
11 4 8 -0.2786 0.0000
11 5 0 0.8752 0.0000
11 5 1 -1.8467 0.0000
11 5 2 0.9586 0.0000
11 5 3 0.5066 0.0000
11 5 4 -1.8736 0.0000
11 5 5 -0.6453 0.0000
11 5 6 1.4031 0.0000
11 5 7 0.3798 0.0000
11 5 8 -0.7990 0.0000
11 6 0 -0.3418 0.0000
11 6 1 1.6128 0.0000
11 6 2 0.0515 0.0000
11 6 3 -0.3286 0.0000
11 6 4 -0.2020 0.0000
11 6 5 -0.4196 0.0000
11 6 6 -0.2519 0.0000
11 6 7 0.9413 0.0000
11 7 0 1.1175 0.0000
11 7 1 0.3129 0.0000
11 7 2 -0.2711 0.0000
11 7 3 -0.3828 0.0000
11 7 4 -0.7439 0.0000
11 7 5 0.4720 0.0000
11 7 6 0.9536 0.0000
11 7 7 -1.2336 0.0000
11 8 0 1.2531 0.0000
11 8 1 0.4940 0.0000
11 8 2 -0.5479 0.0000
11 8 3 0.0501 0.0000
11 8 4 -0.3803 0.0000
11 8 5 -1.7616 0.0000
11 8 6 -0.1497 0.0000
11 9 0 1.1138 0.0000
11 9 1 -0.8919 0.0000
11 9 2 -0.5539 0.0000
11 9 3 -0.8108 0.0000
11 9 4 -0.3010 0.0000
11 9 5 -0.1593 0.0000
11 10 0 0.0651 0.0000
11 10 1 0.0925 0.0000
11 10 2 -0.7395 0.0000
11 10 3 -0.0253 0.0000
11 10 4 -1.3178 0.0000
11 11 0 1.0388 0.0000
11 11 1 0.1683 0.0000
11 11 2 -1.4221 0.0000
11 11 3 -0.3893 0.0000
12 0 0 -1.2240 0.0000
12 0 2 0.1272 0.0000
12 0 4 -0.9525 0.0000
12 1 0 -0.6088 0.0000
12 1 1 -1.1113 0.0000
12 1 2 -0.8982 0.0000
12 1 3 1.2551 0.0000
12 1 4 1.2975 0.0000
12 1 5 -0.9254 0.0000
12 2 0 -0.8515 0.0000
12 2 1 -0.1073 0.0000
12 2 2 2.0874 0.0000
12 2 3 -0.1802 0.0000
12 2 4 -0.4029 0.0000
12 2 5 -0.0940 0.0000
12 3 0 0.4180 0.0000
12 3 1 -1.4809 0.0000
12 3 2 0.0476 0.0000
12 3 3 3.2572 0.0000
12 3 4 -0.7920 0.0000
12 3 5 -2.0013 0.0000
12 4 0 -0.8738 0.0000
12 4 1 1.5080 0.0000
12 4 2 0.5618 0.0000
12 4 3 -0.9336 0.0000
12 4 4 -0.5838 0.0000
12 5 0 -1.5904 0.0000
12 5 1 -0.8797 0.0000
12 5 2 1.5201 0.0000
12 5 3 0.2067 0.0000
12 5 4 -1.2262 0.0000
12 6 0 0.4238 0.0000
12 6 1 0.9807 0.0000
12 6 2 0.4786 0.0000
12 6 3 -0.6879 0.0000
12 7 0 -0.5334 0.0000
12 7 1 2.0916 0.0000
12 7 2 -0.6797 0.0000
;
_olex2_submission_special_instructions 'No special instructions were received'
loop_
_space_group_symop_operation_xyz
'x, y, z'
'-x, y+1/2, -z+1/2'
'-x, -y, -z'
'x, -y-1/2, z-1/2'
loop_
_atom_site_label
_atom_site_type_symbol
_atom_site_fract_x
_atom_site_fract_y
_atom_site_fract_z
_atom_site_U_iso_or_equiv
_atom_site_adp_type
_atom_site_occupancy
_atom_site_site_symmetry_order
_atom_site_calc_flag
_atom_site_refinement_flags_posn
_atom_site_refinement_flags_adp
_atom_site_refinement_flags_occupancy
_atom_site_disorder_assembly
_atom_site_disorder_group
Zn1 Zn -0.38434(5) 0.98653(3) 1.08484(3) 0.0423(2) Uani 1 1 d . . . . .
O1 O -0.2256(3) 0.96465(15) 1.06814(15) 0.0533(8) Uani 1 1 d . . . . .
O2 O -0.2366(3) 0.90544(19) 1.16174(19) 0.0746(11) Uani 1 1 d . . . . .
O3 O 0.3972(3) 0.57302(14) 1.45043(17) 0.0587(9) Uani 1 1 d . . . . .
O4 O 0.5107(3) 0.58012(15) 1.54851(18) 0.0744(11) Uani 1 1 d . . . . .
O5 O -0.6452(2) 0.95399(13) 1.52815(15) 0.0479(7) Uani 1 1 d . . . . .
O6 O -0.7717(2) 0.85707(14) 1.58366(14) 0.0480(7) Uani 1 1 d . . . . .
O7 O -0.9895(3) 0.79453(15) 1.5916(2) 0.0722(11) Uani 1 1 d . . . . .
O8 O -0.7783(3) 1.15763(14) 1.45755(17) 0.0585(9) Uani 1 1 d . . . . .
N1 N 0.0952(3) 0.92197(14) 1.33609(15) 0.0316(7) Uani 1 1 d . . . . .
N2 N 0.1837(3) 0.87298(14) 1.43087(15) 0.0301(7) Uani 1 1 d . . . . .
H2 H 0.200875 0.862834 1.475399 0.036 Uiso 1 1 calc R . . . .
N3 N -0.4606(3) 1.00149(16) 1.17452(19) 0.0436(9) Uani 1 1 d . . . . .
C1 C -0.1800(4) 0.9283(2) 1.1163(2) 0.0470(11) Uani 1 1 d . . . . .
C2 C -0.0496(4) 0.91727(19) 1.1160(2) 0.0390(10) Uani 1 1 d . . . . .
C3 C 0.0136(4) 0.89488(17) 1.17787(19) 0.0358(9) Uani 1 1 d . . . . .
H3 H -0.027141 0.884887 1.217635 0.043 Uiso 1 1 calc R . . . .
C4 C 0.1350(3) 0.88717(17) 1.1815(2) 0.0332(9) Uani 1 1 d . . . . .
C5 C 0.1930(4) 0.9030(2) 1.1232(2) 0.0478(11) Uani 1 1 d . . . . .
H5 H 0.276146 0.899263 1.125395 0.057 Uiso 1 1 calc R . . . .
C6 C 0.1308(4) 0.9242(2) 1.0618(2) 0.0570(13) Uani 1 1 d . . . . .
H6 H 0.171176 0.933666 1.021722 0.068 Uiso 1 1 calc R . . . .
C7 C 0.0102(4) 0.9317(2) 1.0587(2) 0.0501(12) Uani 1 1 d . . . . .
H7 H -0.031679 0.946958 1.016759 0.060 Uiso 1 1 calc R . . . .
C8 C 0.1995(3) 0.86064(17) 1.24622(19) 0.0326(9) Uani 1 1 d . . . . .
C9 C 0.1733(3) 0.87653(16) 1.31432(19) 0.0299(9) Uani 1 1 d . . . . .
C10 C 0.2303(3) 0.84654(17) 1.37367(19) 0.0302(9) Uani 1 1 d . . . . .
C11 C 0.3161(3) 0.80002(17) 1.36915(19) 0.0318(9) Uani 1 1 d . . . . .
C12 C 0.3433(4) 0.78652(18) 1.3018(2) 0.0379(10) Uani 1 1 d . . . . .
H12 H 0.402395 0.756156 1.295545 0.045 Uiso 1 1 calc R . . . .
C13 C 0.2871(3) 0.81586(18) 1.2427(2) 0.0364(9) Uani 1 1 d . . . . .
H13 H 0.309745 0.804680 1.197700 0.044 Uiso 1 1 calc R . . . .
C14 C 0.3765(3) 0.76873(17) 1.43277(19) 0.0309(9) Uani 1 1 d . . . . .
C15 C 0.4312(3) 0.80325(18) 1.4877(2) 0.0388(10) Uani 1 1 d . . . . .
H15 H 0.428806 0.847851 1.485517 0.047 Uiso 1 1 calc R . . . .
C16 C 0.4898(4) 0.77399(19) 1.5462(2) 0.0420(10) Uani 1 1 d . . . . .
H16 H 0.524739 0.798590 1.584125 0.050 Uiso 1 1 calc R . . . .
C17 C 0.4971(3) 0.70959(19) 1.5490(2) 0.0375(10) Uani 1 1 d . . . . .
H17 H 0.540257 0.689604 1.587826 0.045 Uiso 1 1 calc R . . . .
C18 C 0.4413(3) 0.67389(17) 1.49493(19) 0.0296(9) Uani 1 1 d . . . . .
C19 C 0.3816(3) 0.70335(18) 1.43736(19) 0.0309(9) Uani 1 1 d . . . . .
H19 H 0.343467 0.678620 1.400482 0.037 Uiso 1 1 calc R . . . .
C20 C 0.4516(3) 0.60357(18) 1.4978(2) 0.0333(9) Uani 1 1 d . . . . .
C21 C 0.1061(3) 0.91767(17) 1.40543(19) 0.0305(9) Uani 1 1 d . . . . .
C22 C 0.0478(3) 0.95917(18) 1.45294(18) 0.0304(9) Uani 1 1 d . . . . .
C23 C 0.0304(3) 1.02203(17) 1.4358(2) 0.0327(9) Uani 1 1 d . . . . .
H23 H 0.050903 1.037260 1.391709 0.039 Uiso 1 1 calc R . . . .
C24 C 0.0166(3) 0.93733(18) 1.5178(2) 0.0344(9) Uani 1 1 d . . . . .
H24 H 0.027689 0.894311 1.530039 0.041 Uiso 1 1 calc R . . . .
C25 C -0.7194(4) 1.1045(2) 1.4406(3) 0.0475(11) Uani 1 1 d . . . . .
C26 C -0.6773(4) 1.0936(2) 1.3765(2) 0.0479(11) Uani 1 1 d . . . . .
H26 H -0.684380 1.124772 1.340635 0.057 Uiso 1 1 calc R . . . .
C27 C -0.6231(4) 1.0352(2) 1.3647(2) 0.0451(11) Uani 1 1 d . . . . .
C28 C -0.6135(3) 0.9904(2) 1.4166(2) 0.0425(11) Uani 1 1 d . . . . .
H28 H -0.577428 0.951236 1.408347 0.051 Uiso 1 1 calc R . . . .
C29 C -0.6564(4) 1.0021(2) 1.4814(2) 0.0416(11) Uani 1 1 d . . . . .
C30 C -0.7068(4) 1.0593(2) 1.4943(2) 0.0468(11) Uani 1 1 d . . . . .
H30 H -0.732791 1.068009 1.539217 0.056 Uiso 1 1 calc R . . . .
C31 C -0.6945(4) 0.9602(2) 1.5934(2) 0.0506(12) Uani 1 1 d . . . . .
H31A H -0.776107 0.976081 1.585670 0.061 Uiso 1 1 calc R . . . .
H31B H -0.647561 0.989900 1.624507 0.061 Uiso 1 1 calc R . . . .
C32 C -0.6928(4) 0.8964(2) 1.6258(2) 0.0565(13) Uani 1 1 d . . . . .
H32A H -0.612301 0.878714 1.628414 0.068 Uiso 1 1 calc R . . . .
H32B H -0.717055 0.898996 1.674212 0.068 Uiso 1 1 calc R . . . .
C33 C -0.7837(4) 0.7971(2) 1.6143(3) 0.0610(14) Uani 1 1 d . . . . .
H33A H -0.796893 0.801855 1.664604 0.073 Uiso 1 1 calc R . . . .
H33B H -0.710522 0.772629 1.611523 0.073 Uiso 1 1 calc R . . . .
C34 C -0.8842(5) 0.7633(2) 1.5765(3) 0.0689(16) Uani 1 1 d . . . . .
H34A H -0.877194 0.763618 1.525179 0.083 Uiso 1 1 calc R . . . .
H34B H -0.885462 0.719018 1.592536 0.083 Uiso 1 1 calc R . . . .
C35 C -1.0923(5) 0.7588(2) 1.5758(3) 0.0721(16) Uani 1 1 d . . . . .
H35A H -1.086826 0.718805 1.602427 0.086 Uiso 1 1 calc R . . . .
H35B H -1.102655 0.749003 1.524884 0.086 Uiso 1 1 calc R . . . .
C36 C -0.8064(4) 1.2034(2) 1.4039(3) 0.0676(15) Uani 1 1 d . . . . .
H36A H -0.827269 1.182413 1.358098 0.081 Uiso 1 1 calc R . . . .
H36B H -0.737826 1.231056 1.399285 0.081 Uiso 1 1 calc R . . . .
C37 C -0.5725(4) 1.02388(19) 1.2974(2) 0.0443(11) Uani 1 1 d . . . . .
C38 C -0.5384(4) 1.0725(2) 1.2552(2) 0.0483(11) Uani 1 1 d . . . . .
H38 H -0.553731 1.114780 1.267452 0.058 Uiso 1 1 calc R . . . .
C39 C -0.4833(4) 1.0602(2) 1.1965(2) 0.0489(11) Uani 1 1 d . . . . .
H39 H -0.459521 1.094724 1.169617 0.059 Uiso 1 1 calc R . . . .
C40 C -0.4958(4) 0.9545(2) 1.2135(2) 0.0486(11) Uani 1 1 d . . . . .
H40 H -0.481258 0.912692 1.198954 0.058 Uiso 1 1 calc R . . . .
C41 C -0.5515(4) 0.9627(2) 1.2730(3) 0.0508(12) Uani 1 1 d . . . . .
H41 H -0.576200 0.927256 1.298001 0.061 Uiso 1 1 calc R . . . .
O1S O -0.6093(5) 1.2773(2) 1.7747(2) 0.1016(14) Uani 1 1 d . U . . .
N1S N -0.7028(7) 1.2277(4) 1.6830(3) 0.148(3) Uani 1 1 d D U . . .
C0AA C -0.6674(9) 1.2347(3) 1.7493(4) 0.124(3) Uani 1 1 d D U . . .
H0AA H -0.689664 1.203098 1.780626 0.149 Uiso 1 1 calc R . . . .
C1S C -0.6642(9) 1.2719(6) 1.6289(5) 0.193(6) Uani 1 1 d D U . . .
H1SA H -0.585376 1.287960 1.646094 0.232 Uiso 1 1 calc R . . . .
H1SB H -0.655164 1.247385 1.585550 0.232 Uiso 1 1 calc R . . . .
C2S C -0.7361(10) 1.3235(7) 1.6102(9) 0.291(11) Uani 1 1 d D U . . .
H2SA H -0.742232 1.350114 1.651691 0.437 Uiso 1 1 calc GR . . . .
H2SB H -0.814576 1.308811 1.592278 0.437 Uiso 1 1 calc GR . . . .
H2SC H -0.701930 1.347911 1.573583 0.437 Uiso 1 1 calc GR . . . .
C3SA C -0.8059(14) 1.1865(9) 1.6573(11) 0.155(8) Uani 0.517(16) 1 d D U P A 1
H3SA H -0.782370 1.162877 1.616188 0.185 Uiso 0.517(16) 1 calc R . P A 1
H3SB H -0.815157 1.155202 1.694858 0.185 Uiso 0.517(16) 1 calc R . P A 1
C4SA C -0.9117(16) 1.2101(13) 1.6388(17) 0.34(2) Uani 0.517(16) 1 d D U P A 1
H4SA H -0.935433 1.238175 1.675677 0.513 Uiso 0.517(16) 1 d R . P A 1
H4SB H -0.968723 1.175715 1.631417 0.513 Uiso 0.517(16) 1 d R . P A 1
H4SC H -0.909003 1.233695 1.594877 0.513 Uiso 0.517(16) 1 d R . P A 1
C3SB C -0.7132(18) 1.1606(9) 1.6570(10) 0.170(9) Uani 0.483(16) 1 d D U P A 2
H3SC H -0.703579 1.162576 1.605954 0.204 Uiso 0.483(16) 1 calc R . P A 2
H3SD H -0.642846 1.138633 1.679150 0.204 Uiso 0.483(16) 1 calc R . P A 2
C4SB C -0.803(2) 1.1219(13) 1.6631(12) 0.278(17) Uani 0.483(16) 1 d D U P A 2
H4SD H -0.779727 1.089918 1.698745 0.417 Uiso 0.483(16) 1 calc GR . P A 2
H4SE H -0.824612 1.101376 1.617681 0.417 Uiso 0.483(16) 1 calc GR . P A 2
H4SF H -0.870026 1.145722 1.677271 0.417 Uiso 0.483(16) 1 calc GR . P A 2
loop_
_atom_site_aniso_label
_atom_site_aniso_U_11
_atom_site_aniso_U_22
_atom_site_aniso_U_33
_atom_site_aniso_U_23
_atom_site_aniso_U_13
_atom_site_aniso_U_12
Zn1 0.0529(4) 0.0248(4) 0.0465(4) 0.0023(2) -0.0096(3) -0.0017(2)
O1 0.0593(19) 0.053(2) 0.0466(18) 0.0111(16) -0.0012(15) 0.0103(16)
O2 0.0506(19) 0.105(3) 0.069(2) 0.035(2) 0.0103(17) 0.0028(19)
O3 0.087(2) 0.0235(17) 0.060(2) -0.0041(15) -0.0192(18) 0.0041(16)
O4 0.107(3) 0.0345(19) 0.072(2) -0.0013(17) -0.042(2) 0.0195(18)
O5 0.0546(18) 0.0376(18) 0.0513(18) -0.0031(15) 0.0036(14) 0.0037(14)
O6 0.0573(18) 0.0425(18) 0.0438(16) 0.0108(14) 0.0018(14) 0.0048(15)
O7 0.059(2) 0.0372(19) 0.121(3) 0.016(2) 0.009(2) 0.0067(17)
O8 0.064(2) 0.0365(18) 0.075(2) 0.0048(17) 0.0082(17) 0.0141(16)
N1 0.0406(18) 0.0258(18) 0.0282(17) -0.0006(14) 0.0029(14) 0.0058(14)
N2 0.0405(17) 0.0240(17) 0.0260(16) 0.0001(14) 0.0042(13) 0.0053(14)
N3 0.052(2) 0.024(2) 0.052(2) 0.0012(17) -0.0059(17) -0.0030(16)
C1 0.058(3) 0.041(3) 0.040(2) 0.005(2) -0.006(2) 0.001(2)
C2 0.051(2) 0.029(2) 0.037(2) 0.0069(18) 0.0026(19) 0.0030(19)
C3 0.054(3) 0.026(2) 0.028(2) -0.0012(17) 0.0083(18) 0.0009(19)
C4 0.045(2) 0.021(2) 0.034(2) -0.0002(17) 0.0065(18) 0.0051(18)
C5 0.049(3) 0.052(3) 0.043(2) 0.008(2) 0.010(2) 0.006(2)
C6 0.063(3) 0.070(4) 0.041(3) 0.020(2) 0.017(2) 0.008(3)
C7 0.066(3) 0.047(3) 0.036(2) 0.016(2) 0.001(2) 0.004(2)
C8 0.045(2) 0.024(2) 0.030(2) -0.0020(17) 0.0063(17) 0.0002(18)
C9 0.041(2) 0.016(2) 0.033(2) -0.0002(16) 0.0029(17) 0.0039(16)
C10 0.041(2) 0.017(2) 0.032(2) -0.0010(17) 0.0039(17) 0.0020(17)
C11 0.041(2) 0.017(2) 0.037(2) -0.0016(17) 0.0031(17) 0.0043(17)
C12 0.048(2) 0.025(2) 0.041(2) -0.0029(19) 0.0033(19) 0.0108(19)
C13 0.052(2) 0.026(2) 0.031(2) -0.0062(18) 0.0063(18) 0.0072(19)
C14 0.038(2) 0.021(2) 0.034(2) 0.0009(17) 0.0050(17) 0.0046(16)
C15 0.048(2) 0.021(2) 0.048(2) -0.0003(19) 0.004(2) 0.0011(18)
C16 0.050(2) 0.026(2) 0.047(2) -0.0083(19) -0.008(2) 0.0016(19)
C17 0.040(2) 0.031(2) 0.040(2) 0.0010(19) -0.0062(18) 0.0040(19)
C18 0.0311(19) 0.021(2) 0.037(2) -0.0025(17) 0.0031(16) 0.0045(16)
C19 0.035(2) 0.023(2) 0.034(2) -0.0043(17) 0.0025(16) 0.0042(16)
C20 0.035(2) 0.029(2) 0.037(2) -0.0001(19) 0.0065(18) 0.0015(18)
C21 0.036(2) 0.023(2) 0.034(2) -0.0004(17) 0.0061(16) 0.0042(17)
C22 0.034(2) 0.027(2) 0.029(2) -0.0010(17) 0.0009(16) 0.0037(17)
C23 0.039(2) 0.029(2) 0.030(2) 0.0055(18) 0.0062(17) 0.0080(18)
C24 0.041(2) 0.022(2) 0.041(2) 0.0014(18) 0.0039(18) 0.0093(17)
C25 0.044(2) 0.029(2) 0.069(3) -0.003(2) -0.002(2) 0.002(2)
C26 0.047(3) 0.036(3) 0.059(3) 0.004(2) 0.000(2) 0.000(2)
C27 0.042(2) 0.030(2) 0.061(3) -0.003(2) -0.001(2) -0.004(2)
C28 0.043(2) 0.026(2) 0.057(3) 0.001(2) -0.003(2) -0.0045(18)
C29 0.039(2) 0.030(2) 0.054(3) 0.001(2) -0.005(2) -0.0032(19)
C30 0.043(2) 0.037(3) 0.059(3) -0.002(2) -0.003(2) -0.001(2)
C31 0.054(3) 0.051(3) 0.044(3) -0.012(2) -0.006(2) 0.002(2)
C32 0.071(3) 0.061(3) 0.036(2) -0.002(2) -0.002(2) 0.011(3)
C33 0.063(3) 0.054(3) 0.068(3) 0.034(3) 0.016(3) 0.011(3)
C34 0.080(4) 0.039(3) 0.092(4) 0.025(3) 0.029(3) 0.013(3)
C35 0.071(4) 0.039(3) 0.106(4) 0.005(3) 0.008(3) 0.006(3)
C36 0.062(3) 0.042(3) 0.100(4) 0.016(3) 0.012(3) 0.014(2)
C37 0.044(2) 0.032(3) 0.056(3) 0.002(2) -0.005(2) -0.0011(19)
C38 0.061(3) 0.030(3) 0.053(3) 0.000(2) 0.000(2) 0.002(2)
C39 0.059(3) 0.031(3) 0.055(3) 0.005(2) -0.005(2) -0.006(2)
C40 0.057(3) 0.030(3) 0.057(3) -0.004(2) 0.000(2) -0.003(2)
C41 0.058(3) 0.031(3) 0.063(3) 0.000(2) 0.004(2) -0.009(2)
O1S 0.142(4) 0.067(3) 0.096(3) -0.013(3) 0.012(3) -0.014(3)
N1S 0.188(7) 0.177(7) 0.083(4) -0.056(5) 0.038(5) -0.076(6)
C0AA 0.215(9) 0.079(5) 0.083(5) -0.031(4) 0.038(5) -0.057(6)
C1S 0.103(7) 0.367(18) 0.116(7) -0.012(10) 0.041(6) -0.046(9)
C2S 0.111(9) 0.40(3) 0.34(2) 0.162(19) -0.075(11) -0.053(12)
C3SA 0.149(15) 0.178(18) 0.140(14) -0.061(13) 0.031(13) 0.038(15)
C4SA 0.29(3) 0.44(5) 0.28(3) 0.06(3) -0.06(3) -0.32(3)
C3SB 0.122(14) 0.220(19) 0.170(15) -0.135(14) 0.022(12) -0.055(14)
C4SB 0.162(19) 0.54(5) 0.145(18) -0.23(3) 0.081(15) -0.10(3)
loop_
_atom_type_symbol
_atom_type_description
_atom_type_scat_dispersion_real
_atom_type_scat_dispersion_imag
_atom_type_scat_source
C C 0.0181 0.0091 'International Tables Vol C Tables 4.2.6.8 and 6.1.1.4'
H H 0.0000 0.0000 'International Tables Vol C Tables 4.2.6.8 and 6.1.1.4'
N N 0.0311 0.0180 'International Tables Vol C Tables 4.2.6.8 and 6.1.1.4'
O O 0.0492 0.0322 'International Tables Vol C Tables 4.2.6.8 and 6.1.1.4'
Zn Zn -1.5491 0.6778 'International Tables Vol C Tables 4.2.6.8 and 6.1.1.4'
loop_
_geom_angle_atom_site_label_1
_geom_angle_atom_site_label_2
_geom_angle_atom_site_label_3
_geom_angle
_geom_angle_site_symmetry_1
_geom_angle_site_symmetry_3
C4SAa C3SAa N1S 122.0(16) . .
O1 Zn1 O3 102.19(14) . 2_557
O1 Zn1 O4 108.88(16) . 4_475
O1 Zn1 N3 131.82(13) . .
O3 Zn1 N3 96.81(14) 2_557 .
O4 Zn1 O3 122.65(13) 4_475 2_557
C4SBb C3SBb N1S 126.5(16) . .
C4SAa C3SAa H3SA 106.8 . .
C4SAa C3SAa H3SB 106.8 . .
O4 Zn1 N3 96.66(16) 4_475 .
H3SAa C3SAa H3SB 106.7 . .
C3SAa C4SAa H4SA 110.3 . .
C3SAa C4SAa H4SB 109.4 . .
C1 O1 Zn1 110.8(3) . .
C20 O3 Zn1 139.7(3) . 2_547
C20 O4 Zn1 148.2(3) . 4_676
H4SAa C4SAa H4SB 109.5 . .
H4SAa C4SAa H4SC 109.5 . .
C3SAa C4SAa H4SC 108.7 . .
C29 O5 C31 119.1(3) . .
C33 O6 C32 112.2(3) . .
C35 O7 C34 114.0(4) . .
H4SBa C4SAa H4SC 109.5 . .
C4SBb C3SBb H3SC 105.7 . .
C4SBb C3SBb H3SD 105.7 . .
C25 O8 C36 118.4(4) . .
C21 N1 C9 104.2(3) . .
C10 N2 H2 126.5 . .
C21 N2 H2 126.5 . .
C21 N2 C10 106.9(3) . .
C39 N3 Zn1 121.4(3) . .
C40 N3 Zn1 122.1(3) . .
C40 N3 C39 116.4(4) . .
O1 C1 C2 115.4(4) . .
H3SCb C3SBb H3SD 106.1 . .
C3SBb C4SBb H4SD 109.5 . .
C3SBb C4SBb H4SE 109.5 . .
H4SDb C4SBb H4SE 109.5 . .
H4SEb C4SBb H4SF 109.5 . .
H4SDb C4SBb H4SF 109.5 . .
C3SBb C4SBb H4SF 109.5 . .
O2 C1 O1 122.8(4) . .
O2 C1 C2 121.7(4) . .
C3 C2 C1 118.6(4) . .
C7 C2 C1 122.2(4) . .
C7 C2 C3 119.1(4) . .
C2 C3 H3 119.6 . .
C4 C3 C2 120.8(4) . .
C4 C3 H3 119.6 . .
C3 C4 C8 120.0(3) . .
C5 C4 C3 118.7(4) . .
C5 C4 C8 121.4(4) . .
C4 C5 H5 119.7 . .
C6 C5 C4 120.7(4) . .
C6 C5 H5 119.7 . .
C5 C6 H6 119.9 . .
C7 C6 C5 120.1(4) . .
C7 C6 H6 119.9 . .
C2 C7 C6 120.6(4) . .
C2 C7 H7 119.7 . .
C6 C7 H7 119.7 . .
C9 C8 C4 123.0(3) . .
C13 C8 C4 121.6(3) . .
C13 C8 C9 115.3(3) . .
C8 C9 N1 129.6(3) . .
C8 C9 C10 121.0(3) . .
C10 C9 N1 109.5(3) . .
N2 C10 C9 105.6(3) . .
N2 C10 C11 131.4(3) . .
C11 C10 C9 123.0(3) . .
C10 C11 C14 122.5(3) . .
C12 C11 C10 115.1(3) . .
C12 C11 C14 122.4(3) . .
C11 C12 H12 118.9 . .
C11 C12 C13 122.2(4) . .
C13 C12 H12 118.9 . .
C8 C13 C12 123.3(4) . .
C8 C13 H13 118.3 . .
C12 C13 H13 118.3 . .
C15 C14 C11 121.3(3) . .
C15 C14 C19 118.1(3) . .
C19 C14 C11 120.6(3) . .
C14 C15 H15 119.4 . .
C14 C15 C16 121.3(4) . .
C16 C15 H15 119.4 . .
C15 C16 H16 120.0 . .
C17 C16 C15 120.0(4) . .
C17 C16 H16 120.0 . .
C16 C17 H17 120.2 . .
C16 C17 C18 119.7(4) . .
C18 C17 H17 120.2 . .
C17 C18 C19 119.9(3) . .
C17 C18 C20 119.3(3) . .
C19 C18 C20 120.7(3) . .
C14 C19 H19 119.5 . .
C18 C19 C14 121.0(3) . .
C18 C19 H19 119.5 . .
O3 C20 C18 117.8(3) . .
O4 C20 O3 124.3(4) . .
O4 C20 C18 117.9(4) . .
N1 C21 N2 113.8(3) . .
N1 C21 C22 124.8(3) . .
N2 C21 C22 121.3(3) . .
C23 C22 C21 119.8(3) . .
C23 C22 C24 119.1(3) . .
C24 C22 C21 120.9(3) . .
C22 C23 H23 119.7 . .
C24 C23 C22 120.5(3) 3_578 .
C24 C23 H23 119.7 3_578 .
C22 C24 H24 119.8 . .
C23 C24 C22 120.4(3) 3_578 .
C23 C24 H24 119.8 3_578 .
O8 C25 C26 124.8(4) . .
O8 C25 C30 114.3(4) . .
C26 C25 C30 120.9(4) . .
C25 C26 H26 120.5 . .
C25 C26 C27 119.0(4) . .
C27 C26 H26 120.5 . .
C26 C27 C37 119.6(4) . .
C28 C27 C26 120.1(4) . .
C28 C27 C37 120.3(4) . .
C27 C28 H28 119.8 . .
C27 C28 C29 120.4(4) . .
C29 C28 H28 119.8 . .
O5 C29 C28 115.4(4) . .
O5 C29 C30 124.3(4) . .
C30 C29 C28 120.3(4) . .
C25 C30 H30 120.3 . .
C29 C30 C25 119.3(4) . .
C29 C30 H30 120.3 . .
O5 C31 H31A 110.4 . .
O5 C31 H31B 110.4 . .
O5 C31 C32 106.8(4) . .
H31A C31 H31B 108.6 . .
C32 C31 H31A 110.4 . .
C32 C31 H31B 110.4 . .
O6 C32 C31 108.6(3) . .
O6 C32 H32A 110.0 . .
O6 C32 H32B 110.0 . .
C31 C32 H32A 110.0 . .
C31 C32 H32B 110.0 . .
H32A C32 H32B 108.4 . .
O6 C33 H33A 109.7 . .
O6 C33 H33B 109.7 . .
O6 C33 C34 109.7(4) . .
H33A C33 H33B 108.2 . .
C34 C33 H33A 109.7 . .
C34 C33 H33B 109.7 . .
O7 C34 C33 107.7(4) . .
O7 C34 H34A 110.2 . .
O7 C34 H34B 110.2 . .
C33 C34 H34A 110.2 . .
C33 C34 H34B 110.2 . .
H34A C34 H34B 108.5 . .
O7 C35 H35A 110.1 . .
O7 C35 H35B 110.1 . .
O7 C35 C36 107.9(4) . 3_378
H35A C35 H35B 108.4 . .
C36 C35 H35A 110.1 3_378 .
C36 C35 H35B 110.1 3_378 .
O8 C36 C35 108.1(4) . 3_378
O8 C36 H36A 110.1 . .
O8 C36 H36B 110.1 . .
C35 C36 H36A 110.1 3_378 .
C35 C36 H36B 110.1 3_378 .
H36A C36 H36B 108.4 . .
C38 C37 C27 122.5(4) . .
C38 C37 C41 115.5(4) . .
C41 C37 C27 122.0(4) . .
C37 C38 H38 119.7 . .
C39 C38 C37 120.7(4) . .
C39 C38 H38 119.7 . .
N3 C39 C38 123.4(4) . .
N3 C39 H39 118.3 . .
C38 C39 H39 118.3 . .
N3 C40 H40 118.1 . .
N3 C40 C41 123.8(4) . .
C41 C40 H40 118.1 . .
C37 C41 H41 120.0 . .
C40 C41 C37 120.1(4) . .
C40 C41 H41 120.0 . .
N1S C3SAa H3SA 106.8 . .
N1S C3SAa H3SB 106.8 . .
N1S C3SBb H3SC 105.7 . .
N1S C3SBb H3SD 105.7 . .
C0AA N1S C1S 121.1(7) . .
C0AA N1S C3SA 122.9(10) . .
C0AA N1S C3SB 115.8(10) . .
C1S N1S C3SA 114.4(11) . .
C1S N1S C3SB 112.7(10) . .
O1S C0AA N1S 126.1(7) . .
O1S C0AA H0AA 117.0 . .
N1S C0AA H0AA 117.0 . .
N1S C1S H1SA 107.9 . .
N1S C1S H1SB 107.9 . .
H1SA C1S H1SB 107.2 . .
C2S C1S N1S 117.8(9) . .
C2S C1S H1SA 107.9 . .
C2S C1S H1SB 107.9 . .
C1S C2S H2SA 109.5 . .
C1S C2S H2SB 109.5 . .
C1S C2S H2SC 109.5 . .
H2SA C2S H2SB 109.5 . .
H2SA C2S H2SC 109.5 . .
H2SB C2S H2SC 109.5 . .
loop_
_geom_bond_atom_site_label_1
_geom_bond_atom_site_label_2
_geom_bond_distance
_geom_bond_site_symmetry_2
Zn1 O1 1.928(3) .
Zn1 O3 1.960(3) 2_557
Zn1 O4 1.942(3) 4_475
Zn1 N3 2.016(4) .
C3SAa H3SA 0.9900 .
C3SAa H3SB 0.9900 .
C3SAa C4SA 1.326(18) .
C4SAa H4SA 0.9799 .
C4SAa H4SB 0.9802 .
C4SAa H4SC 0.9800 .
C3SBb H3SC 0.9900 .
C3SBb H3SD 0.9900 .
C3SBb C4SB 1.327(16) .
C4SBb H4SD 0.9800 .
C4SBb H4SE 0.9800 .
C4SBb H4SF 0.9800 .
O1 C1 1.273(5) .
O2 C1 1.229(5) .
O3 Zn1 1.960(3) 2_547
O3 C20 1.232(5) .
O4 Zn1 1.942(3) 4_676
O4 C20 1.231(5) .
O5 C29 1.356(5) .
O5 C31 1.418(5) .
O6 C32 1.421(5) .
O6 C33 1.415(5) .
O7 C34 1.426(6) .
O7 C35 1.407(6) .
O8 C25 1.370(5) .
O8 C36 1.426(6) .
N1 C9 1.405(5) .
N1 C21 1.319(5) .
N2 H2 0.8800 .
N2 C10 1.378(5) .
N2 C21 1.357(5) .
N3 C39 1.351(5) .
N3 C40 1.330(6) .
C1 C2 1.508(6) .
C2 C3 1.406(5) .
C2 C7 1.377(6) .
C3 H3 0.9500 .
C3 C4 1.392(5) .
C4 C5 1.388(6) .
C4 C8 1.486(5) .
C5 H5 0.9500 .
C5 C6 1.386(6) .
C6 H6 0.9500 .
C6 C7 1.382(6) .
C7 H7 0.9500 .
C8 C9 1.401(5) .
C8 C13 1.388(5) .
C9 C10 1.404(5) .
C10 C11 1.401(5) .
C11 C12 1.380(5) .
C11 C14 1.494(5) .
C12 H12 0.9500 .
C12 C13 1.390(5) .
C13 H13 0.9500 .
C14 C15 1.379(5) .
C14 C19 1.395(5) .
C15 H15 0.9500 .
C15 C16 1.392(5) .
C16 H16 0.9500 .
C16 C17 1.373(6) .
C17 H17 0.9500 .
C17 C18 1.386(5) .
C18 C19 1.386(5) .
C18 C20 1.501(5) .
C19 H19 0.9500 .
C21 C22 1.469(5) .
C22 C23 1.387(5) .
C22 C24 1.399(5) .
C23 H23 0.9500 .
C23 C24 1.381(5) 3_578
C24 C23 1.381(5) 3_578
C24 H24 0.9500 .
C25 C26 1.375(6) .
C25 C30 1.403(6) .
C26 H26 0.9500 .
C26 C27 1.416(6) .
C27 C28 1.370(6) .
C27 C37 1.476(6) .
C28 H28 0.9500 .
C28 C29 1.394(6) .
C29 C30 1.378(6) .
C30 H30 0.9500 .
C31 H31A 0.9900 .
C31 H31B 0.9900 .
C31 C32 1.491(6) .
C32 H32A 0.9900 .
C32 H32B 0.9900 .
C33 H33A 0.9900 .
C33 H33B 0.9900 .
C33 C34 1.484(7) .
C34 H34A 0.9900 .
C34 H34B 0.9900 .
C35 H35A 0.9900 .
C35 H35B 0.9900 .
C35 C36 1.489(7) 3_378
C36 C35 1.489(7) 3_378
C36 H36A 0.9900 .
C36 H36B 0.9900 .
C37 C38 1.388(6) .
C37 C41 1.410(6) .
C38 H38 0.9500 .
C38 C39 1.360(6) .
C39 H39 0.9500 .
C40 H40 0.9500 .
C40 C41 1.364(6) .
C41 H41 0.9500 .
O1S C0AA 1.198(8) .
N1S C0AA 1.299(9) .
N1S C1S 1.492(10) .
N1S C3SA 1.512(15) .
N1S C3SB 1.513(14) .
C0AA H0AA 0.9500 .
C1S H1SA 0.9900 .
C1S H1SB 0.9900 .
C1S C2S 1.398(5) .
C2S H2SA 0.9800 .
C2S H2SB 0.9800 .
C2S H2SC 0.9800 .
loop_
_geom_torsion_atom_site_label_1
_geom_torsion_atom_site_label_2
_geom_torsion_atom_site_label_3
_geom_torsion_atom_site_label_4
_geom_torsion
_geom_torsion_site_symmetry_1
_geom_torsion_site_symmetry_4
Zn1 O1 C1 O2 7.8(6) . .
Zn1 O1 C1 C2 -169.6(3) . .
Zn1 O3 C20 O4 -11.8(7) 2_547 .
Zn1 O3 C20 C18 170.6(3) 2_547 .
Zn1 O4 C20 O3 36.2(9) 4_676 .
Zn1 O4 C20 C18 -146.1(5) 4_676 .
Zn1 N3 C39 C38 177.5(3) . .
Zn1 N3 C40 C41 -177.5(3) . .
O1 C1 C2 C3 160.5(4) . .
O1 C1 C2 C7 -15.7(6) . .
O2 C1 C2 C3 -17.0(6) . .
O2 C1 C2 C7 166.8(5) . .
O5 C29 C30 C25 -176.5(4) . .
O5 C31 C32 O6 -66.7(4) . .
O6 C33 C34 O7 -68.8(5) . .
O8 C25 C26 C27 -176.8(4) . .
O8 C25 C30 C29 175.4(4) . .
N1 C9 C10 N2 1.6(4) . .
N1 C9 C10 C11 -178.2(3) . .
N1 C21 C22 C23 -34.8(6) . .
N1 C21 C22 C24 149.7(4) . .
N2 C10 C11 C12 -178.2(4) . .
N2 C10 C11 C14 0.0(6) . .
N2 C21 C22 C23 141.0(4) . .
N2 C21 C22 C24 -34.6(5) . .
N3 C40 C41 C37 -1.5(7) . .
C1 C2 C3 C4 -176.5(4) . .
C1 C2 C7 C6 176.3(4) . .
C2 C3 C4 C5 1.0(6) . .
C2 C3 C4 C8 -177.2(4) . .
C3 C2 C7 C6 0.1(7) . .
C3 C4 C5 C6 -2.0(6) . .
C3 C4 C8 C9 -40.4(5) . .
C3 C4 C8 C13 136.6(4) . .
C4 C5 C6 C7 2.0(7) . .
C4 C8 C9 N1 -6.7(6) . .
C4 C8 C9 C10 174.9(3) . .
C4 C8 C13 C12 -175.1(4) . .
C5 C4 C8 C9 141.4(4) . .
C5 C4 C8 C13 -41.5(6) . .
C5 C6 C7 C2 -1.1(8) . .
C7 C2 C3 C4 -0.1(6) . .
C8 C4 C5 C6 176.2(4) . .
C8 C9 C10 N2 -179.7(3) . .
C8 C9 C10 C11 0.5(6) . .
C9 N1 C21 N2 -0.6(4) . .
C9 N1 C21 C22 175.4(3) . .
C9 C8 C13 C12 2.2(6) . .
C9 C10 C11 C12 1.5(6) . .
C9 C10 C11 C14 179.6(3) . .
C10 N2 C21 N1 1.6(4) . .
C10 N2 C21 C22 -174.5(3) . .
C10 C11 C12 C13 -1.7(6) . .
C10 C11 C14 C15 -53.1(5) . .
C10 C11 C14 C19 128.5(4) . .
C11 C12 C13 C8 -0.2(6) . .
C11 C14 C15 C16 -178.5(4) . .
C11 C14 C19 C18 177.5(3) . .
C12 C11 C14 C15 124.9(4) . .
C12 C11 C14 C19 -53.4(5) . .
C13 C8 C9 N1 176.1(4) . .
C13 C8 C9 C10 -2.3(5) . .
C14 C11 C12 C13 -179.8(4) . .
C14 C15 C16 C17 2.0(6) . .
C15 C14 C19 C18 -1.0(5) . .
C15 C16 C17 C18 -3.0(6) . .
C16 C17 C18 C19 2.0(6) . .
C16 C17 C18 C20 178.9(4) . .
C17 C18 C19 C14 0.0(5) . .
C17 C18 C20 O3 177.2(4) . .
C17 C18 C20 O4 -0.6(6) . .
C19 C14 C15 C16 0.0(6) . .
C19 C18 C20 O3 -5.9(5) . .
C19 C18 C20 O4 176.4(4) . .
C20 C18 C19 C14 -176.9(3) . .
C21 N1 C9 C8 -179.2(4) . .
C21 N1 C9 C10 -0.6(4) . .
C21 N2 C10 C9 -1.9(4) . .
C21 N2 C10 C11 177.8(4) . .
C21 C22 C23 C24 -175.3(3) . 3_578
C21 C22 C24 C23 175.2(3) . 3_578
C23 C22 C24 C23 -0.3(6) . 3_578
C24 C22 C23 C24 0.3(6) . 3_578
C25 O8 C36 C35 157.0(4) . 3_378
C25 C26 C27 C28 0.2(6) . .
C25 C26 C27 C37 -177.1(4) . .
C26 C25 C30 C29 -3.0(6) . .
C26 C27 C28 C29 -0.3(6) . .
C26 C27 C37 C38 22.8(6) . .
C26 C27 C37 C41 -159.6(4) . .
C27 C28 C29 O5 178.2(4) . .
C27 C28 C29 C30 -1.2(6) . .
C27 C37 C38 C39 174.6(4) . .
C27 C37 C41 C40 -174.6(4) . .
C28 C27 C37 C38 -154.5(4) . .
C28 C27 C37 C41 23.1(6) . .
C28 C29 C30 C25 2.9(6) . .
C29 O5 C31 C32 167.5(4) . .
C30 C25 C26 C27 1.5(6) . .
C31 O5 C29 C28 -175.3(3) . .
C31 O5 C29 C30 4.2(6) . .
C32 O6 C33 C34 168.2(4) . .
C33 O6 C32 C31 -174.5(4) . .
C34 O7 C35 C36 178.5(4) . 3_378
C35 O7 C34 C33 -163.5(4) . .
C36 O8 C25 C26 4.9(6) . .
C36 O8 C25 C30 -173.5(4) . .
C37 C27 C28 C29 177.0(4) . .
C37 C38 C39 N3 1.5(7) . .
C38 C37 C41 C40 3.1(6) . .
C39 N3 C40 C41 -0.3(6) . .
C3SAa N1S C0AA O1S -159.3(11) . .
C3SBb N1S C0AA O1S 147.5(12) . .
C3SBb N1S C1S C2S 123.7(14) . .
C3SAa N1S C1S C2S 72.7(14) . .
C40 N3 C39 C38 0.3(6) . .
C41 C37 C38 C39 -3.2(6) . .
C0AA N1S C3SBb C4SBb 82(3) . .
C0AA N1S C3SAa C4SAa 100(3) . .
C0AA N1S C1S C2S -92.9(14) . .
C1S N1S C3SAa C4SAa -66(3) . .
C1S N1S C3SBb C4SBb -133(2) . .
C1S N1S C0AA O1S 5.2(15) . .
loop_
_smtbx_masks_void_nr
_smtbx_masks_void_average_x
_smtbx_masks_void_average_y
_smtbx_masks_void_average_z
_smtbx_masks_void_volume
_smtbx_masks_void_count_electrons
_smtbx_masks_void_content
1 -0.009 0.098 0.185 200.5 49.3 C5H11NO
2 0.009 -0.098 0.815 200.5 49.5 C5H11NO
3 -0.009 0.402 0.685 200.5 49.3 C5H11NO
4 0.009 0.598 0.315 200.5 49.4 C5H11NO
