#------------------------------------------------------------------------------
#$Date: 2017-05-06 01:10:37 +0300 (Sat, 06 May 2017) $
#$Revision: 196450 $
#$URL: file:///home/coder/svn-repositories/cod/cif/7/04/24/7042415.cif $
#------------------------------------------------------------------------------
#
# This file is available in the Crystallography Open Database (COD),
# http://www.crystallography.net/
#
# All data on this site have been placed in the public domain by the
# contributors.
#
data_7042415
loop_
_publ_author_name
'Han, Yongqiang'
'Yan, Pengfei'
'Sun, Jingwen'
'An, Guanghui'
'Yao, Xu'
'Li, Yuxin'
'Li, Guangming'
_publ_section_title
;
 Luminescence and white-light emitting luminescent sensor of
 tetrafluoroterephthalate-lanthanide metal-organic frameworks.
;
_journal_issue                   14
_journal_name_full
'Dalton transactions (Cambridge, England : 2003)'
_journal_page_first              4642
_journal_page_last               4653
_journal_paper_doi               10.1039/c7dt00215g
_journal_volume                  46
_journal_year                    2017
_chemical_formula_moiety         'C12 F6 O7 Pr'
_chemical_formula_sum            'C12 F6 O7 Pr'
_chemical_formula_weight         511.03
_space_group_crystal_system      monoclinic
_space_group_IT_number           14
_space_group_name_Hall           '-P 2ybc'
_space_group_name_H-M_alt        'P 1 21/c 1'
_symmetry_space_group_name_Hall  '-P 2ybc'
_symmetry_space_group_name_H-M   'P 1 21/c 1'
_audit_creation_date             2017-03-03
_audit_creation_method
;
Olex2 1.2
(compiled 2017.03.02 svn.r3394 for OlexSys, GUI svn.r5324)
;
_audit_update_record
;
2017-03-08 deposited with the CCDC.
2017-03-09 downloaded from the CCDC.
;
_cell_angle_alpha                90
_cell_angle_beta                 98.851(5)
_cell_angle_gamma                90
_cell_formula_units_Z            4
_cell_length_a                   10.212(5)
_cell_length_b                   21.288(5)
_cell_length_c                   7.905(5)
_cell_measurement_reflns_used    2022
_cell_measurement_temperature    293(2)
_cell_measurement_theta_max      29.5060
_cell_measurement_theta_min      3.2285
_cell_volume                     1698.0(14)
_computing_data_collection
'CrysAlisPro, Agilent Technologies,Version 1.171.35.21 (release 20-01-2012 CrysAlis171 .NET)(compiled Jan 23 2012,18:06:46)'
_computing_molecular_graphics    'Olex2 (Dolomanov et al., 2009)'
_computing_publication_material  '(K. Brandenburg, Diamond 3.1, 2009)'
_computing_structure_refinement  'ShelXL (Sheldrick, 2015)'
_computing_structure_solution    'SHELXS-2016/6 (Sheldrick, 2015)'
_diffrn_ambient_temperature      293(2)
_diffrn_measured_fraction_theta_full 0.998
_diffrn_measured_fraction_theta_max 0.998
_diffrn_measurement_device_type  'multiwire proportional'
_diffrn_measurement_method       'phi and omega scans'
_diffrn_radiation_monochromator  graphite
_diffrn_radiation_type           MoK\a
_diffrn_radiation_wavelength     0.71069
_diffrn_reflns_av_R_equivalents  0.0407
_diffrn_reflns_av_unetI/netI     0.0686
_diffrn_reflns_Laue_measured_fraction_full 0.998
_diffrn_reflns_Laue_measured_fraction_max 0.998
_diffrn_reflns_limit_h_max       12
_diffrn_reflns_limit_h_min       -11
_diffrn_reflns_limit_k_max       25
_diffrn_reflns_limit_k_min       -25
_diffrn_reflns_limit_l_max       9
_diffrn_reflns_limit_l_min       -4
_diffrn_reflns_number            5858
_diffrn_reflns_point_group_measured_fraction_full 0.998
_diffrn_reflns_point_group_measured_fraction_max 0.998
_diffrn_reflns_theta_full        24.998
_diffrn_reflns_theta_max         24.998
_diffrn_reflns_theta_min         3.235
_exptl_absorpt_coefficient_mu    2.962
_exptl_absorpt_correction_T_max  0.623
_exptl_absorpt_correction_T_min  0.496
_exptl_absorpt_correction_type   multi-scan
_exptl_absorpt_process_details
;
CrysAlisPro, Agilent Technologies,
Version 1.171.35.21 (release 20-01-2012 CrysAlis171 .NET)
(compiled Jan 23 2012,18:06:46)
Empirical absorption correction using spherical harmonics,
 implemented in SCALE3 ABSPACK scaling algorithm.
;
_exptl_crystal_colour            green
_exptl_crystal_density_diffrn    1.999
_exptl_crystal_description       block
_exptl_crystal_F_000             964
_exptl_crystal_size_max          0.24
_exptl_crystal_size_mid          0.2
_exptl_crystal_size_min          0.16
_refine_diff_density_max         2.867
_refine_diff_density_min         -1.441
_refine_diff_density_rms         0.195
_refine_ls_extinction_method     none
_refine_ls_goodness_of_fit_ref   1.066
_refine_ls_hydrogen_treatment    undef
_refine_ls_matrix_type           full
_refine_ls_number_parameters     235
_refine_ls_number_reflns         2983
_refine_ls_number_restraints     3
_refine_ls_restrained_S_all      1.066
_refine_ls_R_factor_all          0.0675
_refine_ls_R_factor_gt           0.0531
_refine_ls_shift/su_max          0.000
_refine_ls_shift/su_mean         0.000
_refine_ls_structure_factor_coef Fsqd
_refine_ls_weighting_details
'w=1/[\s^2^(Fo^2^)+(0.0516P)^2^+3.5993P] where P=(Fo^2^+2Fc^2^)/3'
_refine_ls_weighting_scheme      calc
_refine_ls_wR_factor_gt          0.1183
_refine_ls_wR_factor_ref         0.1256
_reflns_Friedel_coverage         0.000
_reflns_number_gt                2354
_reflns_number_total             2988
_reflns_threshold_expression     'I > 2\s(I)'
_cod_data_source_file            c7dt00215g2.cif
_cod_data_source_block           1-pr-3d_sq
_cod_depositor_comments
'Adding full bibliography for 7042409--7042422.cif.'
_cod_database_code               7042415
_shelx_shelxl_version_number     2016/6
_shelx_space_group_comment
;
The symmetry employed for this shelxl refinement is uniquely defined
by the following loop, which should always be used as a source of
symmetry information in preference to the above space-group names.
They are only intended as comments.
;
_shelx_estimated_absorpt_t_max   0.649
_shelx_estimated_absorpt_t_min   0.537
_olex2_refinement_description
;
1. Restrained distances
 C3-C1
 1.395 with sigma of 0.02
 C3-C2
 1.395 with sigma of 0.02
 C2-C1
 2.4 with sigma of 0.04
;
_shelx_res_file
;
TITL 1-Pr-3D in P2(1)/c
    1-pr-3d_sq.res
    created by SHELXL-2016/6 at 16:35:05 on 03-Mar-2017
CELL 0.71069 10.212 21.288 7.905 90 98.851 90
ZERR 4 0.005 0.005 0.005 0.005 0.005 0.005
LATT 1
SYMM -X,0.5+Y,0.5-Z
SFAC C F O Pr
UNIT 48 24 28 4
DFIX 1.395 C3 C1
DFIX 1.395 C3 C2
DANG 2.4 C2 C1

L.S. 5 0 31
PLAN  25
SIZE 0.24 0.2 0.16
ABIN
fmap 2
acta
MERG 2
OMIT -3 50
REM <olex2.extras>
REM <HklSrc "%.\\1-pr-3d.hkl">
REM </olex2.extras>

WGHT    0.051600    3.599300
FVAR       0.08091
PR1   4    0.010555    0.215047    0.004933    11.00000    0.01620    0.01840 =
         0.01387   -0.00085    0.00704    0.00005
O4    3   -0.129059    0.259465   -0.251528    11.00000    0.01659    0.04222 =
         0.03558    0.00873    0.00858   -0.00140
O1    3    0.246422    0.189928   -0.029691    11.00000    0.02591    0.05506 =
         0.02829    0.01240    0.01273    0.00483
O3    3   -0.224478    0.183766    0.033783    11.00000    0.02711    0.06550 =
         0.02981   -0.01495    0.01432   -0.01234
F3    2   -0.410644    0.122706    0.241587    11.00000    0.03368    0.04070 =
         0.08803    0.00335    0.02446    0.00496
C5    1   -0.230891    0.216663    0.161670    11.00000    0.01334    0.02501 =
         0.02694    0.00189    0.00606    0.00216
O2    3    0.152211    0.257985   -0.217127    11.00000    0.01282    0.04706 =
         0.03349    0.01208    0.00753    0.00553
F6    2   -0.334019    0.338778    0.177523    11.00000    0.02735    0.03849 =
         0.06681    0.01205    0.02056   -0.00326
C10   1    0.252933    0.228006   -0.143010    11.00000    0.02005    0.03839 =
         0.01781    0.00136    0.00418   -0.00279
O6    3   -0.010180    0.132764   -0.208921    11.00000    0.05888    0.02457 =
         0.01874   -0.00394    0.01758    0.00199
O5    3    0.043226    0.118679    0.180647    11.00000    0.06645    0.03797 =
         0.03402    0.01412    0.00489   -0.00476
F5    2    0.431872    0.135565   -0.227540    11.00000    0.03635    0.04074 =
         0.07521   -0.00220    0.02304   -0.00511
F4    2   -0.643734    0.147776    0.337769    11.00000    0.02973    0.04587 =
         0.09146    0.01276    0.02570   -0.00868
F2    2    0.230199    0.059015   -0.387719    11.00000    0.05197    0.08192 =
         0.18429   -0.07372    0.00958   -0.01306
C6    1   -0.363700    0.230123    0.211607    11.00000    0.01460    0.04137 =
         0.01665    0.00496    0.00561   -0.00054
C7    1   -0.447968    0.182903    0.250300    11.00000    0.03062    0.01861 =
         0.04038    0.00018    0.00950    0.00661
C3    1    0.000261    0.060169   -0.433269    11.00000    0.06056    0.01938 =
         0.01459   -0.00355    0.00825    0.00463
C9    1    0.387390    0.243430   -0.193959    11.00000    0.01095    0.04833 =
         0.02261    0.00524    0.00249   -0.00172
C4    1    0.000725    0.127179   -0.363562    11.00000    0.05202    0.02027 =
         0.02433   -0.00809    0.01358    0.00332
C8    1   -0.568992    0.196324    0.294756    11.00000    0.01476    0.04628 =
         0.03115    0.01353    0.00360   -0.01164
C12   1   -0.408937    0.291954    0.221575    11.00000    0.02022    0.03985 =
         0.02134   -0.00090    0.00295    0.00000
O7    3    0.014498    0.330167    0.030748    11.00000    0.12385    0.01188 =
         0.03883   -0.00176    0.01862    0.00215
C2    1    0.117505    0.029589   -0.442160    11.00000    0.04683    0.03577 =
         0.05097   -0.02126    0.01332   -0.00156
F1    2   -0.230733    0.059250   -0.484471    11.00000    0.05727    0.07169 =
         0.17211   -0.06549    0.00566    0.01885
C1    1   -0.116933    0.029860   -0.491630    11.00000    0.05322    0.02502 =
         0.04566   -0.01242    0.00945    0.00483
C11   1    0.470564    0.196387   -0.232420    11.00000    0.01814    0.05065 =
         0.02467   -0.00965    0.00615   -0.00815
HKLF 4




REM  1-Pr-3D in P2(1)/c
REM R1 =  0.0531 for    2354 Fo > 4sig(Fo)  and  0.0675 for all    2983 data
REM    235 parameters refined using      3 restraints

END

WGHT      0.0516      3.5993

REM Highest difference peak  2.867,  deepest hole -1.441,  1-sigma level  0.195
Q1    1   0.0033  0.2857  0.1065  11.00000  0.05    2.87
Q2    1   0.0058  0.2836 -0.1051  11.00000  0.05    2.79
Q3    1  -0.0018  0.2148 -0.2150  11.00000  0.05    1.97
Q4    1  -0.0185  0.2185 -0.0992  11.00000  0.05    1.82
Q5    1   0.0030  0.2820 -0.2940  11.00000  0.05    1.65
Q6    1   0.0845  0.2327  0.0529  11.00000  0.05    1.05
Q7    1  -0.0236  0.2232  0.0540  11.00000  0.05    0.88
Q8    1   0.0003  0.2072  0.0285  11.00000  0.05    0.79
Q9    1  -0.0198  0.1930  0.0387  11.00000  0.05    0.77
Q10   1  -0.0017  0.1426  0.1351  11.00000  0.05    0.74
Q11   1  -0.1072  0.2172 -0.0538  11.00000  0.05    0.71
Q12   1  -0.0583  0.1760 -0.0864  11.00000  0.05    0.65
Q13   1   0.0149  0.1513 -0.0972  11.00000  0.05    0.64
Q14   1   0.3604  0.1616 -0.1790  11.00000  0.05    0.61
Q15   1  -0.0244  0.3528 -0.0991  11.00000  0.05    0.58
Q16   1   0.0005  0.1248  0.2761  11.00000  0.05    0.58
Q17   1   0.4311  0.1371 -0.3510  11.00000  0.05    0.57
Q18   1   0.1322  0.2148 -0.0582  11.00000  0.05    0.57
Q19   1  -0.0016  0.1293  0.0117  11.00000  0.05    0.55
Q20   1  -0.3420  0.1576  0.1720  11.00000  0.05    0.55
Q21   1   0.0750  0.0720  0.1842  11.00000  0.05    0.54
Q22   1  -0.5555  0.1541  0.4509  11.00000  0.05    0.54
Q23   1   0.0755  0.1889  0.0379  11.00000  0.05    0.53
Q24   1   0.4340  0.1329  0.0130  11.00000  0.05    0.52
Q25   1  -0.4205  0.3718  0.0860  11.00000  0.05    0.51
;
_shelx_res_checksum              8406
_shelx_fab_file
;
    2    0    0    -20.86      0.00
    3    0    0     -7.44      0.00
    4    0    0      0.80      0.00
    5    0    0      0.13      0.00
    6    0    0     -3.94      0.00
    7    0    0      0.01      0.00
    8    0    0     -0.72      0.00
    9    0    0      1.08      0.00
   10    0    0      1.14      0.00
   11    0    0      2.22      0.00
   12    0    0      1.71      0.00
    2    1    0      0.61      0.00
    3    1    0      0.51      0.00
    4    1    0     -0.55      0.00
    5    1    0      0.40      0.00
    6    1    0     -0.47      0.00
    7    1    0      0.08      0.00
    8    1    0      0.89      0.00
    9    1    0      0.11      0.00
   10    1    0     -0.70      0.00
   11    1    0      0.20      0.00
    2    2    0    -17.06      0.00
    3    2    0     -7.44      0.00
    4    2    0      0.46      0.00
    5    2    0     -0.94      0.00
    6    2    0     -3.27      0.00
    7    2    0      0.09      0.00
    8    2    0     -0.41      0.00
    9    2    0      1.48      0.00
   10    2    0      0.28      0.00
   11    2    0      2.01      0.00
    1    3    0     -0.77      0.00
    2    3    0      1.33      0.00
    3    3    0      0.95      0.00
    4    3    0     -0.95      0.00
    5    3    0      0.94      0.00
    6    3    0     -1.20      0.00
    7    3    0      0.40      0.00
    8    3    0      2.44      0.00
    9    3    0     -0.21      0.00
   10    3    0     -1.12      0.00
   11    3    0      0.04      0.00
    0    4    0     69.83      0.00
    1    4    0      1.51      0.00
    2    4    0     -9.00      0.00
    3    4    0     -6.13      0.00
    4    4    0     -0.87      0.00
    5    4    0     -3.55      0.00
    6    4    0     -1.51      0.00
    7    4    0      0.59      0.00
    8    4    0     -0.08      0.00
    9    4    0      1.93      0.00
   10    4    0     -1.00      0.00
   11    4    0      1.57      0.00
    1    5    0     -2.25      0.00
    2    5    0      0.91      0.00
    3    5    0      0.19      0.00
    4    5    0      0.13      0.00
    5    5    0      0.86      0.00
    6    5    0     -1.24      0.00
    7    5    0      0.67      0.00
    8    5    0      3.33      0.00
    9    5    0     -1.27      0.00
   10    5    0     -0.08      0.00
   11    5    0     -0.79      0.00
    0    6    0     33.78      0.00
    1    6    0      6.76      0.00
    2    6    0     -2.46      0.00
    3    6    0     -2.74      0.00
    4    6    0     -3.05      0.00
    5    6    0     -6.02      0.00
    6    6    0      0.29      0.00
    7    6    0      1.73      0.00
    8    6    0     -0.52      0.00
    9    6    0      1.57      0.00
   10    6    0     -1.24      0.00
   11    6    0      1.51      0.00
    1    7    0     -3.56      0.00
    2    7    0     -0.36      0.00
    3    7    0     -1.45      0.00
    4    7    0      1.94      0.00
    5    7    0      0.50      0.00
    6    7    0     -0.26      0.00
    7    7    0      0.16      0.00
    8    7    0      3.16      0.00
    9    7    0     -1.91      0.00
   10    7    0      0.78      0.00
   11    7    0     -1.32      0.00
    0    8    0     15.27      0.00
    1    8    0      6.40      0.00
    2    8    0      0.34      0.00
    3    8    0      0.59      0.00
    4    8    0     -4.91      0.00
    5    8    0     -6.77      0.00
    6    8    0      1.22      0.00
    7    8    0      2.99      0.00
    8    8    0     -1.38      0.00
    9    8    0      0.52      0.00
   10    8    0     -0.86      0.00
   11    8    0      2.17      0.00
    1    9    0     -3.69      0.00
    2    9    0     -1.40      0.00
    3    9    0     -3.02      0.00
    4    9    0      2.94      0.00
    5    9    0      0.62      0.00
    6    9    0      1.15      0.00
    7    9    0     -1.27      0.00
    8    9    0      1.93      0.00
    9    9    0     -1.30      0.00
   10    9    0     -0.05      0.00
   11    9    0     -0.59      0.00
    0   10    0      9.62      0.00
    1   10    0      3.57      0.00
    2   10    0      1.27      0.00
    3   10    0      1.22      0.00
    4   10    0     -5.22      0.00
    5   10    0     -5.73      0.00
    6   10    0      1.34      0.00
    7   10    0      3.51      0.00
    8   10    0     -1.61      0.00
    9   10    0     -0.29      0.00
   10   10    0     -1.22      0.00
   11   10    0      2.94      0.00
    1   11    0     -2.66      0.00
    2   11    0     -1.44      0.00
    3   11    0     -3.68      0.00
    4   11    0      2.42      0.00
    5   11    0      1.53      0.00
    6   11    0      1.75      0.00
    7   11    0     -2.57      0.00
    8   11    0      0.20      0.00
    9   11    0     -0.13      0.00
   10   11    0     -1.85      0.00
    0   12    0      6.67      0.00
    1   12    0      1.82      0.00
    2   12    0      2.10      0.00
    3   12    0     -0.26      0.00
    4   12    0     -3.96      0.00
    5   12    0     -4.18      0.00
    6   12    0      1.35      0.00
    7   12    0      3.14      0.00
    8   12    0     -0.87      0.00
    9   12    0     -0.26      0.00
   10   12    0     -2.37      0.00
    1   13    0     -1.26      0.00
    2   13    0     -0.78      0.00
    3   13    0     -3.27      0.00
    4   13    0      1.07      0.00
    5   13    0      2.61      0.00
    6   13    0      1.02      0.00
    7   13    0     -2.66      0.00
    8   13    0     -1.25      0.00
    9   13    0      0.41      0.00
   10   13    0     -2.67      0.00
    0   14    0      2.99      0.00
    1   14    0      1.51      0.00
    2   14    0      2.42      0.00
    3   14    0     -1.17      0.00
    4   14    0     -2.21      0.00
    5   14    0     -2.97      0.00
    6   14    0      1.52      0.00
    7   14    0      2.38      0.00
    8   14    0      0.23      0.00
    9   14    0      0.20      0.00
    1   15    0     -0.17      0.00
    2   15    0     -0.28      0.00
    3   15    0     -2.31      0.00
    4   15    0      0.10      0.00
    5   15    0      3.07      0.00
    6   15    0     -0.16      0.00
    7   15    0     -1.86      0.00
    8   15    0     -1.88      0.00
    9   15    0      0.21      0.00
    0   16    0      0.77      0.00
    1   16    0      1.37      0.00
    2   16    0      1.36      0.00
    3   16    0     -0.50      0.00
    4   16    0     -1.08      0.00
    5   16    0     -1.64      0.00
    6   16    0      1.32      0.00
    7   16    0      1.59      0.00
    8   16    0      1.10      0.00
    9   16    0      0.32      0.00
    1   17    0      0.38      0.00
    2   17    0     -0.24      0.00
    3   17    0     -1.65      0.00
    4   17    0     -0.04      0.00
    5   17    0      2.91      0.00
    6   17    0     -0.56      0.00
    7   17    0     -1.47      0.00
    8   17    0     -1.54      0.00
    0   18    0      1.19      0.00
    1   18    0      0.97      0.00
    2   18    0     -0.59      0.00
    3   18    0      0.37      0.00
    4   18    0     -0.91      0.00
    5   18    0      0.44      0.00
    6   18    0      0.47      0.00
    7   18    0      0.65      0.00
    8   18    0      1.57      0.00
    1   19    0      0.60      0.00
    2   19    0     -0.22      0.00
    3   19    0     -1.70      0.00
    4   19    0      0.35      0.00
    5   19    0      2.75      0.00
    6   19    0     -0.08      0.00
    7   19    0     -2.04      0.00
    0   20    0      2.61      0.00
    1   20    0      0.71      0.00
    2   20    0     -2.14      0.00
    3   20    0      0.23      0.00
    4   20    0     -1.24      0.00
    5   20    0      2.60      0.00
    6   20    0     -0.50      0.00
    7   20    0     -0.35      0.00
    1   21    0      0.73      0.00
    2   21    0      0.06      0.00
    3   21    0     -2.12      0.00
    4   21    0      0.82      0.00
    5   21    0      2.79      0.00
    6   21    0      0.43      0.00
    0   22    0      3.05      0.00
    1   22    0      0.71      0.00
    2   22    0     -2.65      0.00
    3   22    0     -0.54      0.00
    4   22    0     -1.28      0.00
    5   22    0      3.44      0.00
    1   23    0      0.87      0.00
    2   23    0      0.34      0.00
    3   23    0     -2.14      0.00
    4   23    0      1.10      0.00
    5   23    0      2.62      0.00
    0   24    0      2.06      0.00
    1   24    0      0.73      0.00
    2   24    0     -2.30      0.00
    3   24    0     -1.03      0.00
    1   25    0      0.81      0.00
  -12    1    1      1.31      0.00
  -11    1    1      0.78      0.00
  -10    1    1      4.56      0.00
   -9    1    1     -0.73      0.00
   -8    1    1      1.05      0.00
   -7    1    1     -0.31      0.00
   -6    1    1     -2.56      0.00
   -5    1    1     -1.94      0.00
   -4    1    1      0.51      0.00
   -3    1    1     -2.97      0.00
   -2    1    1    -26.72      0.00
    1    1    1     -7.94      0.00
    2    1    1    -20.68      0.00
    3    1    1     -1.39      0.00
    4    1    1      0.85      0.00
    5    1    1     -1.31      0.00
    6    1    1     -1.39      0.00
    7    1    1     -1.04      0.00
    8    1    1      0.57      0.00
    9    1    1     -1.32      0.00
   10    1    1      0.77      0.00
   11    1    1      0.61      0.00
  -12    2    1     -1.51      0.00
  -11    2    1      0.30      0.00
  -10    2    1      1.61      0.00
   -9    2    1     -1.70      0.00
   -8    2    1     -0.40      0.00
   -7    2    1      0.05      0.00
   -6    2    1     -0.66      0.00
   -5    2    1      0.55      0.00
   -4    2    1     -1.16      0.00
   -3    2    1      0.90      0.00
   -2    2    1      1.66      0.00
   -1    2    1     -2.00      0.00
    0    2    1     -2.32      0.00
    1    2    1     -0.31      0.00
    2    2    1      2.14      0.00
    3    2    1      1.07      0.00
    4    2    1      0.45      0.00
    5    2    1     -0.44      0.00
    6    2    1      0.20      0.00
    7    2    1     -0.37      0.00
    8    2    1      1.13      0.00
    9    2    1     -0.20      0.00
   10    2    1     -0.58      0.00
   11    2    1      0.47      0.00
  -12    3    1      2.19      0.00
  -11    3    1      0.05      0.00
  -10    3    1      2.46      0.00
   -9    3    1      0.25      0.00
   -8    3    1      0.77      0.00
   -7    3    1      0.75      0.00
   -6    3    1     -2.18      0.00
   -5    3    1     -3.25      0.00
   -4    3    1      0.20      0.00
   -3    3    1     -4.10      0.00
   -2    3    1    -16.11      0.00
   -1    3    1     28.47      0.00
    0    3    1     49.83      0.00
    1    3    1     -2.60      0.00
    2    3    1    -16.76      0.00
    3    3    1     -2.39      0.00
    4    3    1      0.37      0.00
    5    3    1     -1.40      0.00
    6    3    1     -1.17      0.00
    7    3    1     -0.95      0.00
    8    3    1      1.14      0.00
    9    3    1     -0.93      0.00
   10    3    1      0.50      0.00
   11    3    1      0.27      0.00
  -11    4    1      0.37      0.00
  -10    4    1      2.03      0.00
   -9    4    1     -2.37      0.00
   -8    4    1     -1.00      0.00
   -7    4    1     -0.25      0.00
   -6    4    1     -0.63      0.00
   -5    4    1      0.31      0.00
   -4    4    1     -1.57      0.00
   -3    4    1      1.51      0.00
   -2    4    1      3.36      0.00
   -1    4    1     -2.48      0.00
    0    4    1     -4.83      0.00
    1    4    1     -0.28      0.00
    2    4    1      2.61      0.00
    3    4    1      1.55      0.00
    4    4    1      1.10      0.00
    5    4    1     -0.48      0.00
    6    4    1      0.16      0.00
    7    4    1      0.11      0.00
    8    4    1      1.28      0.00
    9    4    1     -0.57      0.00
   10    4    1     -0.35      0.00
   11    4    1      0.34      0.00
  -11    5    1     -0.35      0.00
  -10    5    1      0.17      0.00
   -9    5    1      0.94      0.00
   -8    5    1      0.35      0.00
   -7    5    1      2.22      0.00
   -6    5    1     -1.79      0.00
   -5    5    1     -5.06      0.00
   -4    5    1     -0.71      0.00
   -3    5    1     -3.54      0.00
   -2    5    1     -3.98      0.00
   -1    5    1     20.55      0.00
    0    5    1     28.76      0.00
    1    5    1      2.36      0.00
    2    5    1    -11.39      0.00
    3    5    1     -2.41      0.00
    4    5    1     -1.33      0.00
    5    5    1     -1.55      0.00
    6    5    1     -0.56      0.00
    7    5    1     -0.35      0.00
    8    5    1      1.20      0.00
    9    5    1     -0.57      0.00
   10    5    1      0.81      0.00
   11    5    1     -0.31      0.00
  -11    6    1      0.14      0.00
  -10    6    1      1.46      0.00
   -9    6    1     -2.20      0.00
   -8    6    1     -1.44      0.00
   -7    6    1     -0.53      0.00
   -6    6    1     -0.04      0.00
   -5    6    1     -0.92      0.00
   -4    6    1     -1.15      0.00
   -3    6    1      1.95      0.00
   -2    6    1      4.62      0.00
   -1    6    1     -1.38      0.00
    0    6    1     -6.77      0.00
    1    6    1      0.12      0.00
    2    6    1      0.90      0.00
    3    6    1      1.46      0.00
    4    6    1      1.72      0.00
    5    6    1      0.14      0.00
    6    6    1      0.08      0.00
    7    6    1      0.74      0.00
    8    6    1      0.63      0.00
    9    6    1     -1.04      0.00
   10    6    1      0.26      0.00
   11    6    1     -0.20      0.00
  -11    7    1      0.57      0.00
  -10    7    1     -0.65      0.00
   -9    7    1      0.26      0.00
   -8    7    1      0.21      0.00
   -7    7    1      3.03      0.00
   -6    7    1     -1.69      0.00
   -5    7    1     -6.16      0.00
   -4    7    1     -2.12      0.00
   -3    7    1     -0.30      0.00
   -2    7    1      1.73      0.00
   -1    7    1     12.73      0.00
    0    7    1     15.51      0.00
    1    7    1      3.02      0.00
    2    7    1     -6.81      0.00
    3    7    1     -1.16      0.00
    4    7    1     -3.83      0.00
    5    7    1     -1.56      0.00
    6    7    1      0.23      0.00
    7    7    1      0.70      0.00
    8    7    1      0.57      0.00
    9    7    1     -0.52      0.00
   10    7    1      1.36      0.00
   11    7    1     -0.52      0.00
  -11    8    1     -0.43      0.00
  -10    8    1      1.05      0.00
   -9    8    1     -1.91      0.00
   -8    8    1     -1.29      0.00
   -7    8    1     -0.10      0.00
   -6    8    1      0.33      0.00
   -5    8    1     -2.50      0.00
   -4    8    1     -0.41      0.00
   -3    8    1      2.53      0.00
   -2    8    1      4.65      0.00
   -1    8    1      0.01      0.00
    0    8    1     -6.89      0.00
    1    8    1      0.55      0.00
    2    8    1     -1.69      0.00
    3    8    1      1.07      0.00
    4    8    1      1.74      0.00
    5    8    1      1.60      0.00
    6    8    1      0.06      0.00
    7    8    1      0.08      0.00
    8    8    1      0.36      0.00
    9    8    1     -1.51      0.00
   10    8    1      0.22      0.00
   11    8    1     -0.52      0.00
  -11    9    1      2.33      0.00
  -10    9    1     -0.36      0.00
   -9    9    1     -1.23      0.00
   -8    9    1      0.62      0.00
   -7    9    1      2.61      0.00
   -6    9    1     -1.80      0.00
   -5    9    1     -5.81      0.00
   -4    9    1     -3.17      0.00
   -3    9    1      2.77      0.00
   -2    9    1      1.61      0.00
   -1    9    1      7.40      0.00
    0    9    1     10.45      0.00
    1    9    1      1.21      0.00
    2    9    1     -3.55      0.00
    3    9    1     -0.39      0.00
    4    9    1     -5.50      0.00
    5    9    1     -1.33      0.00
    6    9    1      0.93      0.00
    7    9    1      1.37      0.00
    8    9    1      0.35      0.00
    9    9    1     -0.54      0.00
   10    9    1      0.82      0.00
  -11   10    1     -1.19      0.00
  -10   10    1      1.06      0.00
   -9   10    1     -1.41      0.00
   -8   10    1     -0.51      0.00
   -7   10    1      0.96      0.00
   -6   10    1     -0.08      0.00
   -5   10    1     -3.44      0.00
   -4   10    1      0.17      0.00
   -3   10    1      3.10      0.00
   -2   10    1      3.22      0.00
   -1   10    1      0.66      0.00
    0   10    1     -4.97      0.00
    1   10    1      0.50      0.00
    2   10    1     -3.08      0.00
    3   10    1      0.34      0.00
    4   10    1      1.17      0.00
    5   10    1      3.51      0.00
    6   10    1     -0.33      0.00
    7   10    1     -1.84      0.00
    8   10    1      1.06      0.00
    9   10    1     -2.16      0.00
   10   10    1     -0.58      0.00
  -10   11    1     -0.10      0.00
   -9   11    1     -2.19      0.00
   -8   11    1      1.24      0.00
   -7   11    1      1.64      0.00
   -6   11    1     -1.72      0.00
   -5   11    1     -4.50      0.00
   -4   11    1     -3.08      0.00
   -3   11    1      2.93      0.00
   -2   11    1      0.85      0.00
   -1   11    1      4.78      0.00
    0   11    1      7.60      0.00
    1   11    1      0.47      0.00
    2   11    1     -1.26      0.00
    3   11    1     -0.88      0.00
    4   11    1     -5.32      0.00
    5   11    1     -1.09      0.00
    6   11    1      1.51      0.00
    7   11    1      1.09      0.00
    8   11    1      1.20      0.00
    9   11    1     -0.03      0.00
   10   11    1     -1.20      0.00
  -10   12    1      0.72      0.00
   -9   12    1     -0.05      0.00
   -8   12    1      0.38      0.00
   -7   12    1      1.75      0.00
   -6   12    1     -1.10      0.00
   -5   12    1     -3.15      0.00
   -4   12    1      0.54      0.00
   -3   12    1      3.11      0.00
   -2   12    1      1.11      0.00
   -1   12    1      0.51      0.00
    0   12    1     -2.18      0.00
    1   12    1     -0.02      0.00
    2   12    1     -2.42      0.00
    3   12    1     -0.89      0.00
    4   12    1      0.88      0.00
    5   12    1      4.71      0.00
    6   12    1     -1.35      0.00
    7   12    1     -3.18      0.00
    8   12    1      1.83      0.00
    9   12    1     -2.95      0.00
   10   12    1     -1.11      0.00
  -10   13    1     -0.14      0.00
   -9   13    1     -2.16      0.00
   -8   13    1      1.55      0.00
   -7   13    1      1.29      0.00
   -6   13    1     -1.23      0.00
   -5   13    1     -3.43      0.00
   -4   13    1     -1.96      0.00
   -3   13    1      1.15      0.00
   -2   13    1      1.69      0.00
   -1   13    1      3.53      0.00
    0   13    1      4.19      0.00
    1   13    1      1.09      0.00
    2   13    1      0.04      0.00
    3   13    1     -1.29      0.00
    4   13    1     -3.89      0.00
    5   13    1     -0.93      0.00
    6   13    1      1.82      0.00
    7   13    1      0.42      0.00
    8   13    1      2.24      0.00
    9   13    1      1.18      0.00
   10   13    1     -3.32      0.00
  -10   14    1     -0.28      0.00
   -9   14    1      1.90      0.00
   -8   14    1      0.79      0.00
   -7   14    1      1.77      0.00
   -6   14    1     -2.22      0.00
   -5   14    1     -1.94      0.00
   -4   14    1      0.94      0.00
   -3   14    1      2.33      0.00
   -2   14    1     -0.46      0.00
   -1   14    1     -0.03      0.00
    0   14    1      0.04      0.00
    1   14    1     -0.52      0.00
    2   14    1     -0.87      0.00
    3   14    1     -2.22      0.00
    4   14    1      1.53      0.00
    5   14    1      4.08      0.00
    6   14    1     -2.33      0.00
    7   14    1     -2.54      0.00
    8   14    1      1.35      0.00
    9   14    1     -3.24      0.00
   -9   15    1     -1.69      0.00
   -8   15    1      1.55      0.00
   -7   15    1      1.79      0.00
   -6   15    1     -0.59      0.00
   -5   15    1     -2.96      0.00
   -4   15    1     -0.71      0.00
   -3   15    1      0.04      0.00
   -2   15    1      2.42      0.00
   -1   15    1      2.56      0.00
    0   15    1      1.85      0.00
    1   15    1      1.27      0.00
    2   15    1      0.10      0.00
    3   15    1     -0.59      0.00
    4   15    1     -2.44      0.00
    5   15    1     -0.43      0.00
    6   15    1      1.51      0.00
    7   15    1      0.12      0.00
    8   15    1      2.39      0.00
    9   15    1      2.37      0.00
   -9   16    1      3.05      0.00
   -8   16    1      0.48      0.00
   -7   16    1      1.55      0.00
   -6   16    1     -2.98      0.00
   -5   16    1     -0.90      0.00
   -4   16    1      1.45      0.00
   -3   16    1      1.37      0.00
   -2   16    1     -0.96      0.00
   -1   16    1     -0.69      0.00
    0   16    1      1.16      0.00
    1   16    1     -0.60      0.00
    2   16    1     -0.03      0.00
    3   16    1     -2.80      0.00
    4   16    1      2.54      0.00
    5   16    1      1.99      0.00
    6   16    1     -2.31      0.00
    7   16    1     -0.69      0.00
    8   16    1     -0.30      0.00
    9   16    1     -2.43      0.00
   -8   17    1      1.63      0.00
   -7   17    1      2.10      0.00
   -6   17    1     -0.26      0.00
   -5   17    1     -2.35      0.00
   -4   17    1     -0.10      0.00
   -3   17    1      0.18      0.00
   -2   17    1      1.59      0.00
   -1   17    1      1.81      0.00
    0   17    1      1.80      0.00
    1   17    1      0.60      0.00
    2   17    1     -0.83      0.00
    3   17    1      0.37      0.00
    4   17    1     -1.67      0.00
    5   17    1      0.80      0.00
    6   17    1      0.62      0.00
    7   17    1      0.07      0.00
    8   17    1      1.75      0.00
   -8   18    1     -0.22      0.00
   -7   18    1      1.82      0.00
   -6   18    1     -3.12      0.00
   -5   18    1     -0.97      0.00
   -4   18    1      1.83      0.00
   -3   18    1      1.01      0.00
   -2   18    1     -0.74      0.00
   -1   18    1     -1.36      0.00
    0   18    1      1.38      0.00
    1   18    1     -0.34      0.00
    2   18    1     -0.18      0.00
    3   18    1     -2.18      0.00
    4   18    1      2.66      0.00
    5   18    1      0.11      0.00
    6   18    1     -1.35      0.00
    7   18    1      0.54      0.00
    8   18    1     -1.58      0.00
   -8   19    1      1.84      0.00
   -7   19    1      1.36      0.00
   -6   19    1     -0.26      0.00
   -5   19    1     -1.09      0.00
   -4   19    1     -0.21      0.00
   -3   19    1      0.30      0.00
   -2   19    1      0.05      0.00
   -1   19    1      1.55      0.00
    0   19    1      2.66      0.00
    1   19    1      0.14      0.00
    2   19    1     -1.93      0.00
    3   19    1      0.42      0.00
    4   19    1     -1.51      0.00
    5   19    1      2.28      0.00
    6   19    1     -0.09      0.00
    7   19    1     -0.40      0.00
   -7   20    1      2.44      0.00
   -6   20    1     -2.65      0.00
   -5   20    1     -1.97      0.00
   -4   20    1      1.71      0.00
   -3   20    1      1.34      0.00
   -2   20    1     -0.38      0.00
   -1   20    1     -1.92      0.00
    0   20    1      1.06      0.00
    1   20    1     -0.03      0.00
    2   20    1     -0.42      0.00
    3   20    1     -0.79      0.00
    4   20    1      1.49      0.00
    5   20    1     -0.37      0.00
    6   20    1     -0.41      0.00
    7   20    1      0.49      0.00
   -6   21    1     -0.28      0.00
   -5   21    1      0.24      0.00
   -4   21    1     -0.55      0.00
   -3   21    1     -0.25      0.00
   -2   21    1     -0.88      0.00
   -1   21    1      1.58      0.00
    0   21    1      2.76      0.00
    1   21    1      0.29      0.00
    2   21    1     -2.46      0.00
    3   21    1     -0.23      0.00
    4   21    1     -1.42      0.00
    5   21    1      2.91      0.00
    6   21    1     -0.04      0.00
   -5   22    1     -2.79      0.00
   -4   22    1      1.04      0.00
   -3   22    1      1.71      0.00
   -2   22    1     -0.07      0.00
   -1   22    1     -2.18      0.00
    0   22    1      0.50      0.00
    1   22    1      0.20      0.00
    2   22    1     -0.20      0.00
    3   22    1      0.51      0.00
    4   22    1     -0.01      0.00
    5   22    1      0.09      0.00
   -5   23    1      0.84      0.00
   -4   23    1     -0.58      0.00
   -3   23    1     -0.91      0.00
   -2   23    1     -0.99      0.00
   -1   23    1      1.54      0.00
    0   23    1      1.86      0.00
    1   23    1      0.33      0.00
    2   23    1     -2.20      0.00
    3   23    1     -0.68      0.00
    4   23    1     -0.86      0.00
   -3   24    1      1.58      0.00
   -2   24    1      0.13      0.00
   -1   24    1     -2.04      0.00
    0   24    1      0.10      0.00
    1   24    1      0.27      0.00
    2   24    1      0.20      0.00
    3   24    1      1.10      0.00
   -1   25    1      1.21      0.00
    0   25    1      0.69      0.00
    1   25    1     -0.04      0.00
  -12    0    2      0.44      0.00
  -11    0    2      1.48      0.00
  -10    0    2      2.36      0.00
   -9    0    2      0.08      0.00
   -8    0    2      2.68      0.00
   -7    0    2     -1.24      0.00
   -6    0    2     -3.24      0.00
   -5    0    2     -2.66      0.00
   -4    0    2      4.40      0.00
   -3    0    2     -3.00      0.00
   -2    0    2     -4.80      0.00
   -1    0    2     24.43      0.00
    0    0    2     23.32      0.00
    1    0    2    -11.27      0.00
    2    0    2    -10.62      0.00
    3    0    2     -0.06      0.00
    4    0    2      1.56      0.00
    5    0    2      0.25      0.00
    6    0    2     -0.11      0.00
    7    0    2     -0.31      0.00
    8    0    2     -0.70      0.00
    9    0    2     -0.77      0.00
   10    0    2     -0.83      0.00
   11    0    2      0.02      0.00
  -12    1    2     -0.24      0.00
  -11    1    2      0.17      0.00
  -10    1    2      0.17      0.00
   -9    1    2     -0.57      0.00
   -8    1    2      0.39      0.00
   -7    1    2     -0.38      0.00
   -6    1    2      0.28      0.00
   -5    1    2     -0.73      0.00
   -4    1    2      0.02      0.00
   -3    1    2      0.14      0.00
   -2    1    2      0.75      0.00
   -1    1    2     -1.47      0.00
    0    1    2      0.18      0.00
    1    1    2     -0.19      0.00
    2    1    2     -0.51      0.00
    3    1    2      1.82      0.00
    4    1    2     -0.01      0.00
    5    1    2      0.06      0.00
    6    1    2     -0.07      0.00
    7    1    2     -0.11      0.00
    8    1    2      0.41      0.00
    9    1    2      0.08      0.00
   10    1    2     -0.19      0.00
   11    1    2     -0.21      0.00
  -12    2    2      0.66      0.00
  -11    2    2      0.99      0.00
  -10    2    2      1.86      0.00
   -9    2    2      0.13      0.00
   -8    2    2      2.46      0.00
   -7    2    2     -1.03      0.00
   -6    2    2     -2.83      0.00
   -5    2    2     -2.59      0.00
   -4    2    2      3.80      0.00
   -3    2    2     -2.72      0.00
   -2    2    2     -3.24      0.00
   -1    2    2     22.92      0.00
    0    2    2     19.63      0.00
    1    2    2     -8.86      0.00
    2    2    2    -10.89      0.00
    3    2    2     -0.61      0.00
    4    2    2      1.64      0.00
    5    2    2      0.51      0.00
    6    2    2     -0.39      0.00
    7    2    2     -0.31      0.00
    8    2    2      0.00      0.00
    9    2    2     -1.05      0.00
   10    2    2     -0.68      0.00
   11    2    2     -0.19      0.00
  -12    3    2     -0.04      0.00
  -11    3    2      0.11      0.00
  -10    3    2      0.11      0.00
   -9    3    2     -1.07      0.00
   -8    3    2      0.55      0.00
   -7    3    2     -0.65      0.00
   -6    3    2      0.30      0.00
   -5    3    2     -1.85      0.00
   -4    3    2      0.22      0.00
   -3    3    2      0.47      0.00
   -2    3    2      2.42      0.00
   -1    3    2     -3.83      0.00
    0    3    2     -0.24      0.00
    1    3    2     -0.26      0.00
    2    3    2     -1.29      0.00
    3    3    2      4.44      0.00
    4    3    2      0.14      0.00
    5    3    2      0.25      0.00
    6    3    2     -0.23      0.00
    7    3    2      0.00      0.00
    8    3    2      0.91      0.00
    9    3    2      0.00      0.00
   10    3    2     -0.10      0.00
   11    3    2     -0.84      0.00
  -11    4    2      0.04      0.00
  -10    4    2      0.69      0.00
   -9    4    2      0.22      0.00
   -8    4    2      1.90      0.00
   -7    4    2     -0.44      0.00
   -6    4    2     -2.09      0.00
   -5    4    2     -2.58      0.00
   -4    4    2      2.39      0.00
   -3    4    2     -1.62      0.00
   -2    4    2     -0.43      0.00
   -1    4    2     19.20      0.00
    0    4    2     12.16      0.00
    1    4    2     -4.56      0.00
    2    4    2    -10.93      0.00
    3    4    2     -1.49      0.00
    4    4    2      1.30      0.00
    5    4    2      0.94      0.00
    6    4    2     -0.76      0.00
    7    4    2     -0.20      0.00
    8    4    2      1.25      0.00
    9    4    2     -1.49      0.00
   10    4    2     -0.06      0.00
   11    4    2     -0.96      0.00
  -11    5    2     -0.56      0.00
  -10    5    2     -0.74      0.00
   -9    5    2     -0.50      0.00
   -8    5    2     -0.41      0.00
   -7    5    2      0.12      0.00
   -6    5    2     -0.47      0.00
   -5    5    2     -2.45      0.00
   -4    5    2      0.67      0.00
   -3    5    2      0.98      0.00
   -2    5    2      3.92      0.00
   -1    5    2     -4.75      0.00
    0    5    2     -1.88      0.00
    1    5    2      0.30      0.00
    2    5    2     -1.73      0.00
    3    5    2      4.88      0.00
    4    5    2      0.64      0.00
    5    5    2      0.49      0.00
    6    5    2     -0.29      0.00
    7    5    2      0.60      0.00
    8    5    2      0.79      0.00
    9    5    2     -0.47      0.00
   10    5    2      0.66      0.00
   11    5    2     -1.73      0.00
  -11    6    2     -0.02      0.00
  -10    6    2     -0.32      0.00
   -9    6    2      0.11      0.00
   -8    6    2      1.35      0.00
   -7    6    2      0.21      0.00
   -6    6    2     -1.75      0.00
   -5    6    2     -2.93      0.00
   -4    6    2      0.89      0.00
   -3    6    2      0.43      0.00
   -2    6    2      0.66      0.00
   -1    6    2     14.80      0.00
    0    6    2      6.99      0.00
    1    6    2     -2.78      0.00
    2    6    2     -9.38      0.00
    3    6    2     -1.96      0.00
    4    6    2      0.30      0.00
    5    6    2      0.96      0.00
    6    6    2     -0.84      0.00
    7    6    2      0.27      0.00
    8    6    2      1.84      0.00
    9    6    2     -1.50      0.00
   10    6    2      0.65      0.00
  -11    7    2     -1.40      0.00
  -10    7    2     -1.37      0.00
   -9    7    2      0.15      0.00
   -8    7    2     -1.70      0.00
   -7    7    2      1.65      0.00
   -6    7    2     -1.29      0.00
   -5    7    2     -2.96      0.00
   -4    7    2      1.02      0.00
   -3    7    2      1.95      0.00
   -2    7    2      4.26      0.00
   -1    7    2     -4.27      0.00
    0    7    2     -3.46      0.00
    1    7    2      0.99      0.00
    2    7    2     -1.90      0.00
    3    7    2      3.52      0.00
    4    7    2      1.27      0.00
    5    7    2      1.09      0.00
    6    7    2     -0.45      0.00
    7    7    2      0.81      0.00
    8    7    2      0.51      0.00
    9    7    2     -0.99      0.00
   10    7    2      1.14      0.00
  -11    8    2      1.28      0.00
  -10    8    2     -0.80      0.00
   -9    8    2      0.03      0.00
   -8    8    2      0.96      0.00
   -7    8    2      0.51      0.00
   -6    8    2     -2.07      0.00
   -5    8    2     -3.31      0.00
   -4    8    2     -0.23      0.00
   -3    8    2      2.08      0.00
   -2    8    2      0.41      0.00
   -1    8    2     10.71      0.00
    0    8    2      5.65      0.00
    1    8    2     -3.50      0.00
    2    8    2     -6.33      0.00
    3    8    2     -2.09      0.00
    4    8    2     -0.90      0.00
    5    8    2      0.54      0.00
    6    8    2     -0.68      0.00
    7    8    2      0.85      0.00
    8    8    2      1.82      0.00
    9    8    2     -0.95      0.00
   10    8    2      0.58      0.00
  -11    9    2     -1.89      0.00
  -10    9    2     -0.89      0.00
   -9    9    2      0.11      0.00
   -8    9    2     -1.99      0.00
   -7    9    2      2.77      0.00
   -6    9    2     -1.35      0.00
   -5    9    2     -3.54      0.00
   -4    9    2      0.91      0.00
   -3    9    2      3.17      0.00
   -2    9    2      2.92      0.00
   -1    9    2     -3.14      0.00
    0    9    2     -3.49      0.00
    1    9    2      1.18      0.00
    2    9    2     -1.60      0.00
    3    9    2      1.38      0.00
    4    9    2      1.65      0.00
    5    9    2      2.31      0.00
    6    9    2     -1.10      0.00
    7    9    2      0.06      0.00
    8    9    2      0.67      0.00
    9    9    2     -1.34      0.00
   10    9    2      0.52      0.00
  -11   10    2      2.80      0.00
  -10   10    2     -0.75      0.00
   -9   10    2      0.38      0.00
   -8   10    2      0.68      0.00
   -7   10    2      0.36      0.00
   -6   10    2     -2.64      0.00
   -5   10    2     -3.19      0.00
   -4   10    2     -0.87      0.00
   -3   10    2      1.93      0.00
   -2   10    2      1.27      0.00
   -1   10    2      7.10      0.00
    0   10    2      5.20      0.00
    1   10    2     -3.40      0.00
    2   10    2     -3.35      0.00
    3   10    2     -1.91      0.00
    4   10    2     -1.87      0.00
    5   10    2      0.21      0.00
    6   10    2     -0.41      0.00
    7   10    2      1.00      0.00
    8   10    2      1.92      0.00
    9   10    2     -0.11      0.00
   10   10    2     -0.59      0.00
  -10   11    2      0.12      0.00
   -9   11    2      0.02      0.00
   -8   11    2     -0.84      0.00
   -7   11    2      2.35      0.00
   -6   11    2     -0.81      0.00
   -5   11    2     -3.58      0.00
   -4   11    2      0.45      0.00
   -3   11    2      3.79      0.00
   -2   11    2      0.76      0.00
   -1   11    2     -2.20      0.00
    0   11    2     -2.03      0.00
    1   11    2      0.95      0.00
    2   11    2     -0.76      0.00
    3   11    2     -0.75      0.00
    4   11    2      1.64      0.00
    5   11    2      3.55      0.00
    6   11    2     -2.10      0.00
    7   11    2     -0.88      0.00
    8   11    2      1.04      0.00
    9   11    2     -1.71      0.00
   10   11    2     -0.73      0.00
  -10   12    2     -0.16      0.00
   -9   12    2      0.84      0.00
   -8   12    2      0.67      0.00
   -7   12    2      0.13      0.00
   -6   12    2     -2.79      0.00
   -5   12    2     -2.60      0.00
   -4   12    2     -1.04      0.00
   -3   12    2      0.66      0.00
   -2   12    2      3.33      0.00
   -1   12    2      4.30      0.00
    0   12    2      3.62      0.00
    1   12    2     -1.32      0.00
    2   12    2     -1.73      0.00
    3   12    2     -0.96      0.00
    4   12    2     -2.68      0.00
    5   12    2      0.28      0.00
    6   12    2     -0.13      0.00
    7   12    2      0.79      0.00
    8   12    2      2.13      0.00
    9   12    2      0.80      0.00
  -10   13    2      0.59      0.00
   -9   13    2      0.85      0.00
   -8   13    2      0.85      0.00
   -7   13    2      0.54      0.00
   -6   13    2     -0.62      0.00
   -5   13    2     -2.45      0.00
   -4   13    2      0.23      0.00
   -3   13    2      3.23      0.00
   -2   13    2     -0.72      0.00
   -1   13    2     -1.96      0.00
    0   13    2     -0.38      0.00
    1   13    2      1.00      0.00
    2   13    2     -0.01      0.00
    3   13    2     -2.15      0.00
    4   13    2      1.31      0.00
    5   13    2      3.54      0.00
    6   13    2     -2.48      0.00
    7   13    2     -0.77      0.00
    8   13    2      0.77      0.00
    9   13    2     -2.15      0.00
  -10   14    2      0.81      0.00
   -9   14    2      0.71      0.00
   -8   14    2      1.25      0.00
   -7   14    2      0.16      0.00
   -6   14    2     -2.29      0.00
   -5   14    2     -2.01      0.00
   -4   14    2     -0.85      0.00
   -3   14    2      0.15      0.00
   -2   14    2      4.11      0.00
   -1   14    2      2.84      0.00
    0   14    2      2.07      0.00
    1   14    2      0.63      0.00
    2   14    2     -1.26      0.00
    3   14    2      0.56      0.00
    4   14    2     -3.29      0.00
    5   14    2      0.68      0.00
    6   14    2     -0.15      0.00
    7   14    2      0.90      0.00
    8   14    2      1.78      0.00
    9   14    2      1.55      0.00
   -9   15    2      2.22      0.00
   -8   15    2      1.62      0.00
   -7   15    2     -1.13      0.00
   -6   15    2     -1.27      0.00
   -5   15    2     -0.56      0.00
   -4   15    2      0.48      0.00
   -3   15    2      2.06      0.00
   -2   15    2     -0.98      0.00
   -1   15    2     -2.32      0.00
    0   15    2      0.45      0.00
    1   15    2      1.58      0.00
    2   15    2     -0.20      0.00
    3   15    2     -2.14      0.00
    4   15    2      0.60      0.00
    5   15    2      1.83      0.00
    6   15    2     -1.49      0.00
    7   15    2      0.51      0.00
    8   15    2     -0.41      0.00
   -9   16    2      0.10      0.00
   -8   16    2      2.27      0.00
   -7   16    2      0.33      0.00
   -6   16    2     -1.49      0.00
   -5   16    2     -1.55      0.00
   -4   16    2     -0.57      0.00
   -3   16    2      0.87      0.00
   -2   16    2      2.48      0.00
   -1   16    2      2.62      0.00
    0   16    2      2.03      0.00
    1   16    2      0.75      0.00
    2   16    2     -1.03      0.00
    3   16    2      1.33      0.00
    4   16    2     -3.32      0.00
    5   16    2      1.27      0.00
    6   16    2     -0.86      0.00
    7   16    2      1.55      0.00
    8   16    2      0.84      0.00
   -8   17    2      1.07      0.00
   -7   17    2     -1.46      0.00
   -6   17    2     -2.05      0.00
   -5   17    2      0.92      0.00
   -4   17    2      0.74      0.00
   -3   17    2      1.52      0.00
   -2   17    2     -0.71      0.00
   -1   17    2     -2.75      0.00
    0   17    2      0.44      0.00
    1   17    2      2.13      0.00
    2   17    2     -1.13      0.00
    3   17    2     -0.85      0.00
    4   17    2     -0.66      0.00
    5   17    2     -0.21      0.00
    6   17    2      0.14      0.00
    7   17    2      1.84      0.00
    8   17    2     -1.57      0.00
   -8   18    2      2.93      0.00
   -7   18    2      0.33      0.00
   -6   18    2     -0.80      0.00
   -5   18    2     -1.00      0.00
   -4   18    2     -0.54      0.00
   -3   18    2      1.58      0.00
   -2   18    2      0.28      0.00
   -1   18    2      2.65      0.00
    0   18    2      3.03      0.00
    1   18    2     -0.18      0.00
    2   18    2     -0.64      0.00
    3   18    2      0.58      0.00
    4   18    2     -2.75      0.00
    5   18    2      1.94      0.00
    6   18    2     -1.88      0.00
    7   18    2      1.97      0.00
   -7   19    2     -0.71      0.00
   -6   19    2     -2.00      0.00
   -5   19    2      1.30      0.00
   -4   19    2      0.40      0.00
   -3   19    2      1.93      0.00
   -2   19    2     -0.67      0.00
   -1   19    2     -2.75      0.00
    0   19    2      0.00      0.00
    1   19    2      1.97      0.00
    2   19    2     -1.50      0.00
    3   19    2      0.61      0.00
    4   19    2     -2.19      0.00
    5   19    2     -0.92      0.00
    6   19    2      0.92      0.00
    7   19    2      2.22      0.00
   -7   20    2      0.07      0.00
   -6   20    2     -0.32      0.00
   -5   20    2     -0.47      0.00
   -4   20    2     -0.72      0.00
   -3   20    2      1.36      0.00
   -2   20    2     -0.50      0.00
   -1   20    2      2.05      0.00
    0   20    2      3.57      0.00
    1   20    2     -0.72      0.00
    2   20    2     -0.36      0.00
    3   20    2     -0.74      0.00
    4   20    2     -2.11      0.00
    5   20    2      2.43      0.00
    6   20    2     -2.26      0.00
   -6   21    2     -1.13      0.00
   -5   21    2      0.95      0.00
   -4   21    2     -0.47      0.00
   -3   21    2      2.37      0.00
   -2   21    2     -0.76      0.00
   -1   21    2     -2.28      0.00
    0   21    2     -0.57      0.00
    1   21    2      1.18      0.00
    2   21    2     -0.58      0.00
    3   21    2      1.17      0.00
    4   21    2     -3.16      0.00
    5   21    2     -0.25      0.00
   -5   22    2     -0.30      0.00
   -4   22    2     -0.72      0.00
   -3   22    2      0.64      0.00
   -2   22    2     -0.06      0.00
   -1   22    2      1.06      0.00
    0   22    2      2.94      0.00
    1   22    2     -0.68      0.00
    2   22    2     -0.39      0.00
    3   22    2     -1.30      0.00
    4   22    2     -1.62      0.00
   -4   23    2     -1.14      0.00
   -3   23    2      1.90      0.00
   -2   23    2     -0.55      0.00
   -1   23    2     -1.72      0.00
    0   23    2     -0.94      0.00
    1   23    2      0.37      0.00
    2   23    2      0.81      0.00
    3   23    2      0.78      0.00
   -3   24    2      0.12      0.00
   -2   24    2      0.32      0.00
   -1   24    2      0.48      0.00
    0   24    2      1.53      0.00
    1   24    2     -0.55      0.00
    2   24    2     -0.47      0.00
  -11    1    3      0.98      0.00
  -10    1    3     -0.68      0.00
   -9    1    3      1.57      0.00
   -8    1    3      1.45      0.00
   -7    1    3     -1.56      0.00
   -6    1    3     -4.03      0.00
   -5    1    3     -0.16      0.00
   -4    1    3      6.74      0.00
   -3    1    3      0.58      0.00
   -2    1    3     -0.49      0.00
   -1    1    3     12.93      0.00
    0    1    3      2.31      0.00
    1    1    3    -11.84      0.00
    2    1    3     -5.74      0.00
    3    1    3      1.08      0.00
    4    1    3      2.39      0.00
    5    1    3      0.87      0.00
    6    1    3      0.67      0.00
    7    1    3     -1.23      0.00
    8    1    3      0.32      0.00
    9    1    3     -0.06      0.00
   10    1    3     -2.80      0.00
  -11    2    3      0.60      0.00
  -10    2    3     -0.52      0.00
   -9    2    3      0.22      0.00
   -8    2    3     -0.31      0.00
   -7    2    3      0.76      0.00
   -6    2    3     -0.04      0.00
   -5    2    3     -1.12      0.00
   -4    2    3     -0.23      0.00
   -3    2    3      0.53      0.00
   -2    2    3      0.88      0.00
   -1    2    3     -1.92      0.00
    0    2    3      1.70      0.00
    1    2    3     -0.39      0.00
    2    2    3     -1.47      0.00
    3    2    3      3.27      0.00
    4    2    3     -0.63      0.00
    5    2    3      0.01      0.00
    6    2    3     -0.25      0.00
    7    2    3      0.77      0.00
    8    2    3      0.48      0.00
    9    2    3      0.32      0.00
   10    2    3     -0.57      0.00
  -11    3    3      0.73      0.00
  -10    3    3     -0.87      0.00
   -9    3    3      1.14      0.00
   -8    3    3      1.11      0.00
   -7    3    3     -1.51      0.00
   -6    3    3     -3.36      0.00
   -5    3    3     -0.04      0.00
   -4    3    3      6.11      0.00
   -3    3    3      0.43      0.00
   -2    3    3      0.38      0.00
   -1    3    3     10.92      0.00
    0    3    3      1.61      0.00
    1    3    3    -10.20      0.00
    2    3    3     -5.94      0.00
    3    3    3      0.22      0.00
    4    3    3      2.07      0.00
    5    3    3      0.97      0.00
    6    3    3      0.26      0.00
    7    3    3     -0.20      0.00
    8    3    3      0.48      0.00
    9    3    3     -0.85      0.00
   10    3    3     -2.78      0.00
  -11    4    3     -0.21      0.00
  -10    4    3     -1.30      0.00
   -9    4    3      0.52      0.00
   -8    4    3     -0.18      0.00
   -7    4    3      1.11      0.00
   -6    4    3     -0.34      0.00
   -5    4    3     -1.64      0.00
   -4    4    3     -0.73      0.00
   -3    4    3      1.42      0.00
   -2    4    3      2.01      0.00
   -1    4    3     -2.78      0.00
    0    4    3      1.39      0.00
    1    4    3     -0.40      0.00
    2    4    3     -1.66      0.00
    3    4    3      4.45      0.00
    4    4    3     -0.73      0.00
    5    4    3     -0.15      0.00
    6    4    3     -0.37      0.00
    7    4    3      1.93      0.00
    8    4    3      0.47      0.00
    9    4    3      0.52      0.00
   10    4    3     -0.76      0.00
  -11    5    3      0.54      0.00
  -10    5    3     -1.08      0.00
   -9    5    3      0.39      0.00
   -8    5    3      0.86      0.00
   -7    5    3     -1.38      0.00
   -6    5    3     -2.70      0.00
   -5    5    3      0.11      0.00
   -4    5    3      4.60      0.00
   -3    5    3      0.68      0.00
   -2    5    3      0.91      0.00
   -1    5    3      8.54      0.00
    0    5    3      0.97      0.00
    1    5    3     -8.40      0.00
    2    5    3     -5.57      0.00
    3    5    3     -0.68      0.00
    4    5    3      1.30      0.00
    5    5    3      0.75      0.00
    6    5    3      0.01      0.00
    7    5    3      1.06      0.00
    8    5    3      0.48      0.00
    9    5    3     -1.48      0.00
   10    5    3     -2.56      0.00
  -11    6    3     -2.10      0.00
  -10    6    3     -1.89      0.00
   -9    6    3      0.62      0.00
   -8    6    3      0.22      0.00
   -7    6    3      1.17      0.00
   -6    6    3     -0.48      0.00
   -5    6    3     -2.01      0.00
   -4    6    3     -1.09      0.00
   -3    6    3      2.69      0.00
   -2    6    3      2.63      0.00
   -1    6    3     -2.30      0.00
    0    6    3     -0.60      0.00
    1    6    3     -0.02      0.00
    2    6    3     -0.75      0.00
    3    6    3      3.40      0.00
    4    6    3     -0.15      0.00
    5    6    3     -0.61      0.00
    6    6    3     -0.09      0.00
    7    6    3      2.69      0.00
    8    6    3      0.32      0.00
    9    6    3      0.37      0.00
   10    6    3     -0.44      0.00
  -11    7    3      0.77      0.00
  -10    7    3     -1.08      0.00
   -9    7    3     -0.30      0.00
   -8    7    3      0.93      0.00
   -7    7    3     -1.18      0.00
   -6    7    3     -2.47      0.00
   -5    7    3      0.09      0.00
   -4    7    3      2.15      0.00
   -3    7    3      1.55      0.00
   -2    7    3      0.89      0.00
   -1    7    3      6.85      0.00
    0    7    3      0.73      0.00
    1    7    3     -6.97      0.00
    2    7    3     -4.41      0.00
    3    7    3     -1.09      0.00
    4    7    3      0.46      0.00
    5    7    3      0.05      0.00
    6    7    3      0.08      0.00
    7    7    3      1.71      0.00
    8    7    3      0.33      0.00
    9    7    3     -1.35      0.00
   10    7    3     -2.13      0.00
  -11    8    3     -3.51      0.00
  -10    8    3     -1.58      0.00
   -9    8    3      0.26      0.00
   -8    8    3      0.45      0.00
   -7    8    3      1.25      0.00
   -6    8    3      0.04      0.00
   -5    8    3     -2.84      0.00
   -4    8    3     -0.89      0.00
   -3    8    3      4.01      0.00
   -2    8    3      1.67      0.00
   -1    8    3     -1.25      0.00
    0    8    3     -2.06      0.00
    1    8    3      0.50      0.00
    2    8    3      0.18      0.00
    3    8    3      1.31      0.00
    4    8    3      0.79      0.00
    5    8    3     -0.99      0.00
    6    8    3      0.52      0.00
    7    8    3      1.80      0.00
    8    8    3      1.02      0.00
    9    8    3     -0.53      0.00
   10    8    3      0.22      0.00
  -11    9    3      1.32      0.00
  -10    9    3     -0.77      0.00
   -9    9    3     -0.32      0.00
   -8    9    3      0.97      0.00
   -7    9    3     -0.91      0.00
   -6    9    3     -2.43      0.00
   -5    9    3     -0.23      0.00
   -4    9    3     -0.52      0.00
   -3    9    3      2.39      0.00
   -2    9    3      1.54      0.00
   -1    9    3      5.22      0.00
    0    9    3      0.59      0.00
    1    9    3     -5.10      0.00
    2    9    3     -3.04      0.00
    3    9    3     -0.90      0.00
    4    9    3     -0.19      0.00
    5    9    3     -0.54      0.00
    6    9    3      0.23      0.00
    7    9    3      1.44      0.00
    8    9    3      0.32      0.00
    9    9    3     -0.65      0.00
  -10   10    3     -0.52      0.00
   -9   10    3     -0.01      0.00
   -8   10    3      0.49      0.00
   -7   10    3      0.98      0.00
   -6   10    3      0.94      0.00
   -5   10    3     -3.49      0.00
   -4   10    3     -0.29      0.00
   -3   10    3      4.82      0.00
   -2   10    3     -0.74      0.00
   -1   10    3     -0.76      0.00
    0   10    3     -1.52      0.00
    1   10    3      1.04      0.00
    2   10    3      0.51      0.00
    3   10    3     -0.72      0.00
    4   10    3      1.47      0.00
    5   10    3     -0.82      0.00
    6   10    3      1.10      0.00
    7   10    3     -0.69      0.00
    8   10    3      2.79      0.00
    9   10    3     -2.17      0.00
  -10   11    3     -0.26      0.00
   -9   11    3      0.53      0.00
   -8   11    3      0.72      0.00
   -7   11    3     -0.60      0.00
   -6   11    3     -2.18      0.00
   -5   11    3     -0.78      0.00
   -4   11    3     -2.16      0.00
   -3   11    3      2.66      0.00
   -2   11    3      3.14      0.00
   -1   11    3      3.08      0.00
    0   11    3      0.47      0.00
    1   11    3     -2.66      0.00
    2   11    3     -1.94      0.00
    3   11    3     -0.23      0.00
    4   11    3     -0.87      0.00
    5   11    3     -0.43      0.00
    6   11    3      0.28      0.00
    7   11    3      0.74      0.00
    8   11    3      0.21      0.00
    9   11    3      0.24      0.00
  -10   12    3      0.42      0.00
   -9   12    3      0.52      0.00
   -8   12    3      0.64      0.00
   -7   12    3     -0.08      0.00
   -6   12    3      1.19      0.00
   -5   12    3     -2.67      0.00
   -4   12    3      0.19      0.00
   -3   12    3      4.72      0.00
   -2   12    3     -3.02      0.00
   -1   12    3     -1.28      0.00
    0   12    3      0.28      0.00
    1   12    3      1.62      0.00
    2   12    3      0.40      0.00
    3   12    3     -2.22      0.00
    4   12    3      1.39      0.00
    5   12    3     -0.40      0.00
    6   12    3      1.59      0.00
    7   12    3     -3.05      0.00
    8   12    3      4.40      0.00
    9   12    3     -3.69      0.00
  -10   13    3      0.15      0.00
   -9   13    3      1.68      0.00
   -8   13    3      0.59      0.00
   -7   13    3     -0.36      0.00
   -6   13    3     -1.64      0.00
   -5   13    3     -1.23      0.00
   -4   13    3     -2.05      0.00
   -3   13    3      2.61      0.00
   -2   13    3      3.96      0.00
   -1   13    3      1.34      0.00
    0   13    3      0.66      0.00
    1   13    3     -0.86      0.00
    2   13    3     -0.94      0.00
    3   13    3      0.47      0.00
    4   13    3     -1.57      0.00
    5   13    3      0.11      0.00
    6   13    3      0.12      0.00
    7   13    3      0.59      0.00
    8   13    3     -0.56      0.00
   -9   14    3      1.51      0.00
   -8   14    3      0.93      0.00
   -7   14    3     -1.44      0.00
   -6   14    3      0.31      0.00
   -5   14    3     -0.44      0.00
   -4   14    3      0.41      0.00
   -3   14    3      3.83      0.00
   -2   14    3     -3.72      0.00
   -1   14    3     -2.20      0.00
    0   14    3      1.53      0.00
    1   14    3      2.06      0.00
    2   14    3      0.09      0.00
    3   14    3     -2.83      0.00
    4   14    3      0.53      0.00
    5   14    3     -0.55      0.00
    6   14    3      2.12      0.00
    7   14    3     -3.43      0.00
    8   14    3      4.36      0.00
   -9   15    3      2.45      0.00
   -8   15    3      0.97      0.00
   -7   15    3     -0.35      0.00
   -6   15    3     -1.00      0.00
   -5   15    3     -1.16      0.00
   -4   15    3     -0.83      0.00
   -3   15    3      2.57      0.00
   -2   15    3      2.76      0.00
   -1   15    3      1.18      0.00
    0   15    3      1.08      0.00
    1   15    3     -0.31      0.00
    2   15    3     -0.02      0.00
    3   15    3      0.41      0.00
    4   15    3     -1.58      0.00
    5   15    3      0.30      0.00
    6   15    3     -0.42      0.00
    7   15    3      1.28      0.00
    8   15    3     -1.74      0.00
   -9   16    3      1.85      0.00
   -8   16    3      0.95      0.00
   -7   16    3     -2.04      0.00
   -6   16    3     -0.67      0.00
   -5   16    3      1.40      0.00
   -4   16    3      0.56      0.00
   -3   16    3      2.86      0.00
   -2   16    3     -2.87      0.00
   -1   16    3     -2.51      0.00
    0   16    3      1.32      0.00
    1   16    3      1.99      0.00
    2   16    3     -0.39      0.00
    3   16    3     -2.45      0.00
    4   16    3     -0.70      0.00
    5   16    3     -1.33      0.00
    6   16    3      2.38      0.00
    7   16    3     -1.62      0.00
   -8   17    3      1.55      0.00
   -7   17    3     -0.54      0.00
   -6   17    3     -0.34      0.00
   -5   17    3     -0.48      0.00
   -4   17    3      0.12      0.00
   -3   17    3      2.32      0.00
   -2   17    3      0.67      0.00
   -1   17    3      2.20      0.00
    0   17    3      1.28      0.00
    1   17    3     -0.20      0.00
    2   17    3      0.23      0.00
    3   17    3     -0.59      0.00
    4   17    3     -0.54      0.00
    5   17    3     -0.16      0.00
    6   17    3     -1.26      0.00
    7   17    3      1.94      0.00
   -8   18    3      0.50      0.00
   -7   18    3     -1.66      0.00
   -6   18    3     -0.31      0.00
   -5   18    3      1.43      0.00
   -4   18    3      0.65      0.00
   -3   18    3      2.26      0.00
   -2   18    3     -1.61      0.00
   -1   18    3     -1.84      0.00
    0   18    3      0.08      0.00
    1   18    3      1.45      0.00
    2   18    3     -0.86      0.00
    3   18    3     -1.66      0.00
    4   18    3     -1.71      0.00
    5   18    3     -1.72      0.00
    6   18    3      1.74      0.00
   -7   19    3     -0.72      0.00
   -6   19    3      0.32      0.00
   -5   19    3      0.26      0.00
   -4   19    3      0.07      0.00
   -3   19    3      1.65      0.00
   -2   19    3     -0.39      0.00
   -1   19    3      2.74      0.00
    0   19    3      1.23      0.00
    1   19    3      0.20      0.00
    2   19    3     -0.59      0.00
    3   19    3     -1.51      0.00
    4   19    3      0.61      0.00
    5   19    3     -0.69      0.00
    6   19    3     -1.84      0.00
   -6   20    3      1.31      0.00
   -5   20    3      0.27      0.00
   -4   20    3      0.51      0.00
   -3   20    3      1.67      0.00
   -2   20    3     -0.68      0.00
   -1   20    3     -0.71      0.00
    0   20    3     -1.30      0.00
    1   20    3      1.04      0.00
    2   20    3     -0.99      0.00
    3   20    3     -1.26      0.00
    4   20    3     -2.14      0.00
    5   20    3     -0.96      0.00
   -6   21    3      0.84      0.00
   -5   21    3      0.41      0.00
   -4   21    3     -0.42      0.00
   -3   21    3      0.94      0.00
   -2   21    3     -0.15      0.00
   -1   21    3      1.96      0.00
    0   21    3      1.27      0.00
    1   21    3      0.49      0.00
    2   21    3     -1.83      0.00
    3   21    3     -1.37      0.00
    4   21    3      0.74      0.00
   -5   22    3     -0.44      0.00
   -4   22    3      0.17      0.00
   -3   22    3      0.53      0.00
   -2   22    3     -0.06      0.00
   -1   22    3      0.02      0.00
    0   22    3     -2.16      0.00
    1   22    3      1.10      0.00
    2   22    3     -0.70      0.00
    3   22    3     -1.39      0.00
   -3   23    3      0.57      0.00
   -2   23    3      0.25      0.00
   -1   23    3      0.60      0.00
    0   23    3      1.31      0.00
    1   23    3      0.21      0.00
    2   23    3     -2.32      0.00
  -11    0    4     -0.84      0.00
  -10    0    4      0.12      0.00
   -9    0    4     -0.44      0.00
   -8    0    4      0.38      0.00
   -7    0    4     -1.57      0.00
   -6    0    4     -2.06      0.00
   -5    0    4      2.59      0.00
   -4    0    4      4.89      0.00
   -3    0    4     -1.00      0.00
   -2    0    4      0.91      0.00
   -1    0    4      5.89      0.00
    0    0    4     -0.88      0.00
    1    0    4     -8.98      0.00
    2    0    4     -2.96      0.00
    3    0    4      1.26      0.00
    4    0    4      2.24      0.00
    5    0    4      0.49      0.00
    6    0    4     -0.51      0.00
    7    0    4     -0.57      0.00
    8    0    4     -0.23      0.00
    9    0    4     -0.49      0.00
   10    0    4      0.23      0.00
  -11    1    4     -0.33      0.00
  -10    1    4      0.77      0.00
   -9    1    4     -0.32      0.00
   -8    1    4     -0.24      0.00
   -7    1    4      0.82      0.00
   -6    1    4     -0.28      0.00
   -5    1    4     -0.66      0.00
   -4    1    4     -0.11      0.00
   -3    1    4      1.35      0.00
   -2    1    4      0.35      0.00
   -1    1    4     -1.28      0.00
    0    1    4      1.28      0.00
    1    1    4     -0.23      0.00
    2    1    4     -0.04      0.00
    3    1    4      0.44      0.00
    4    1    4     -0.33      0.00
    5    1    4      0.06      0.00
    6    1    4      0.22      0.00
    7    1    4      0.29      0.00
    8    1    4      0.14      0.00
    9    1    4     -0.30      0.00
   10    1    4      0.44      0.00
  -11    2    4     -0.79      0.00
  -10    2    4     -0.23      0.00
   -9    2    4     -0.39      0.00
   -8    2    4      0.22      0.00
   -7    2    4     -1.65      0.00
   -6    2    4     -1.91      0.00
   -5    2    4      2.30      0.00
   -4    2    4      4.75      0.00
   -3    2    4     -0.61      0.00
   -2    2    4      0.91      0.00
   -1    2    4      5.29      0.00
    0    2    4     -0.99      0.00
    1    2    4     -8.43      0.00
    2    2    4     -2.86      0.00
    3    2    4      1.03      0.00
    4    2    4      1.94      0.00
    5    2    4      0.24      0.00
    6    2    4     -0.25      0.00
    7    2    4     -0.17      0.00
    8    2    4     -0.10      0.00
    9    2    4     -1.47      0.00
   10    2    4      0.19      0.00
  -11    3    4     -1.53      0.00
  -10    3    4      1.67      0.00
   -9    3    4     -0.74      0.00
   -8    3    4     -0.31      0.00
   -7    3    4      1.79      0.00
   -6    3    4     -0.64      0.00
   -5    3    4     -1.43      0.00
   -4    3    4     -0.73      0.00
   -3    3    4      3.72      0.00
   -2    3    4      1.48      0.00
   -1    3    4     -3.10      0.00
    0    3    4      2.60      0.00
    1    3    4     -0.59      0.00
    2    3    4      0.46      0.00
    3    3    4      0.58      0.00
    4    3    4     -0.73      0.00
    5    3    4      0.10      0.00
    6    3    4      0.49      0.00
    7    3    4      1.12      0.00
    8    3    4      0.37      0.00
    9    3    4     -0.70      0.00
  -11    4    4     -0.77      0.00
  -10    4    4     -1.02      0.00
   -9    4    4     -0.22      0.00
   -8    4    4     -0.07      0.00
   -7    4    4     -1.96      0.00
   -6    4    4     -1.65      0.00
   -5    4    4      1.81      0.00
   -4    4    4      4.18      0.00
   -3    4    4      0.18      0.00
   -2    4    4      0.97      0.00
   -1    4    4      3.97      0.00
    0    4    4     -1.26      0.00
    1    4    4     -7.18      0.00
    2    4    4     -2.37      0.00
    3    4    4      0.52      0.00
    4    4    4      1.08      0.00
    5    4    4     -0.34      0.00
    6    4    4      0.47      0.00
    7    4    4      0.53      0.00
    8    4    4      0.11      0.00
    9    4    4     -3.33      0.00
  -11    5    4     -3.58      0.00
  -10    5    4      1.33      0.00
   -9    5    4     -0.64      0.00
   -8    5    4      0.17      0.00
   -7    5    4      1.63      0.00
   -6    5    4     -0.56      0.00
   -5    5    4     -1.52      0.00
   -4    5    4     -1.49      0.00
   -3    5    4      4.99      0.00
   -2    5    4      3.12      0.00
   -1    5    4     -3.16      0.00
    0    5    4      1.45      0.00
    1    5    4     -0.73      0.00
    2    5    4      1.72      0.00
    3    5    4     -0.35      0.00
    4    5    4     -0.73      0.00
    5    5    4     -0.20      0.00
    6    5    4      0.70      0.00
    7    5    4      2.07      0.00
    8    5    4      0.37      0.00
    9    5    4     -0.47      0.00
  -11    6    4     -0.76      0.00
  -10    6    4     -1.70      0.00
   -9    6    4     -0.13      0.00
   -8    6    4     -0.09      0.00
   -7    6    4     -2.43      0.00
   -6    6    4     -1.46      0.00
   -5    6    4      1.41      0.00
   -4    6    4      2.95      0.00
   -3    6    4      0.89      0.00
   -2    6    4      1.12      0.00
   -1    6    4      2.81      0.00
    0    6    4     -1.40      0.00
    1    6    4     -5.80      0.00
    2    6    4     -1.62      0.00
    3    6    4     -0.02      0.00
    4    6    4      0.34      0.00
    5    6    4     -1.08      0.00
    6    6    4      1.16      0.00
    7    6    4      1.02      0.00
    8    6    4      0.01      0.00
    9    6    4     -4.23      0.00
  -11    7    4     -5.30      0.00
  -10    7    4      0.63      0.00
   -9    7    4     -0.52      0.00
   -8    7    4      0.51      0.00
   -7    7    4      1.25      0.00
   -6    7    4     -0.11      0.00
   -5    7    4     -1.75      0.00
   -4    7    4     -0.91      0.00
   -3    7    4      4.60      0.00
   -2    7    4      3.83      0.00
   -1    7    4     -1.81      0.00
    0    7    4     -0.62      0.00
    1    7    4     -0.58      0.00
    2    7    4      2.64      0.00
    3    7    4     -1.35      0.00
    4    7    4     -0.56      0.00
    5    7    4     -0.69      0.00
    6    7    4      0.73      0.00
    7    7    4      2.75      0.00
    8    7    4      0.21      0.00
    9    7    4      0.13      0.00
  -10    8    4     -1.77      0.00
   -9    8    4     -0.11      0.00
   -8    8    4      0.02      0.00
   -7    8    4     -2.59      0.00
   -6    8    4     -1.29      0.00
   -5    8    4      0.94      0.00
   -4    8    4      1.37      0.00
   -3    8    4      1.35      0.00
   -2    8    4      1.52      0.00
   -1    8    4      1.99      0.00
    0    8    4     -1.31      0.00
    1    8    4     -4.34      0.00
    2    8    4     -1.10      0.00
    3    8    4     -0.26      0.00
    4    8    4      0.20      0.00
    5    8    4     -1.40      0.00
    6    8    4      1.06      0.00
    7    8    4      1.02      0.00
    8    8    4     -0.31      0.00
    9    8    4     -3.39      0.00
  -10    9    4      0.58      0.00
   -9    9    4     -0.63      0.00
   -8    9    4      0.22      0.00
   -7    9    4      1.13      0.00
   -6    9    4      0.56      0.00
   -5    9    4     -2.50      0.00
   -4    9    4      1.54      0.00
   -3    9    4      2.92      0.00
   -2    9    4      2.36      0.00
   -1    9    4     -0.54      0.00
    0    9    4     -1.23      0.00
    1    9    4     -0.09      0.00
    2    9    4      2.15      0.00
    3    9    4     -1.63      0.00
    4    9    4     -0.41      0.00
    5    9    4     -0.88      0.00
    6    9    4      0.24      0.00
    7    9    4      2.79      0.00
    8    9    4      0.25      0.00
    9    9    4      0.40      0.00
  -10   10    4     -1.15      0.00
   -9   10    4     -0.10      0.00
   -8   10    4      0.03      0.00
   -7   10    4     -2.03      0.00
   -6   10    4     -1.03      0.00
   -5   10    4      0.08      0.00
   -4   10    4      0.33      0.00
   -3   10    4      1.70      0.00
   -2   10    4      2.05      0.00
   -1   10    4      1.25      0.00
    0   10    4     -1.12      0.00
    1   10    4     -2.83      0.00
    2   10    4     -1.06      0.00
    3   10    4      0.10      0.00
    4   10    4      0.34      0.00
    5   10    4     -0.81      0.00
    6   10    4      0.04      0.00
    7   10    4      0.48      0.00
    8   10    4     -0.51      0.00
  -10   11    4      1.15      0.00
   -9   11    4     -0.57      0.00
   -8   11    4     -0.27      0.00
   -7   11    4      0.57      0.00
   -6   11    4      1.24      0.00
   -5   11    4     -2.86      0.00
   -4   11    4      4.30      0.00
   -3   11    4      1.07      0.00
   -2   11    4     -0.54      0.00
   -1   11    4     -0.36      0.00
    0   11    4      0.04      0.00
    1   11    4      0.69      0.00
    2   11    4      0.58      0.00
    3   11    4     -1.52      0.00
    4   11    4     -0.26      0.00
    5   11    4     -0.58      0.00
    6   11    4     -0.69      0.00
    7   11    4      2.11      0.00
    8   11    4      0.74      0.00
  -10   12    4     -0.19      0.00
   -9   12    4     -0.12      0.00
   -8   12    4      0.32      0.00
   -7   12    4     -1.16      0.00
   -6   12    4     -0.77      0.00
   -5   12    4     -0.90      0.00
   -4   12    4      0.44      0.00
   -3   12    4      2.18      0.00
   -2   12    4      2.09      0.00
   -1   12    4      0.68      0.00
    0   12    4     -1.00      0.00
    1   12    4     -1.67      0.00
    2   12    4     -1.10      0.00
    3   12    4      0.86      0.00
    4   12    4      0.28      0.00
    5   12    4      0.27      0.00
    6   12    4     -1.13      0.00
    7   12    4     -0.32      0.00
    8   12    4     -0.50      0.00
   -9   13    4     -0.09      0.00
   -8   13    4     -0.32      0.00
   -7   13    4     -0.72      0.00
   -6   13    4      1.48      0.00
   -5   13    4     -1.89      0.00
   -4   13    4      5.30      0.00
   -3   13    4     -0.04      0.00
   -2   13    4     -2.66      0.00
   -1   13    4     -0.79      0.00
    0   13    4      1.23      0.00
    1   13    4      1.39      0.00
    2   13    4     -0.91      0.00
    3   13    4     -1.59      0.00
    4   13    4     -0.04      0.00
    5   13    4     -0.39      0.00
    6   13    4     -1.34      0.00
    7   13    4      1.07      0.00
    8   13    4      1.45      0.00
   -9   14    4     -0.19      0.00
   -8   14    4      1.31      0.00
   -7   14    4     -0.77      0.00
   -6   14    4     -0.61      0.00
   -5   14    4     -1.18      0.00
   -4   14    4      1.28      0.00
   -3   14    4      2.65      0.00
   -2   14    4      1.46      0.00
   -1   14    4      0.51      0.00
    0   14    4     -1.01      0.00
    1   14    4     -1.10      0.00
    2   14    4     -0.88      0.00
    3   14    4      1.21      0.00
    4   14    4      0.36      0.00
    5   14    4      0.73      0.00
    6   14    4     -1.74      0.00
    7   14    4     -0.82      0.00
   -9   15    4      0.38      0.00
   -8   15    4     -0.07      0.00
   -7   15    4     -1.60      0.00
   -6   15    4      1.07      0.00
   -5   15    4     -0.20      0.00
   -4   15    4      4.07      0.00
   -3   15    4     -0.10      0.00
   -2   15    4     -2.66      0.00
   -1   15    4     -0.40      0.00
    0   15    4      0.46      0.00
    1   15    4      1.45      0.00
    2   15    4     -1.61      0.00
    3   15    4     -1.77      0.00
    4   15    4      0.25      0.00
    5   15    4     -1.11      0.00
    6   15    4     -1.18      0.00
    7   15    4      0.40      0.00
   -8   16    4      2.41      0.00
   -7   16    4     -0.97      0.00
   -6   16    4     -0.47      0.00
   -5   16    4     -0.33      0.00
   -4   16    4      1.62      0.00
   -3   16    4      2.62      0.00
   -2   16    4      0.92      0.00
   -1   16    4      0.49      0.00
    0   16    4     -0.93      0.00
    1   16    4     -0.81      0.00
    2   16    4     -0.79      0.00
    3   16    4      0.66      0.00
    4   16    4      1.07      0.00
    5   16    4      0.09      0.00
    6   16    4     -1.91      0.00
   -8   17    4     -0.21      0.00
   -7   17    4     -0.99      0.00
   -6   17    4      0.58      0.00
   -5   17    4      0.70      0.00
   -4   17    4      1.81      0.00
   -3   17    4      0.70      0.00
   -2   17    4     -1.39      0.00
   -1   17    4      1.34      0.00
    0   17    4     -1.82      0.00
    1   17    4      0.72      0.00
    2   17    4     -1.65      0.00
    3   17    4     -1.78      0.00
    4   17    4      0.49      0.00
    5   17    4     -2.42      0.00
    6   17    4     -0.60      0.00
   -7   18    4     -1.01      0.00
   -6   18    4     -0.21      0.00
   -5   18    4      1.09      0.00
   -4   18    4      0.72      0.00
   -3   18    4      1.89      0.00
   -2   18    4      1.24      0.00
   -1   18    4      0.06      0.00
    0   18    4     -0.32      0.00
    1   18    4     -0.62      0.00
    2   18    4     -1.41      0.00
    3   18    4     -0.15      0.00
    4   18    4      1.89      0.00
    5   18    4     -0.87      0.00
   -6   19    4      0.64      0.00
   -5   19    4      0.41      0.00
   -4   19    4     -0.11      0.00
   -3   19    4      1.71      0.00
   -2   19    4     -0.50      0.00
   -1   19    4      3.32      0.00
    0   19    4     -3.58      0.00
    1   19    4     -0.21      0.00
    2   19    4     -1.38      0.00
    3   19    4     -1.79      0.00
    4   19    4      0.50      0.00
    5   19    4     -3.04      0.00
   -6   20    4      0.12      0.00
   -5   20    4      1.94      0.00
   -4   20    4     -0.80      0.00
   -3   20    4      0.87      0.00
   -2   20    4      1.96      0.00
   -1   20    4     -0.80      0.00
    0   20    4      0.84      0.00
    1   20    4     -0.76      0.00
    2   20    4     -2.50      0.00
    3   20    4     -0.22      0.00
    4   20    4      1.71      0.00
   -5   21    4      0.05      0.00
   -4   21    4     -1.06      0.00
   -3   21    4      2.00      0.00
   -2   21    4     -0.54      0.00
   -1   21    4      3.99      0.00
    0   21    4     -3.51      0.00
    1   21    4     -0.58      0.00
    2   21    4     -0.96      0.00
    3   21    4     -2.02      0.00
   -3   22    4      0.19      0.00
   -2   22    4      2.01      0.00
   -1   22    4     -1.43      0.00
    0   22    4      1.74      0.00
    1   22    4     -1.09      0.00
    2   22    4     -3.15      0.00
  -11    1    5      0.18      0.00
  -10    1    5     -0.27      0.00
   -9    1    5     -0.53      0.00
   -8    1    5     -1.11      0.00
   -7    1    5      0.29      0.00
   -6    1    5     -0.99      0.00
   -5    1    5      2.54      0.00
   -4    1    5      2.25      0.00
   -3    1    5     -0.28      0.00
   -2    1    5      1.39      0.00
   -1    1    5     -0.07      0.00
    0    1    5      0.00      0.00
    1    1    5     -3.34      0.00
    2    1    5     -1.08      0.00
    3    1    5      0.18      0.00
    4    1    5      2.13      0.00
    5    1    5      0.10      0.00
    6    1    5     -0.27      0.00
    7    1    5     -0.39      0.00
    8    1    5     -2.32      0.00
    9    1    5      1.21      0.00
  -11    2    5      0.78      0.00
  -10    2    5      0.68      0.00
   -9    2    5     -0.12      0.00
   -8    2    5     -0.06      0.00
   -7    2    5      0.42      0.00
   -6    2    5     -0.07      0.00
   -5    2    5     -1.95      0.00
   -4    2    5      1.91      0.00
   -3    2    5      0.83      0.00
   -2    2    5      0.93      0.00
   -1    2    5     -0.29      0.00
    0    2    5      1.17      0.00
    1    2    5      0.06      0.00
    2    2    5     -1.10      0.00
    3    2    5      0.60      0.00
    4    2    5     -0.75      0.00
    5    2    5      1.25      0.00
    6    2    5     -0.38      0.00
    7    2    5      0.87      0.00
    8    2    5     -0.65      0.00
    9    2    5     -0.33      0.00
  -11    3    5     -0.10      0.00
  -10    3    5     -0.82      0.00
   -9    3    5     -0.70      0.00
   -8    3    5     -1.53      0.00
   -7    3    5      0.37      0.00
   -6    3    5     -1.20      0.00
   -5    3    5      2.19      0.00
   -4    3    5      2.26      0.00
   -3    3    5     -0.02      0.00
   -2    3    5      1.06      0.00
   -1    3    5     -0.09      0.00
    0    3    5     -0.48      0.00
    1    3    5     -2.74      0.00
    2    3    5     -0.93      0.00
    3    3    5      0.62      0.00
    4    3    5      1.22      0.00
    5    3    5     -0.10      0.00
    6    3    5     -0.63      0.00
    7    3    5      0.48      0.00
    8    3    5     -1.77      0.00
    9    3    5     -0.55      0.00
  -10    4    5      0.39      0.00
   -9    4    5      0.30      0.00
   -8    4    5      0.26      0.00
   -7    4    5     -0.46      0.00
   -6    4    5      0.12      0.00
   -5    4    5     -2.18      0.00
   -4    4    5      1.66      0.00
   -3    4    5      2.45      0.00
   -2    4    5      2.02      0.00
   -1    4    5     -0.26      0.00
    0    4    5      0.68      0.00
    1    4    5      0.36      0.00
    2    4    5     -1.20      0.00
    3    4    5      0.20      0.00
    4    4    5     -0.70      0.00
    5    4    5      1.87      0.00
    6    4    5     -0.90      0.00
    7    4    5      1.36      0.00
    8    4    5     -0.54      0.00
  -10    5    5     -1.50      0.00
   -9    5    5     -0.81      0.00
   -8    5    5     -2.00      0.00
   -7    5    5      0.03      0.00
   -6    5    5     -1.42      0.00
   -5    5    5      2.05      0.00
   -4    5    5      1.82      0.00
   -3    5    5      0.22      0.00
   -2    5    5      0.77      0.00
   -1    5    5      0.09      0.00
    0    5    5     -1.35      0.00
    1    5    5     -1.67      0.00
    2    5    5     -0.87      0.00
    3    5    5      1.22      0.00
    4    5    5      0.08      0.00
    5    5    5     -0.63      0.00
    6    5    5     -0.71      0.00
    7    5    5      1.23      0.00
    8    5    5     -0.98      0.00
  -10    6    5     -0.59      0.00
   -9    6    5      0.87      0.00
   -8    6    5      0.61      0.00
   -7    6    5     -1.76      0.00
   -6    6    5     -0.04      0.00
   -5    6    5     -0.62      0.00
   -4    6    5      0.28      0.00
   -3    6    5      3.65      0.00
   -2    6    5      2.92      0.00
   -1    6    5      0.08      0.00
    0    6    5     -1.18      0.00
    1    6    5      0.78      0.00
    2    6    5     -0.44      0.00
    3    6    5     -0.80      0.00
    4    6    5      0.00      0.00
    5    6    5      1.38      0.00
    6    6    5     -1.09      0.00
    7    6    5      1.21      0.00
    8    6    5      0.38      0.00
  -10    7    5     -1.80      0.00
   -9    7    5     -0.78      0.00
   -8    7    5     -2.27      0.00
   -7    7    5     -0.71      0.00
   -6    7    5     -1.39      0.00
   -5    7    5      2.11      0.00
   -4    7    5      0.93      0.00
   -3    7    5      0.36      0.00
   -2    7    5      0.76      0.00
   -1    7    5      0.47      0.00
    0    7    5     -2.19      0.00
    1    7    5     -0.60      0.00
    2    7    5     -1.02      0.00
    3    7    5      1.57      0.00
    4    7    5     -0.36      0.00
    5    7    5     -1.38      0.00
    6    7    5     -0.47      0.00
    7    7    5      1.27      0.00
    8    7    5     -0.31      0.00
  -10    8    5     -1.12      0.00
   -9    8    5      0.78      0.00
   -8    8    5      0.33      0.00
   -7    8    5     -1.73      0.00
   -6    8    5     -1.12      0.00
   -5    8    5      1.30      0.00
   -4    8    5      0.39      0.00
   -3    8    5      2.84      0.00
   -2    8    5      2.76      0.00
   -1    8    5      0.08      0.00
    0    8    5     -2.29      0.00
    1    8    5      1.00      0.00
    2    8    5      0.07      0.00
    3    8    5     -1.23      0.00
    4    8    5      0.77      0.00
    5    8    5     -0.17      0.00
    6    8    5     -0.75      0.00
    7    8    5      0.74      0.00
    8    8    5      1.44      0.00
  -10    9    5     -1.55      0.00
   -9    9    5     -0.64      0.00
   -8    9    5     -2.38      0.00
   -7    9    5     -1.09      0.00
   -6    9    5     -1.08      0.00
   -5    9    5      1.69      0.00
   -4    9    5      0.35      0.00
   -3    9    5      0.51      0.00
   -2    9    5      1.10      0.00
   -1    9    5      0.64      0.00
    0    9    5     -2.49      0.00
    1    9    5     -0.32      0.00
    2    9    5     -1.03      0.00
    3    9    5      1.56      0.00
    4    9    5      0.09      0.00
    5    9    5     -1.57      0.00
    6    9    5     -0.82      0.00
    7    9    5      0.75      0.00
    8    9    5      0.18      0.00
   -9   10    5      0.11      0.00
   -8   10    5     -0.69      0.00
   -7   10    5     -0.25      0.00
   -6   10    5     -2.30      0.00
   -5   10    5      2.16      0.00
   -4   10    5      2.41      0.00
   -3   10    5      0.47      0.00
   -2   10    5      1.24      0.00
   -1   10    5     -0.87      0.00
    0   10    5     -1.18      0.00
    1   10    5      0.91      0.00
    2   10    5     -0.50      0.00
    3   10    5     -0.80      0.00
    4   10    5      1.24      0.00
    5   10    5     -1.86      0.00
    6   10    5     -0.31      0.00
    7   10    5      0.48      0.00
   -9   11    5     -0.47      0.00
   -8   11    5     -2.17      0.00
   -7   11    5     -0.75      0.00
   -6   11    5     -0.73      0.00
   -5   11    5      0.57      0.00
   -4   11    5      0.73      0.00
   -3   11    5      0.84      0.00
   -2   11    5      1.54      0.00
   -1   11    5      0.31      0.00
    0   11    5     -2.15      0.00
    1   11    5     -1.18      0.00
    2   11    5     -0.50      0.00
    3   11    5      1.48      0.00
    4   11    5      0.66      0.00
    5   11    5     -0.57      0.00
    6   11    5     -2.30      0.00
    7   11    5      0.20      0.00
   -9   12    5     -0.39      0.00
   -8   12    5     -1.70      0.00
   -7   12    5      1.13      0.00
   -6   12    5     -2.26      0.00
   -5   12    5      1.77      0.00
   -4   12    5      3.98      0.00
   -3   12    5     -1.35      0.00
   -2   12    5     -0.49      0.00
   -1   12    5     -2.39      0.00
    0   12    5      1.01      0.00
    1   12    5      0.72      0.00
    2   12    5     -1.83      0.00
    3   12    5     -0.25      0.00
    4   12    5      1.41      0.00
    5   12    5     -2.69      0.00
    6   12    5     -0.30      0.00
    7   12    5      0.50      0.00
   -9   13    5     -0.29      0.00
   -8   13    5     -1.23      0.00
   -7   13    5     -0.36      0.00
   -6   13    5     -0.51      0.00
   -5   13    5     -0.51      0.00
   -4   13    5      1.76      0.00
   -3   13    5      1.40      0.00
   -2   13    5      1.67      0.00
   -1   13    5     -0.27      0.00
    0   13    5     -1.62      0.00
    1   13    5     -2.45      0.00
    2   13    5      0.28      0.00
    3   13    5      1.60      0.00
    4   13    5      0.75      0.00
    5   13    5      0.98      0.00
    6   13    5     -4.16      0.00
    7   13    5      0.00      0.00
   -8   14    5     -1.91      0.00
   -7   14    5      1.53      0.00
   -6   14    5     -1.00      0.00
   -5   14    5      0.76      0.00
   -4   14    5      3.09      0.00
   -3   14    5     -1.26      0.00
   -2   14    5     -0.72      0.00
   -1   14    5     -3.17      0.00
    0   14    5      1.75      0.00
    1   14    5      0.59      0.00
    2   14    5     -2.93      0.00
    3   14    5     -0.26      0.00
    4   14    5      1.36      0.00
    5   14    5     -2.59      0.00
    6   14    5     -0.66      0.00
   -8   15    5      0.20      0.00
   -7   15    5     -0.62      0.00
   -6   15    5     -0.26      0.00
   -5   15    5     -0.74      0.00
   -4   15    5      2.38      0.00
   -3   15    5      1.95      0.00
   -2   15    5      1.30      0.00
   -1   15    5     -0.55      0.00
    0   15    5     -1.46      0.00
    1   15    5     -2.82      0.00
    2   15    5      0.45      0.00
    3   15    5      1.75      0.00
    4   15    5      0.59      0.00
    5   15    5      1.73      0.00
    6   15    5     -5.04      0.00
   -7   16    5      1.48      0.00
   -6   16    5      0.36      0.00
   -5   16    5     -0.43      0.00
   -4   16    5      0.50      0.00
   -3   16    5      0.29      0.00
   -2   16    5      0.72      0.00
   -1   16    5     -2.17      0.00
    0   16    5     -0.02      0.00
    1   16    5      0.42      0.00
    2   16    5     -3.06      0.00
    3   16    5     -0.74      0.00
    4   16    5      1.16      0.00
    5   16    5     -2.31      0.00
   -7   17    5     -1.16      0.00
   -6   17    5      0.22      0.00
   -5   17    5     -0.26      0.00
   -4   17    5      1.92      0.00
   -3   17    5      2.13      0.00
   -2   17    5      0.66      0.00
   -1   17    5     -0.25      0.00
    0   17    5     -1.68      0.00
    1   17    5     -1.89      0.00
    2   17    5     -0.39      0.00
    3   17    5      1.57      0.00
    4   17    5      0.62      0.00
    5   17    5      1.11      0.00
   -6   18    5      1.04      0.00
   -5   18    5     -1.64      0.00
   -4   18    5     -1.46      0.00
   -3   18    5      1.96      0.00
   -2   18    5      2.12      0.00
   -1   18    5      0.24      0.00
    0   18    5     -2.67      0.00
    1   18    5      0.09      0.00
    2   18    5     -2.23      0.00
    3   18    5     -1.30      0.00
    4   18    5      0.81      0.00
   -5   19    5      0.13      0.00
   -4   19    5      0.67      0.00
   -3   19    5      1.76      0.00
   -2   19    5      0.09      0.00
   -1   19    5      0.32      0.00
    0   19    5     -1.69      0.00
    1   19    5     -0.71      0.00
    2   19    5     -1.58      0.00
    3   19    5      1.10      0.00
   -4   20    5     -1.58      0.00
   -3   20    5      2.69      0.00
   -2   20    5      1.92      0.00
   -1   20    5      2.54      0.00
    0   20    5     -3.86      0.00
    1   20    5     -0.22      0.00
    2   20    5     -0.95      0.00
   -3   21    5      1.05      0.00
   -2   21    5     -0.22      0.00
   -1   21    5      0.60      0.00
    0   21    5     -1.12      0.00
    1   21    5     -0.36      0.00
  -10    0    6      0.52      0.00
   -9    0    6      0.48      0.00
   -8    0    6      0.37      0.00
   -7    0    6     -1.06      0.00
   -6    0    6     -0.91      0.00
   -5    0    6      3.46      0.00
   -4    0    6      1.40      0.00
   -3    0    6     -0.49      0.00
   -2    0    6      0.34      0.00
   -1    0    6     -0.61      0.00
    0    0    6     -2.24      0.00
    1    0    6     -0.72      0.00
    2    0    6     -0.12      0.00
    3    0    6     -0.02      0.00
    4    0    6      2.07      0.00
    5    0    6      0.78      0.00
    6    0    6      1.49      0.00
    7    0    6     -0.99      0.00
    8    0    6     -2.72      0.00
  -10    1    6      0.61      0.00
   -9    1    6     -0.42      0.00
   -8    1    6      0.54      0.00
   -7    1    6     -0.34      0.00
   -6    1    6      0.22      0.00
   -5    1    6     -0.86      0.00
   -4    1    6      0.95      0.00
   -3    1    6     -1.44      0.00
   -2    1    6      0.80      0.00
   -1    1    6      0.75      0.00
    0    1    6      0.50      0.00
    1    1    6     -0.28      0.00
    2    1    6     -0.44      0.00
    3    1    6      0.47      0.00
    4    1    6     -0.40      0.00
    5    1    6      0.26      0.00
    6    1    6      0.09      0.00
    7    1    6      0.14      0.00
    8    1    6     -0.32      0.00
  -10    2    6      0.21      0.00
   -9    2    6     -0.04      0.00
   -8    2    6      0.14      0.00
   -7    2    6     -0.75      0.00
   -6    2    6     -1.04      0.00
   -5    2    6      3.27      0.00
   -4    2    6      1.67      0.00
   -3    2    6     -0.98      0.00
   -2    2    6      0.40      0.00
   -1    2    6     -0.94      0.00
    0    2    6     -1.84      0.00
    1    2    6     -0.80      0.00
    2    2    6      0.20      0.00
    3    2    6      0.12      0.00
    4    2    6      1.94      0.00
    5    2    6      0.52      0.00
    6    2    6      0.68      0.00
    7    2    6     -0.41      0.00
  -10    3    6      1.45      0.00
   -9    3    6     -0.77      0.00
   -8    3    6      1.70      0.00
   -7    3    6     -2.04      0.00
   -6    3    6      1.41      0.00
   -5    3    6     -2.54      0.00
   -4    3    6      1.65      0.00
   -3    3    6     -2.47      0.00
   -2    3    6      1.88      0.00
   -1    3    6      1.60      0.00
    0    3    6      1.08      0.00
    1    3    6     -0.60      0.00
    2    3    6     -1.09      0.00
    3    3    6      1.08      0.00
    4    3    6     -0.55      0.00
    5    3    6      0.62      0.00
    6    3    6     -0.31      0.00
    7    3    6      0.35      0.00
  -10    4    6     -0.49      0.00
   -9    4    6     -1.18      0.00
   -8    4    6     -0.44      0.00
   -7    4    6     -0.28      0.00
   -6    4    6     -1.14      0.00
   -5    4    6      2.85      0.00
   -4    4    6      1.98      0.00
   -3    4    6     -2.07      0.00
   -2    4    6      0.84      0.00
   -1    4    6     -1.83      0.00
    0    4    6     -0.87      0.00
    1    4    6     -0.85      0.00
    2    4    6      0.79      0.00
    3    4    6      0.61      0.00
    4    4    6      1.28      0.00
    5    4    6      0.03      0.00
    6    4    6     -0.94      0.00
    7    4    6      0.63      0.00
  -10    5    6      1.57      0.00
   -9    5    6     -0.27      0.00
   -8    5    6      2.59      0.00
   -7    5    6     -5.09      0.00
   -6    5    6      3.36      0.00
   -5    5    6     -3.55      0.00
   -4    5    6      0.46      0.00
   -3    5    6     -0.71      0.00
   -2    5    6      2.04      0.00
   -1    5    6      1.19      0.00
    0    5    6      0.51      0.00
    1    5    6     -0.24      0.00
    2    5    6     -1.14      0.00
    3    5    6      1.17      0.00
    4    5    6      0.23      0.00
    5    5    6      0.71      0.00
    6    5    6     -1.58      0.00
    7    5    6      0.14      0.00
   -9    6    6     -2.26      0.00
   -8    6    6     -1.01      0.00
   -7    6    6     -0.30      0.00
   -6    6    6     -0.78      0.00
   -5    6    6      2.21      0.00
   -4    6    6      1.72      0.00
   -3    6    6     -2.70      0.00
   -2    6    6      1.49      0.00
   -1    6    6     -2.78      0.00
    0    6    6      0.08      0.00
    1    6    6     -0.70      0.00
    2    6    6      1.04      0.00
    3    6    6      1.42      0.00
    4    6    6      0.03      0.00
    5    6    6     -0.47      0.00
    6    6    6     -1.92      0.00
    7    6    6      1.18      0.00
   -9    7    6      0.28      0.00
   -8    7    6      2.73      0.00
   -7    7    6     -7.21      0.00
   -6    7    6      4.05      0.00
   -5    7    6     -3.16      0.00
   -4    7    6     -0.80      0.00
   -3    7    6      1.09      0.00
   -2    7    6      1.35      0.00
   -1    7    6      0.11      0.00
    0    7    6     -0.86      0.00
    1    7    6      0.56      0.00
    2    7    6     -0.93      0.00
    3    7    6      1.23      0.00
    4    7    6      1.26      0.00
    5    7    6      0.33      0.00
    6    7    6     -2.78      0.00
    7    7    6     -0.37      0.00
   -9    8    6     -2.77      0.00
   -8    8    6     -1.42      0.00
   -7    8    6     -0.61      0.00
   -6    8    6     -0.01      0.00
   -5    8    6      1.07      0.00
   -4    8    6      1.04      0.00
   -3    8    6     -2.03      0.00
   -2    8    6      1.93      0.00
   -1    8    6     -3.12      0.00
    0    8    6      0.34      0.00
    1    8    6     -0.42      0.00
    2    8    6      0.96      0.00
    3    8    6      1.95      0.00
    4    8    6     -1.15      0.00
    5    8    6     -0.67      0.00
    6    8    6     -1.94      0.00
    7    8    6      0.98      0.00
   -9    9    6      0.19      0.00
   -8    9    6      1.79      0.00
   -7    9    6     -6.40      0.00
   -6    9    6      2.65      0.00
   -5    9    6     -1.92      0.00
   -4    9    6     -0.23      0.00
   -3    9    6      0.44      0.00
   -2    9    6     -0.25      0.00
   -1    9    6     -0.64      0.00
    0    9    6     -1.70      0.00
    1    9    6      1.09      0.00
    2    9    6     -1.05      0.00
    3    9    6      1.47      0.00
    4    9    6      1.93      0.00
    5    9    6     -0.53      0.00
    6    9    6     -2.91      0.00
    7    9    6     -0.62      0.00
   -9   10    6     -2.61      0.00
   -8   10    6     -1.59      0.00
   -7   10    6     -0.58      0.00
   -6   10    6      0.63      0.00
   -5   10    6     -0.50      0.00
   -4   10    6      0.58      0.00
   -3   10    6     -0.25      0.00
   -2   10    6      1.88      0.00
   -1   10    6     -2.58      0.00
    0   10    6     -0.33      0.00
    1   10    6     -0.28      0.00
    2   10    6      1.07      0.00
    3   10    6      1.62      0.00
    4   10    6     -1.47      0.00
    5   10    6     -0.34      0.00
    6   10    6     -1.85      0.00
   -8   11    6      0.22      0.00
   -7   11    6     -3.36      0.00
   -6   11    6      1.05      0.00
   -5   11    6     -1.60      0.00
   -4   11    6      1.62      0.00
   -3   11    6     -1.62      0.00
   -2   11    6     -2.60      0.00
   -1   11    6     -0.76      0.00
    0   11    6     -1.03      0.00
    1   11    6      0.83      0.00
    2   11    6     -1.66      0.00
    3   11    6      1.31      0.00
    4   11    6      2.24      0.00
    5   11    6     -1.43      0.00
    6   11    6     -1.91      0.00
   -8   12    6     -1.26      0.00
   -7   12    6     -0.31      0.00
   -6   12    6      0.80      0.00
   -5   12    6     -1.65      0.00
   -4   12    6      0.57      0.00
   -3   12    6      1.57      0.00
   -2   12    6      1.54      0.00
   -1   12    6     -1.61      0.00
    0   12    6     -1.35      0.00
    1   12    6     -0.48      0.00
    2   12    6      1.56      0.00
    3   12    6      0.72      0.00
    4   12    6     -0.87      0.00
    5   12    6      0.26      0.00
    6   12    6     -2.24      0.00
   -8   13    6     -0.82      0.00
   -7   13    6     -0.51      0.00
   -6   13    6      1.21      0.00
   -5   13    6     -3.09      0.00
   -4   13    6      2.67      0.00
   -3   13    6     -2.38      0.00
   -2   13    6     -4.53      0.00
   -1   13    6     -0.71      0.00
    0   13    6      0.57      0.00
    1   13    6      0.04      0.00
    2   13    6     -2.32      0.00
    3   13    6      0.14      0.00
    4   13    6      2.37      0.00
    5   13    6     -1.67      0.00
   -7   14    6     -0.36      0.00
   -6   14    6      0.59      0.00
   -5   14    6     -1.61      0.00
   -4   14    6      0.78      0.00
   -3   14    6      2.29      0.00
   -2   14    6      1.30      0.00
   -1   14    6     -0.82      0.00
    0   14    6     -1.89      0.00
    1   14    6     -0.84      0.00
    2   14    6      1.91      0.00
    3   14    6      0.15      0.00
    4   14    6     -0.04      0.00
    5   14    6      0.53      0.00
   -7   15    6      0.73      0.00
   -6   15    6      2.56      0.00
   -5   15    6     -5.33      0.00
   -4   15    6      1.89      0.00
   -3   15    6     -0.84      0.00
   -2   15    6     -4.56      0.00
   -1   15    6     -0.86      0.00
    0   15    6      1.58      0.00
    1   15    6     -0.60      0.00
    2   15    6     -2.55      0.00
    3   15    6     -1.55      0.00
    4   15    6      2.17      0.00
   -6   16    6      0.28      0.00
   -5   16    6     -0.68      0.00
   -4   16    6      1.01      0.00
   -3   16    6      1.45      0.00
   -2   16    6      1.38      0.00
   -1   16    6     -0.44      0.00
    0   16    6     -1.67      0.00
    1   16    6     -0.92      0.00
    2   16    6      1.59      0.00
    3   16    6      0.30      0.00
    4   16    6      0.33      0.00
   -5   17    6     -6.53      0.00
   -4   17    6      0.38      0.00
   -3   17    6      1.54      0.00
   -2   17    6     -2.66      0.00
   -1   17    6     -1.05      0.00
    0   17    6      1.25      0.00
    1   17    6     -0.66      0.00
    2   17    6     -2.22      0.00
    3   17    6     -2.59      0.00
   -4   18    6      1.22      0.00
   -3   18    6     -0.33      0.00
   -2   18    6      1.60      0.00
   -1   18    6     -0.25      0.00
    0   18    6     -1.09      0.00
    1   18    6     -0.59      0.00
    2   18    6      0.78      0.00
   -3   19    6      2.92      0.00
   -2   19    6     -0.42      0.00
   -1   19    6     -0.84      0.00
    0   19    6      0.22      0.00
   -9    1    7      2.27      0.00
   -8    1    7      1.19      0.00
   -7    1    7     -2.72      0.00
   -6    1    7      1.40      0.00
   -5    1    7      1.95      0.00
   -4    1    7     -0.63      0.00
   -3    1    7      1.14      0.00
   -2    1    7     -0.70      0.00
   -1    1    7     -0.78      0.00
    0    1    7     -2.42      0.00
    1    1    7     -0.68      0.00
    2    1    7     -0.26      0.00
    3    1    7      2.36      0.00
    4    1    7     -1.03      0.00
    5    1    7      2.38      0.00
    6    1    7      2.75      0.00
   -9    2    7      1.06      0.00
   -8    2    7      0.08      0.00
   -7    2    7      0.12      0.00
   -6    2    7     -0.36      0.00
   -5    2    7     -1.06      0.00
   -4    2    7      0.54      0.00
   -3    2    7     -4.17      0.00
   -2    2    7      0.87      0.00
   -1    2    7      1.06      0.00
    0    2    7      0.64      0.00
    1    2    7      0.90      0.00
    2    2    7      0.00      0.00
    3    2    7      0.67      0.00
    4    2    7     -1.38      0.00
    5    2    7      0.06      0.00
    6    2    7      0.30      0.00
   -9    3    7      1.10      0.00
   -8    3    7      1.07      0.00
   -7    3    7     -2.32      0.00
   -6    3    7      1.08      0.00
   -5    3    7      2.16      0.00
   -4    3    7     -0.51      0.00
   -3    3    7     -0.05      0.00
   -2    3    7     -0.66      0.00
   -1    3    7     -0.98      0.00
    0    3    7     -1.91      0.00
    1    3    7     -0.35      0.00
    2    3    7      0.13      0.00
    3    3    7      1.68      0.00
    4    3    7      0.28      0.00
    5    3    7      1.24      0.00
    6    3    7      1.13      0.00
   -9    4    7      2.44      0.00
   -8    4    7     -0.07      0.00
   -7    4    7     -0.73      0.00
   -6    4    7      0.93      0.00
   -5    4    7     -3.57      0.00
   -4    4    7     -0.39      0.00
   -3    4    7     -3.97      0.00
   -2    4    7     -0.08      0.00
   -1    4    7      1.22      0.00
    0    4    7      0.98      0.00
    1    4    7      1.37      0.00
    2    4    7      0.52      0.00
    3    4    7      1.12      0.00
    4    4    7     -1.50      0.00
    5    4    7     -0.16      0.00
    6    4    7     -0.62      0.00
   -9    5    7     -0.43      0.00
   -8    5    7      0.62      0.00
   -7    5    7     -1.79      0.00
   -6    5    7      0.89      0.00
   -5    5    7      2.23      0.00
   -4    5    7     -0.63      0.00
   -3    5    7     -1.36      0.00
   -2    5    7     -0.59      0.00
   -1    5    7     -1.27      0.00
    0    5    7     -0.91      0.00
    1    5    7     -0.12      0.00
    2    5    7      0.68      0.00
    3    5    7      1.00      0.00
    4    5    7      1.44      0.00
    5    5    7     -0.22      0.00
    6    5    7     -0.66      0.00
   -8    6    7     -0.34      0.00
   -7    6    7     -2.10      0.00
   -6    6    7      2.79      0.00
   -5    6    7     -6.10      0.00
   -4    6    7     -2.52      0.00
   -3    6    7     -0.90      0.00
   -2    6    7     -1.76      0.00
   -1    6    7      0.20      0.00
    0    6    7      0.64      0.00
    1    6    7      1.36      0.00
    2    6    7      1.55      0.00
    3    6    7      1.27      0.00
    4    6    7     -0.34      0.00
    5    6    7     -0.46      0.00
    6    6    7     -2.45      0.00
   -8    7    7     -0.25      0.00
   -7    7    7     -1.19      0.00
   -6    7    7      1.02      0.00
   -5    7    7      1.63      0.00
   -4    7    7     -0.81      0.00
   -3    7    7     -1.78      0.00
   -2    7    7     -0.60      0.00
   -1    7    7     -1.26      0.00
    0    7    7      0.04      0.00
    1    7    7     -0.11      0.00
    2    7    7      1.18      0.00
    3    7    7      0.54      0.00
    4    7    7      1.46      0.00
    5    7    7     -1.20      0.00
   -8    8    7     -0.52      0.00
   -7    8    7     -2.55      0.00
   -6    8    7      2.98      0.00
   -5    8    7     -6.40      0.00
   -4    8    7     -3.99      0.00
   -3    8    7     -0.06      0.00
   -2    8    7     -2.01      0.00
   -1    8    7     -1.30      0.00
    0    8    7     -0.13      0.00
    1    8    7      0.94      0.00
    2    8    7      2.21      0.00
    3    8    7      1.29      0.00
    4    8    7      1.21      0.00
    5    8    7     -0.74      0.00
   -8    9    7     -1.30      0.00
   -7    9    7     -0.31      0.00
   -6    9    7      1.09      0.00
   -5    9    7      0.29      0.00
   -4    9    7     -0.54      0.00
   -3    9    7     -1.22      0.00
   -2    9    7     -0.52      0.00
   -1    9    7     -0.87      0.00
    0    9    7      0.17      0.00
    1    9    7      0.28      0.00
    2    9    7      1.48      0.00
    3    9    7     -0.18      0.00
    4    9    7      0.81      0.00
    5    9    7     -1.41      0.00
   -7   10    7     -1.36      0.00
   -6   10    7      1.43      0.00
   -5   10    7     -4.81      0.00
   -4   10    7     -3.25      0.00
   -3   10    7     -3.49      0.00
   -2   10    7     -0.82      0.00
   -1   10    7     -2.07      0.00
    0   10    7     -0.53      0.00
    1   10    7      0.25      0.00
    2   10    7      1.58      0.00
    3   10    7      1.27      0.00
    4   10    7      2.34      0.00
    5   10    7     -0.98      0.00
   -7   11    7      0.63      0.00
   -6   11    7      0.83      0.00
   -5   11    7     -1.02      0.00
   -4   11    7      0.18      0.00
   -3   11    7     -0.34      0.00
   -2   11    7     -0.04      0.00
   -1   11    7     -0.45      0.00
    0   11    7     -0.60      0.00
    1   11    7      1.42      0.00
    2   11    7      1.39      0.00
    3   11    7     -1.24      0.00
    4   11    7      0.42      0.00
   -7   12    7      0.58      0.00
   -6   12    7      0.13      0.00
   -5   12    7     -3.79      0.00
   -4   12    7     -0.71      0.00
   -3   12    7     -8.01      0.00
   -2   12    7     -0.15      0.00
   -1   12    7     -1.58      0.00
    0   12    7     -0.08      0.00
    1   12    7     -0.42      0.00
    2   12    7     -0.32      0.00
    3   12    7      0.97      0.00
    4   12    7      2.75      0.00
   -6   13    7      0.47      0.00
   -5   13    7     -1.34      0.00
   -4   13    7      0.58      0.00
   -3   13    7      0.24      0.00
   -2   13    7      0.83      0.00
   -1   13    7     -0.29      0.00
    0   13    7     -1.44      0.00
    1   13    7      2.66      0.00
    2   13    7      0.93      0.00
    3   13    7     -1.75      0.00
   -5   14    7     -4.39      0.00
   -4   14    7      1.69      0.00
   -3   14    7     -9.34      0.00
   -2   14    7     -0.97      0.00
   -1   14    7     -0.45      0.00
    0   14    7      0.82      0.00
    1   14    7     -0.71      0.00
    2   14    7     -2.34      0.00
    3   14    7      0.22      0.00
   -5   15    7     -0.57      0.00
   -4   15    7      0.22      0.00
   -3   15    7      0.30      0.00
   -2   15    7      1.60      0.00
   -1   15    7     -0.22      0.00
    0   15    7     -1.54      0.00
    1   15    7      2.98      0.00
    2   15    7      0.40      0.00
   -3   16    7     -6.61      0.00
   -2   16    7     -2.25      0.00
   -1   16    7      0.25      0.00
    0   16    7      1.48      0.00
    1   16    7     -0.62      0.00
   -7    0    8      0.40      0.00
   -6    0    8     -0.20      0.00
   -5    0    8     -1.13      0.00
   -4    0    8      0.72      0.00
   -3    0    8      1.66      0.00
   -2    0    8     -1.69      0.00
   -1    0    8     -0.69      0.00
    0    0    8      1.43      0.00
    1    0    8     -2.06      0.00
    2    0    8      1.73      0.00
    3    0    8      1.68      0.00
    4    0    8     -1.86      0.00
   -7    1    8      0.44      0.00
   -6    1    8     -1.51      0.00
   -5    1    8      1.88      0.00
   -4    1    8     -1.31      0.00
   -3    1    8     -2.45      0.00
   -2    1    8      1.30      0.00
   -1    1    8     -1.11      0.00
    0    1    8      1.16      0.00
    1    1    8      0.62      0.00
    2    1    8     -0.29      0.00
    3    1    8      1.14      0.00
    4    1    8     -1.91      0.00
   -7    2    8      0.06      0.00
   -6    2    8      0.16      0.00
   -5    2    8     -1.10      0.00
   -4    2    8      0.47      0.00
   -3    2    8      1.12      0.00
   -2    2    8     -1.42      0.00
   -1    2    8     -0.66      0.00
    0    2    8      1.16      0.00
    1    2    8     -1.42      0.00
    2    2    8      1.17      0.00
    3    2    8      1.56      0.00
    4    2    8     -0.97      0.00
   -7    3    8      1.09      0.00
   -6    3    8     -3.01      0.00
   -5    3    8      3.12      0.00
   -4    3    8     -3.41      0.00
   -3    3    8     -5.20      0.00
   -2    3    8      2.20      0.00
   -1    3    8     -2.71      0.00
    0    3    8      2.91      0.00
    1    3    8      1.55      0.00
    2    3    8     -0.31      0.00
    3    3    8      3.00      0.00
    4    3    8     -4.68      0.00
   -7    4    8     -0.85      0.00
   -6    4    8      1.25      0.00
   -5    4    8     -1.09      0.00
   -4    4    8     -0.27      0.00
   -3    4    8     -0.03      0.00
   -2    4    8     -0.87      0.00
   -1    4    8     -0.46      0.00
    0    4    8      0.71      0.00
    1    4    8     -0.35      0.00
    2    4    8      0.00      0.00
    3    4    8      1.53      0.00
    4    4    8      0.68      0.00
   -7    5    8      1.25      0.00
   -6    5    8     -1.81      0.00
   -5    5    8      0.13      0.00
   -4    5    8     -4.92      0.00
   -3    5    8     -4.11      0.00
   -2    5    8      0.62      0.00
   -1    5    8     -3.18      0.00
    0    5    8      3.06      0.00
    1    5    8      2.04      0.00
    2    5    8      0.77      0.00
    3    5    8      3.58      0.00
    4    5    8     -5.06      0.00
   -7    6    8     -1.99      0.00
   -6    6    8      2.87      0.00
   -5    6    8     -1.23      0.00
   -4    6    8     -1.17      0.00
   -3    6    8     -0.99      0.00
   -2    6    8     -0.72      0.00
   -1    6    8      0.34      0.00
    0    6    8      0.52      0.00
    1    6    8     -0.18      0.00
    2    6    8     -0.64      0.00
    3    6    8      1.76      0.00
    4    6    8      1.41      0.00
   -6    7    8      0.21      0.00
   -5    7    8     -3.42      0.00
   -4    7    8     -6.61      0.00
   -3    7    8     -1.77      0.00
   -2    7    8     -1.10      0.00
   -1    7    8     -2.89      0.00
    0    7    8      1.62      0.00
    1    7    8      2.14      0.00
    2    7    8      2.33      0.00
    3    7    8      2.85      0.00
   -6    8    8      4.05      0.00
   -5    8    8     -1.36      0.00
   -4    8    8     -1.55      0.00
   -3    8    8     -1.39      0.00
   -2    8    8     -1.03      0.00
   -1    8    8      1.51      0.00
    0    8    8      0.48      0.00
    1    8    8     -0.67      0.00
    2    8    8     -0.38      0.00
    3    8    8      1.66      0.00
   -6    9    8      0.85      0.00
   -5    9    8     -3.85      0.00
   -4    9    8     -8.28      0.00
   -3    9    8     -1.53      0.00
   -2    9    8     -0.89      0.00
   -1    9    8     -2.31      0.00
    0    9    8     -0.25      0.00
    1    9    8      1.73      0.00
    2    9    8      3.10      0.00
    3    9    8      1.65      0.00
   -5   10    8     -1.10      0.00
   -4   10    8     -1.14      0.00
   -3   10    8     -1.39      0.00
   -2   10    8     -1.09      0.00
   -1   10    8      2.00      0.00
    0   10    8      0.32      0.00
    1   10    8     -0.38      0.00
    2   10    8      0.08      0.00
   -5   11    8     -1.90      0.00
   -4   11    8     -8.39      0.00
   -3   11    8     -3.75      0.00
   -2   11    8      0.51      0.00
   -1   11    8     -1.49      0.00
    0   11    8     -1.20      0.00
    1   11    8      0.77      0.00
   -4   12    8     -0.47      0.00
   -3   12    8     -1.13      0.00
   -2   12    8     -0.34      0.00
   -1   12    8      1.17      0.00
    0   12    8      0.15      0.00
    1   12    8      1.08      0.00
   -2   13    8      1.12      0.00
   -1   13    8     -0.50      0.00
   -5    1    9      0.21      0.00
   -4    1    9      0.05      0.00
   -3    1    9      0.88      0.00
   -2    1    9     -2.63      0.00
   -1    1    9      3.56      0.00
    0    1    9      0.13      0.00
    1    1    9      0.72      0.00
   -5    2    9      3.57      0.00
   -4    2    9     -4.89      0.00
   -3    2    9     -0.12      0.00
   -2    2    9      0.45      0.00
   -1    2    9     -1.18      0.00
    0    2    9      1.24      0.00
    1    2    9     -0.75      0.00
   -4    3    9     -0.33      0.00
   -3    3    9      0.41      0.00
   -2    3    9     -1.72      0.00
   -1    3    9      2.73      0.00
    0    3    9     -0.04      0.00
    1    3    9      1.32      0.00
   -4    4    9     -7.12      0.00
   -3    4    9      0.11      0.00
   -2    4    9     -0.36      0.00
   -1    4    9     -1.43      0.00
    0    4    9      1.52      0.00
    1    4    9     -0.63      0.00
   -4    5    9     -0.94      0.00
   -3    5    9     -0.15      0.00
   -2    5    9     -0.80      0.00
   -1    5    9      2.08      0.00
    0    5    9     -0.30      0.00
   -3    6    9      0.34      0.00
   -2    6    9     -1.48      0.00
   -1    6    9     -1.12      0.00
    0    6    9      0.68      0.00
   -2    7    9     -0.64      0.00
   -1    7    9      2.42      0.00
    1    0    0    -10.84      0.00
    1    1    0     -0.08      0.00
   12    1    0      0.25      0.00
    0    2    0    109.55      0.00
    1    2    0     -6.76      0.00
   12    2    0      1.90      0.00
   12    3    0      0.55      0.00
   12    4    0      1.85      0.00
   12    5    0      0.53      0.00
   12    6    0      1.19      0.00
   12    7    0      0.53      0.00
   12    8    0      0.26      0.00
   12    9    0      0.67      0.00
   12   10    0     -0.24      0.00
   11   11    0      1.11      0.00
   12   11    0      0.57      0.00
   11   12    0      2.62      0.00
   11   13    0      2.33      0.00
   10   14    0     -2.94      0.00
   11   14    0      1.06      0.00
   10   15    0     -1.77      0.00
   11   15    0      1.96      0.00
   10   16    0     -2.09      0.00
    9   17    0     -0.02      0.00
   10   17    0     -0.32      0.00
    9   18    0     -0.09      0.00
   10   18    0     -0.53      0.00
    8   19    0     -0.56      0.00
    9   19    0      0.06      0.00
    8   20    0      1.57      0.00
    9   20    0     -0.53      0.00
    7   21    0     -2.63      0.00
    8   21    0      0.32      0.00
    6   22    0     -0.96      0.00
    7   22    0     -0.81      0.00
    8   22    0      1.06      0.00
    6   23    0      0.42      0.00
    7   23    0     -2.24      0.00
    4   24    0     -0.59      0.00
    5   24    0      2.53      0.00
    6   24    0     -0.86      0.00
    2   25    0      0.31      0.00
    3   25    0     -1.43      0.00
    4   25    0      1.02      0.00
    5   25    0      1.94      0.00
   -1    1    1     33.42      0.00
    0    1    1     66.95      0.00
   12    1    1      2.16      0.00
   12    2    1     -0.76      0.00
   12    3    1      1.66      0.00
  -12    4    1     -1.40      0.00
   12    4    1     -1.26      0.00
  -12    5    1      2.84      0.00
   12    5    1      0.82      0.00
  -12    6    1      0.00      0.00
   12    6    1     -1.17      0.00
  -12    7    1      2.24      0.00
   12    7    1      0.17      0.00
  -12    8    1      1.09      0.00
   12    8    1     -0.38      0.00
  -12    9    1      0.92      0.00
   11    9    1     -0.02      0.00
   12    9    1      0.06      0.00
  -12   10    1      1.10      0.00
   11   10    1     -0.24      0.00
   12   10    1      0.60      0.00
  -12   11    1      0.16      0.00
  -11   11    1      3.32      0.00
   11   11    1      0.56      0.00
  -12   12    1      0.63      0.00
  -11   12    1     -1.66      0.00
   11   12    1      0.32      0.00
  -11   13    1      2.59      0.00
   11   13    1      0.37      0.00
  -11   14    1     -1.41      0.00
   10   14    1     -0.66      0.00
   11   14    1      0.54      0.00
  -11   15    1      0.96      0.00
  -10   15    1     -0.06      0.00
   10   15    1     -3.88      0.00
  -10   16    1     -1.03      0.00
   10   16    1      0.26      0.00
  -10   17    1      0.18      0.00
   -9   17    1     -1.23      0.00
    9   17    1      2.59      0.00
   10   17    1     -2.75      0.00
  -10   18    1     -0.78      0.00
   -9   18    1      2.59      0.00
    9   18    1     -0.97      0.00
   -9   19    1     -0.75      0.00
    8   19    1      1.15      0.00
    9   19    1      1.73      0.00
   -9   20    1      1.30      0.00
   -8   20    1     -0.70      0.00
    8   20    1     -1.42      0.00
   -8   21    1      1.65      0.00
   -7   21    1      0.08      0.00
    7   21    1     -1.20      0.00
    8   21    1      0.89      0.00
   -8   22    1     -0.65      0.00
   -7   22    1      2.56      0.00
   -6   22    1     -1.84      0.00
    6   22    1     -0.15      0.00
    7   22    1      0.01      0.00
   -7   23    1     -0.56      0.00
   -6   23    1     -0.19      0.00
    5   23    1      2.19      0.00
    6   23    1      0.34      0.00
    7   23    1     -1.43      0.00
   -6   24    1     -1.08      0.00
   -5   24    1     -2.57      0.00
   -4   24    1      0.16      0.00
    4   24    1     -0.70      0.00
    5   24    1      0.34      0.00
    6   24    1     -0.21      0.00
   -5   25    1      0.69      0.00
   -4   25    1     -0.20      0.00
   -3   25    1     -1.09      0.00
   -2   25    1     -0.71      0.00
    2   25    1     -1.43      0.00
    3   25    1     -0.62      0.00
    4   25    1      0.12      0.00
    5   25    1      0.80      0.00
   12    0    2      0.36      0.00
   12    1    2     -0.19      0.00
   12    2    2      0.29      0.00
   12    3    2     -0.40      0.00
  -12    4    2      1.22      0.00
   12    4    2      0.20      0.00
  -12    5    2      1.30      0.00
   12    5    2     -0.31      0.00
  -12    6    2      1.53      0.00
   11    6    2     -1.75      0.00
   12    6    2      0.22      0.00
  -12    7    2      2.41      0.00
   11    7    2     -2.27      0.00
   12    7    2      0.05      0.00
  -12    8    2      1.27      0.00
   11    8    2     -1.66      0.00
  -12    9    2      2.08      0.00
   11    9    2     -1.89      0.00
  -12   10    2      0.77      0.00
   11   10    2     -0.64      0.00
  -12   11    2      0.78      0.00
  -11   11    2     -1.94      0.00
   11   11    2     -0.76      0.00
  -12   12    2      0.46      0.00
  -11   12    2      3.00      0.00
   10   12    2     -1.91      0.00
   11   12    2      0.15      0.00
  -11   13    2     -1.65      0.00
   10   13    2     -1.34      0.00
  -11   14    2      1.67      0.00
   10   14    2     -2.17      0.00
  -11   15    2     -1.07      0.00
  -10   15    2      0.36      0.00
    9   15    2     -2.37      0.00
   10   15    2     -0.78      0.00
  -10   16    2      1.51      0.00
    9   16    2      1.83      0.00
   10   16    2     -1.28      0.00
  -10   17    2      0.14      0.00
   -9   17    2      2.80      0.00
    9   17    2     -2.07      0.00
  -10   18    2      1.33      0.00
   -9   18    2     -0.17      0.00
    8   18    2      0.05      0.00
    9   18    2      1.51      0.00
   -9   19    2      2.03      0.00
   -8   19    2      0.11      0.00
    8   19    2     -1.72      0.00
   -9   20    2      0.20      0.00
   -8   20    2      2.52      0.00
    7   20    2      1.44      0.00
    8   20    2     -0.12      0.00
   -8   21    2     -0.19      0.00
   -7   21    2     -0.03      0.00
    6   21    2      0.39      0.00
    7   21    2      1.75      0.00
   -8   22    2      1.27      0.00
   -7   22    2     -0.21      0.00
   -6   22    2      0.08      0.00
    5   22    2      2.33      0.00
    6   22    2     -1.67      0.00
    7   22    2      0.37      0.00
   -7   23    2      0.05      0.00
   -6   23    2     -0.24      0.00
   -5   23    2      0.57      0.00
    4   23    2     -2.87      0.00
    5   23    2      0.38      0.00
    6   23    2     -0.44      0.00
   -6   24    2      0.38      0.00
   -5   24    2     -0.48      0.00
   -4   24    2     -0.28      0.00
    3   24    2     -0.95      0.00
    4   24    2     -0.93      0.00
    5   24    2      1.64      0.00
   -5   25    2      0.32      0.00
   -4   25    2     -1.07      0.00
   -3   25    2      0.78      0.00
   -2   25    2     -0.16      0.00
   -1   25    2     -1.39      0.00
    0   25    2     -0.69      0.00
    1   25    2     -0.10      0.00
    2   25    2      1.35      0.00
    3   25    2      0.14      0.00
    4   25    2     -1.52      0.00
  -12    1    3     -0.64      0.00
   11    1    3      0.78      0.00
   12    1    3     -1.39      0.00
  -12    2    3     -0.62      0.00
   11    2    3     -0.08      0.00
  -12    3    3     -1.06      0.00
   11    3    3      1.01      0.00
  -12    4    3      0.13      0.00
   11    4    3     -0.42      0.00
  -12    5    3     -1.22      0.00
   11    5    3      0.91      0.00
  -12    6    3      1.70      0.00
   11    6    3     -0.99      0.00
  -12    7    3     -0.74      0.00
   11    7    3      0.51      0.00
  -12    8    3      2.34      0.00
   11    8    3     -1.40      0.00
  -12    9    3      0.09      0.00
   10    9    3     -1.66      0.00
   11    9    3      0.22      0.00
  -12   10    3      1.44      0.00
  -11   10    3     -3.45      0.00
   10   10    3      0.83      0.00
   11   10    3     -1.24      0.00
  -12   11    3      0.55      0.00
  -11   11    3      1.73      0.00
   10   11    3     -1.28      0.00
  -11   12    3     -2.39      0.00
   10   12    3      1.10      0.00
  -11   13    3      1.75      0.00
    9   13    3      1.16      0.00
   10   13    3     -0.95      0.00
  -11   14    3     -1.33      0.00
  -10   14    3      0.76      0.00
    9   14    3     -3.98      0.00
   10   14    3      0.92      0.00
  -11   15    3      1.48      0.00
  -10   15    3      0.15      0.00
    9   15    3      1.77      0.00
  -10   16    3      0.79      0.00
    8   16    3      2.67      0.00
    9   16    3     -2.91      0.00
  -10   17    3     -0.24      0.00
   -9   17    3      2.60      0.00
    8   17    3     -2.19      0.00
    9   17    3      1.71      0.00
   -9   18    3      1.14      0.00
    7   18    3      0.79      0.00
    8   18    3      0.74      0.00
   -9   19    3      2.17      0.00
   -8   19    3      1.67      0.00
    7   19    3      1.51      0.00
    8   19    3     -1.40      0.00
   -8   20    3      0.01      0.00
   -7   20    3     -1.06      0.00
    6   20    3      0.35      0.00
    7   20    3      1.95      0.00
   -8   21    3      1.20      0.00
   -7   21    3     -0.73      0.00
    5   21    3     -0.64      0.00
    6   21    3     -1.70      0.00
    7   21    3      0.31      0.00
   -7   22    3     -0.81      0.00
   -6   22    3      2.57      0.00
    4   22    3     -1.96      0.00
    5   22    3      0.29      0.00
    6   22    3     -0.70      0.00
   -6   23    3      0.93      0.00
   -5   23    3     -0.06      0.00
   -4   23    3     -0.43      0.00
    3   23    3     -0.52      0.00
    4   23    3      0.04      0.00
    5   23    3     -0.06      0.00
   -6   24    3      2.34      0.00
   -5   24    3     -0.24      0.00
   -4   24    3     -0.08      0.00
   -3   24    3     -0.75      0.00
   -2   24    3      0.35      0.00
   -1   24    3      0.01      0.00
    0   24    3     -2.13      0.00
    1   24    3      1.18      0.00
    2   24    3     -0.29      0.00
    3   24    3     -1.46      0.00
    4   24    3     -1.26      0.00
   -4   25    3      0.12      0.00
   -3   25    3      0.41      0.00
   -2   25    3      0.23      0.00
   -1   25    3     -0.19      0.00
    0   25    3      0.94      0.00
    1   25    3     -0.18      0.00
    2   25    3     -1.67      0.00
    3   25    3     -0.01      0.00
  -12    0    4      0.53      0.00
   11    0    4     -1.82      0.00
  -12    1    4     -0.13      0.00
   11    1    4     -0.11      0.00
  -12    2    4      0.12      0.00
   11    2    4     -1.19      0.00
  -12    3    4      0.31      0.00
   10    3    4      0.99      0.00
   11    3    4     -0.36      0.00
  -12    4    4     -0.58      0.00
   10    4    4      0.07      0.00
   11    4    4     -0.02      0.00
  -12    5    4      1.77      0.00
   10    5    4      0.88      0.00
   11    5    4     -0.59      0.00
  -12    6    4     -0.79      0.00
   10    6    4     -0.09      0.00
   11    6    4      0.72      0.00
  -12    7    4      2.97      0.00
   10    7    4      0.29      0.00
  -12    8    4     -0.31      0.00
  -11    8    4     -0.63      0.00
   10    8    4     -0.25      0.00
  -12    9    4      2.74      0.00
  -11    9    4     -5.47      0.00
   10    9    4     -0.26      0.00
  -11   10    4     -0.28      0.00
    9   10    4     -1.48      0.00
   10   10    4     -0.40      0.00
  -11   11    4     -4.15      0.00
    9   11    4      0.07      0.00
   10   11    4     -0.43      0.00
  -11   12    4      0.12      0.00
    9   12    4      0.27      0.00
  -11   13    4     -2.39      0.00
  -10   13    4      1.52      0.00
    9   13    4     -0.34      0.00
  -10   14    4      0.56      0.00
    8   14    4     -0.48      0.00
    9   14    4      0.97      0.00
  -10   15    4      1.22      0.00
    8   15    4      1.82      0.00
    9   15    4     -0.26      0.00
  -10   16    4      0.80      0.00
   -9   16    4     -0.14      0.00
    7   16    4     -0.75      0.00
    8   16    4     -0.43      0.00
   -9   17    4      0.44      0.00
    7   17    4      0.55      0.00
    8   17    4      1.55      0.00
   -9   18    4      0.07      0.00
   -8   18    4      2.50      0.00
    6   18    4     -2.02      0.00
    7   18    4     -0.45      0.00
   -8   19    4     -0.77      0.00
   -7   19    4      0.40      0.00
    6   19    4     -0.26      0.00
    7   19    4      1.01      0.00
   -8   20    4      1.39      0.00
   -7   20    4     -0.39      0.00
    5   20    4     -1.09      0.00
    6   20    4     -2.01      0.00
   -7   21    4      1.03      0.00
   -6   21    4      1.01      0.00
    4   21    4      0.09      0.00
    5   21    4     -2.19      0.00
    6   21    4     -0.15      0.00
   -7   22    4      0.36      0.00
   -6   22    4      0.29      0.00
   -5   22    4      1.63      0.00
   -4   22    4     -1.61      0.00
    3   22    4      0.46      0.00
    4   22    4      0.49      0.00
    5   22    4     -0.53      0.00
   -6   23    4      0.94      0.00
   -5   23    4      0.40      0.00
   -4   23    4     -1.17      0.00
   -3   23    4      1.24      0.00
   -2   23    4     -0.83      0.00
   -1   23    4      3.00      0.00
    0   23    4     -2.14      0.00
    1   23    4     -0.33      0.00
    2   23    4     -0.45      0.00
    3   23    4     -2.13      0.00
    4   23    4     -0.49      0.00
   -5   24    4      0.65      0.00
   -4   24    4     -1.20      0.00
   -3   24    4     -0.01      0.00
   -2   24    4      1.19      0.00
   -1   24    4     -1.38      0.00
    0   24    4      1.51      0.00
    1   24    4     -0.92      0.00
    2   24    4     -2.77      0.00
    3   24    4      0.84      0.00
   -3   25    4      0.21      0.00
   -2   25    4     -0.82      0.00
   -1   25    4      1.42      0.00
    0   25    4     -0.82      0.00
    1   25    4     -0.12      0.00
  -12    1    5     -0.44      0.00
   10    1    5      0.16      0.00
  -12    2    5     -1.97      0.00
   10    2    5      0.97      0.00
  -12    3    5     -0.58      0.00
   10    3    5      0.53      0.00
  -12    4    5     -2.53      0.00
  -11    4    5      0.66      0.00
    9    4    5     -0.30      0.00
   10    4    5      1.25      0.00
  -12    5    5     -0.70      0.00
  -11    5    5     -0.57      0.00
    9    5    5     -2.61      0.00
   10    5    5      0.99      0.00
  -12    6    5     -1.76      0.00
  -11    6    5     -0.20      0.00
    9    6    5      0.09      0.00
   10    6    5      0.74      0.00
  -12    7    5     -0.66      0.00
  -11    7    5     -0.95      0.00
    9    7    5     -3.46      0.00
   10    7    5      1.31      0.00
  -11    8    5     -0.80      0.00
    9    8    5      0.34      0.00
  -11    9    5     -0.94      0.00
    9    9    5     -2.78      0.00
  -11   10    5     -0.63      0.00
  -10   10    5     -0.73      0.00
    8   10    5      1.97      0.00
    9   10    5      0.14      0.00
  -11   11    5     -0.45      0.00
  -10   11    5     -1.05      0.00
    8   11    5      0.56      0.00
    9   11    5     -1.29      0.00
  -11   12    5     -0.09      0.00
  -10   12    5      0.04      0.00
    8   12    5      1.79      0.00
    9   12    5     -0.14      0.00
  -10   13    5     -0.72      0.00
    8   13    5      0.73      0.00
  -10   14    5      0.46      0.00
   -9   14    5     -0.52      0.00
    7   14    5      0.54      0.00
    8   14    5      1.17      0.00
  -10   15    5     -0.64      0.00
   -9   15    5      0.03      0.00
    7   15    5      0.12      0.00
    8   15    5      0.57      0.00
   -9   16    5     -0.61      0.00
   -8   16    5     -1.38      0.00
    6   16    5     -0.90      0.00
    7   16    5      0.56      0.00
   -9   17    5      0.44      0.00
   -8   17    5      1.12      0.00
    6   17    5     -4.32      0.00
    7   17    5      0.19      0.00
   -8   18    5     -0.85      0.00
   -7   18    5      1.57      0.00
    5   18    5     -2.31      0.00
    6   18    5     -0.75      0.00
   -8   19    5      0.92      0.00
   -7   19    5     -1.10      0.00
   -6   19    5      0.80      0.00
    4   19    5      0.67      0.00
    5   19    5     -0.07      0.00
    6   19    5     -2.52      0.00
   -7   20    5      1.38      0.00
   -6   20    5      1.04      0.00
   -5   20    5     -2.24      0.00
    3   20    5     -1.74      0.00
    4   20    5      0.22      0.00
    5   20    5     -2.12      0.00
   -6   21    5      1.03      0.00
   -5   21    5      0.04      0.00
   -4   21    5     -0.56      0.00
    2   21    5     -2.16      0.00
    3   21    5      0.64      0.00
    4   21    5      0.39      0.00
   -5   22    5     -1.63      0.00
   -4   22    5     -0.58      0.00
   -3   22    5      2.15      0.00
   -2   22    5      0.51      0.00
   -1   22    5      3.37      0.00
    0   22    5     -2.95      0.00
    1   22    5     -0.25      0.00
    2   22    5      0.17      0.00
    3   22    5     -1.91      0.00
   -4   23    5     -1.15      0.00
   -3   23    5      0.35      0.00
   -2   23    5     -0.22      0.00
   -1   23    5      0.27      0.00
    0   23    5     -0.35      0.00
    1   23    5     -0.60      0.00
    2   23    5     -1.90      0.00
   -2   24    5     -0.53      0.00
   -1   24    5      2.65      0.00
    0   24    5     -1.12      0.00
  -11    0    6     -0.68      0.00
    9    0    6      1.47      0.00
  -11    1    6      0.14      0.00
    9    1    6      0.16      0.00
  -11    2    6     -0.55      0.00
    8    2    6     -2.24      0.00
    9    2    6      0.98      0.00
  -11    3    6      0.00      0.00
    8    3    6     -0.42      0.00
    9    3    6      0.19      0.00
  -11    4    6     -0.33      0.00
    8    4    6     -0.91      0.00
    9    4    6     -0.17      0.00
  -11    5    6     -0.79      0.00
    8    5    6      0.70      0.00
    9    5    6     -0.15      0.00
  -11    6    6     -0.18      0.00
  -10    6    6     -0.99      0.00
    8    6    6      0.47      0.00
    9    6    6     -1.16      0.00
  -11    7    6     -1.41      0.00
  -10    7    6      1.29      0.00
    8    7    6      2.22      0.00
    9    7    6     -0.48      0.00
  -11    8    6     -0.16      0.00
  -10    8    6     -0.94      0.00
    8    8    6      1.25      0.00
  -11    9    6     -1.14      0.00
  -10    9    6      1.04      0.00
    8    9    6      2.81      0.00
  -10   10    6     -0.49      0.00
    7   10    6      0.44      0.00
    8   10    6      1.43      0.00
  -10   11    6      0.86      0.00
   -9   11    6     -0.29      0.00
    7   11    6     -0.41      0.00
    8   11    6      2.10      0.00
  -10   12    6     -0.04      0.00
   -9   12    6     -2.04      0.00
    7   12    6     -0.02      0.00
   -9   13    6     -0.74      0.00
    6   13    6     -0.61      0.00
    7   13    6     -0.16      0.00
   -9   14    6     -1.41      0.00
   -8   14    6     -0.43      0.00
    6   14    6     -2.69      0.00
    7   14    6     -0.24      0.00
   -9   15    6     -1.10      0.00
   -8   15    6     -0.56      0.00
    5   15    6     -1.11      0.00
    6   15    6      0.17      0.00
   -8   16    6      0.28      0.00
   -7   16    6     -0.69      0.00
    5   16    6      0.22      0.00
    6   16    6     -2.53      0.00
   -8   17    6      0.40      0.00
   -7   17    6      0.76      0.00
   -6   17    6      3.19      0.00
    4   17    6      1.49      0.00
    5   17    6     -0.37      0.00
   -7   18    6     -0.65      0.00
   -6   18    6     -0.03      0.00
   -5   18    6      0.10      0.00
    3   18    6      0.70      0.00
    4   18    6      0.08      0.00
    5   18    6     -0.28      0.00
   -7   19    6      0.46      0.00
   -6   19    6      2.35      0.00
   -5   19    6     -5.91      0.00
   -4   19    6     -0.27      0.00
    1   19    6     -0.26      0.00
    2   19    6     -1.50      0.00
    3   19    6     -2.39      0.00
    4   19    6      0.55      0.00
   -6   20    6     -0.27      0.00
   -5   20    6      0.11      0.00
   -4   20    6      1.22      0.00
   -3   20    6     -1.78      0.00
   -2   20    6      1.56      0.00
   -1   20    6     -0.02      0.00
    0   20    6     -0.63      0.00
    1   20    6     -0.23      0.00
    2   20    6      0.07      0.00
    3   20    6      0.75      0.00
   -5   21    6     -3.89      0.00
   -4   21    6      0.17      0.00
   -3   21    6      2.64      0.00
   -2   21    6      0.77      0.00
   -1   21    6     -0.19      0.00
    0   21    6     -0.49      0.00
    1   21    6      0.25      0.00
    2   21    6     -0.66      0.00
   -3   22    6     -2.02      0.00
   -2   22    6      1.04      0.00
   -1   22    6      0.21      0.00
    0   22    6     -0.36      0.00
    1   22    6     -0.19      0.00
  -11    1    7     -0.16      0.00
  -10    1    7     -0.61      0.00
    7    1    7     -1.78      0.00
    8    1    7     -0.85      0.00
  -11    2    7      0.49      0.00
  -10    2    7     -0.31      0.00
    7    2    7     -0.37      0.00
    8    2    7      0.22      0.00
  -10    3    7     -0.71      0.00
    7    3    7     -0.44      0.00
    8    3    7     -0.77      0.00
  -10    4    7     -0.75      0.00
    7    4    7      0.05      0.00
    8    4    7      0.21      0.00
  -10    5    7     -0.81      0.00
    7    5    7      0.97      0.00
    8    5    7     -0.42      0.00
  -10    6    7     -0.96      0.00
   -9    6    7      3.47      0.00
    7    6    7      0.82      0.00
  -10    7    7     -0.81      0.00
   -9    7    7     -1.42      0.00
    6    7    7     -1.24      0.00
    7    7    7      1.38      0.00
  -10    8    7     -0.56      0.00
   -9    8    7      3.17      0.00
    6    8    7     -3.61      0.00
    7    8    7      1.07      0.00
  -10    9    7     -0.71      0.00
   -9    9    7     -1.41      0.00
    6    9    7     -0.68      0.00
    7    9    7      0.88      0.00
   -9   10    7      1.81      0.00
   -8   10    7     -0.85      0.00
    6   10    7     -3.02      0.00
    7   10    7      0.59      0.00
   -9   11    7     -0.66      0.00
   -8   11    7     -1.98      0.00
    5   11    7     -1.08      0.00
    6   11    7      0.03      0.00
   -9   12    7      0.60      0.00
   -8   12    7     -1.36      0.00
    5   12    7     -0.97      0.00
    6   12    7     -1.27      0.00
   -8   13    7     -1.80      0.00
   -7   13    7      0.96      0.00
    4   13    7      0.41      0.00
    5   13    7     -0.72      0.00
    6   13    7      0.24      0.00
   -8   14    7     -1.40      0.00
   -7   14    7      1.73      0.00
   -6   14    7      0.16      0.00
    4   14    7      2.43      0.00
    5   14    7     -0.42      0.00
   -7   15    7      0.45      0.00
   -6   15    7      0.32      0.00
    3   15    7     -1.09      0.00
    4   15    7      0.31      0.00
    5   15    7     -0.62      0.00
   -7   16    7      1.47      0.00
   -6   16    7      0.58      0.00
   -5   16    7     -5.14      0.00
   -4   16    7      2.41      0.00
    2   16    7     -3.27      0.00
    3   16    7     -0.58      0.00
    4   16    7      1.52      0.00
   -6   17    7      0.26      0.00
   -5   17    7      0.45      0.00
   -4   17    7     -0.46      0.00
   -3   17    7     -0.05      0.00
   -2   17    7      1.86      0.00
   -1   17    7      0.01      0.00
    0   17    7     -0.98      0.00
    1   17    7      2.22      0.00
    2   17    7      0.23      0.00
    3   17    7      0.14      0.00
    4   17    7     -0.04      0.00
   -6   18    7      0.34      0.00
   -5   18    7     -4.42      0.00
   -4   18    7      1.59      0.00
   -3   18    7     -2.34      0.00
   -2   18    7     -2.53      0.00
   -1   18    7      0.15      0.00
    0   18    7      1.57      0.00
    1   18    7     -0.43      0.00
    2   18    7     -2.83      0.00
    3   18    7     -0.75      0.00
   -5   19    7      0.86      0.00
   -4   19    7     -0.79      0.00
   -3   19    7     -0.49      0.00
   -2   19    7      1.64      0.00
   -1   19    7      0.25      0.00
    0   19    7     -0.34      0.00
    1   19    7      1.12      0.00
    2   19    7      0.47      0.00
   -3   20    7      0.69      0.00
   -2   20    7     -1.59      0.00
   -1   20    7     -0.29      0.00
    0   20    7      1.18      0.00
   -9    0    8      1.89      0.00
   -8    0    8      0.58      0.00
    5    0    8      2.84      0.00
    6    0    8      0.52      0.00
   -9    1    8      0.56      0.00
   -8    1    8     -0.14      0.00
    5    1    8      1.10      0.00
    6    1    8     -0.57      0.00
   -9    2    8      1.52      0.00
   -8    2    8      0.77      0.00
    5    2    8      2.04      0.00
    6    2    8      0.58      0.00
   -9    3    8      1.58      0.00
   -8    3    8     -0.41      0.00
    5    3    8      2.30      0.00
    6    3    8     -1.41      0.00
   -9    4    8      0.66      0.00
   -8    4    8      1.03      0.00
    5    4    8      0.43      0.00
    6    4    8      0.56      0.00
   -9    5    8      2.18      0.00
   -8    5    8     -0.50      0.00
    5    5    8      1.91      0.00
    6    5    8     -1.80      0.00
   -9    6    8     -0.36      0.00
   -8    6    8      1.10      0.00
    5    6    8     -0.68      0.00
    6    6    8      0.47      0.00
   -9    7    8      1.87      0.00
   -8    7    8     -0.11      0.00
   -7    7    8      0.96      0.00
    4    7    8     -3.42      0.00
    5    7    8      0.80      0.00
    6    7    8     -1.79      0.00
   -9    8    8     -1.09      0.00
   -8    8    8      0.87      0.00
   -7    8    8     -2.71      0.00
    4    8    8      0.96      0.00
    5    8    8     -0.73      0.00
   -8    9    8      0.43      0.00
   -7    9    8      0.67      0.00
    4    9    8     -1.14      0.00
    5    9    8     -0.01      0.00
   -8   10    8      0.44      0.00
   -7   10    8     -2.48      0.00
   -6   10    8      3.87      0.00
    3   10    8      0.71      0.00
    4   10    8      0.38      0.00
    5   10    8     -0.26      0.00
   -8   11    8      0.40      0.00
   -7   11    8      0.70      0.00
   -6   11    8      0.13      0.00
    2   11    8      2.35      0.00
    3   11    8      0.81      0.00
    4   11    8      0.63      0.00
   -7   12    8     -1.49      0.00
   -6   12    8      2.49      0.00
   -5   12    8     -0.34      0.00
    2   12    8      0.03      0.00
    3   12    8     -0.60      0.00
    4   12    8      0.37      0.00
   -7   13    8      0.78      0.00
   -6   13    8     -0.59      0.00
   -5   13    8     -0.59      0.00
   -4   13    8     -6.06      0.00
   -3   13    8     -5.99      0.00
    0   13    8     -0.94      0.00
    1   13    8     -0.32      0.00
    2   13    8      0.67      0.00
    3   13    8      0.42      0.00
    4   13    8      1.45      0.00
   -6   14    8      1.00      0.00
   -5   14    8      0.43      0.00
   -4   14    8     -0.16      0.00
   -3   14    8     -0.66      0.00
   -2   14    8      0.79      0.00
   -1   14    8     -0.18      0.00
    0   14    8      0.22      0.00
    1   14    8      2.42      0.00
    2   14    8     -0.29      0.00
    3   14    8     -1.18      0.00
   -5   15    8     -0.92      0.00
   -4   15    8     -2.56      0.00
   -3   15    8     -6.11      0.00
   -2   15    8      0.38      0.00
   -1   15    8      0.36      0.00
    0   15    8     -0.27      0.00
    1   15    8     -0.91      0.00
    2   15    8     -0.69      0.00
   -5   16    8      0.62      0.00
   -4   16    8     -0.19      0.00
   -3   16    8     -0.16      0.00
   -2   16    8      1.43      0.00
   -1   16    8     -0.76      0.00
    0   16    8      0.42      0.00
    1   16    8      2.40      0.00
   -3   17    8     -4.17      0.00
   -2   17    8     -0.71      0.00
   -1   17    8      0.79      0.00
    0   17    8      0.05      0.00
   -8    1    9      1.14      0.00
   -7    1    9      0.67      0.00
   -6    1    9     -1.84      0.00
    2    1    9      1.46      0.00
    3    1    9      0.61      0.00
    4    1    9      0.63      0.00
   -8    2    9      0.33      0.00
   -7    2    9     -0.75      0.00
   -6    2    9     -0.33      0.00
    2    2    9      1.66      0.00
    3    2    9     -0.13      0.00
    4    2    9     -0.91      0.00
   -8    3    9      0.94      0.00
   -7    3    9      0.53      0.00
   -6    3    9     -1.41      0.00
   -5    3    9     -0.04      0.00
    2    3    9      0.17      0.00
    3    3    9      1.03      0.00
    4    3    9      0.92      0.00
   -7    4    9     -0.42      0.00
   -6    4    9     -0.17      0.00
   -5    4    9      3.66      0.00
    2    4    9      2.70      0.00
    3    4    9      0.09      0.00
    4    4    9     -1.59      0.00
   -7    5    9      0.37      0.00
   -6    5    9     -0.49      0.00
   -5    5    9     -0.53      0.00
    1    5    9      1.40      0.00
    2    5    9     -1.02      0.00
    3    5    9      1.70      0.00
    4    5    9      0.87      0.00
   -7    6    9      0.63      0.00
   -6    6    9      0.40      0.00
   -5    6    9      0.92      0.00
   -4    6    9     -7.00      0.00
    1    6    9      0.60      0.00
    2    6    9      2.89      0.00
    3    6    9      0.29      0.00
    4    6    9     -1.68      0.00
   -7    7    9      0.23      0.00
   -6    7    9      0.61      0.00
   -5    7    9     -0.97      0.00
   -4    7    9     -1.36      0.00
   -3    7    9     -0.53      0.00
    0    7    9     -0.76      0.00
    1    7    9      0.53      0.00
    2    7    9     -1.01      0.00
    3    7    9      2.04      0.00
   -7    8    9      1.17      0.00
   -6    8    9      0.78      0.00
   -5    8    9     -1.32      0.00
   -4    8    9     -6.44      0.00
   -3    8    9     -0.08      0.00
   -2    8    9     -1.31      0.00
   -1    8    9     -1.02      0.00
    0    8    9     -0.50      0.00
    1    8    9      1.93      0.00
    2    8    9      2.50      0.00
    3    8    9      0.19      0.00
   -6    9    9      1.15      0.00
   -5    9    9     -0.85      0.00
   -4    9    9     -1.29      0.00
   -3    9    9     -0.71      0.00
   -2    9    9     -1.03      0.00
   -1    9    9      3.04      0.00
    0    9    9     -1.26      0.00
    1    9    9     -0.23      0.00
    2    9    9     -0.32      0.00
    3    9    9      1.64      0.00
   -6   10    9      0.65      0.00
   -5   10    9     -1.43      0.00
   -4   10    9     -6.08      0.00
   -3   10    9     -1.08      0.00
   -2   10    9      0.05      0.00
   -1   10    9     -1.16      0.00
    0   10    9     -1.08      0.00
    1   10    9      2.19      0.00
    2   10    9      1.80      0.00
   -5   11    9     -0.07      0.00
   -4   11    9     -0.84      0.00
   -3   11    9     -0.63      0.00
   -2   11    9     -1.17      0.00
   -1   11    9      2.60      0.00
    0   11    9     -1.27      0.00
    1   11    9      0.13      0.00
    2   11    9     -0.17      0.00
   -4   12    9     -5.00      0.00
   -3   12    9     -1.81      0.00
   -2   12    9      1.06      0.00
   -1   12    9     -1.03      0.00
    0   12    9     -0.90      0.00
    1   12    9      1.33      0.00
   -3   13    9     -0.27      0.00
   -2   13    9     -0.72      0.00
   -1   13    9      0.98      0.00
    0   13    9     -0.60      0.00
    0    0    0      0.00      0.00
# SQUEEZE RESULTS (Version =  21116)
# Note: Data are Listed for all Voids in the P1 Unit Cell
# i.e. Centre of Gravity, Solvent Accessible Volume,
# Recovered number of Electrons in the Void and
# Details about the Squeezed Material
loop_
  _platon_squeeze_void_nr
  _platon_squeeze_void_average_x
  _platon_squeeze_void_average_y
  _platon_squeeze_void_average_z
  _platon_squeeze_void_volume
  _platon_squeeze_void_count_electrons
  _platon_squeeze_void_content
   1 -0.030  0.000 -0.019       206        55 ' '
   2  0.480  0.500 -0.061       206        55 ' '
# Missing Reflections Below sin(th)/lambda = 0.25
loop_
  _platon_missing_refln_index_h
  _platon_missing_refln_index_k
  _platon_missing_refln_index_l
  _platon_missing_refln_theta
    1    0    0     2.018
    1    1    0     2.233
    0    2    0     1.913
    1    2    0     2.781
   -1    1    1     3.189
    0    1    1     2.778
_platon_squeeze_void_probe_radius                  1.20
_platon_squeeze_details
)
TITL 1-Pr-3D in P2(1)/c
CELL   10.2120   21.2880    7.9050     90.00     98.85     90.00
SPGR P21/c
# Solvent Accessible Volume =       410
# Electrons Found in S.A.V. =       109
# Note: Atoms in Void as Cxxx and Qxxx all others
C101 0.873 0.501 0.415 !       3.37 eA-3
Q102 1.006 0.285 0.104 !       2.86 eA-3
Q103 0.025 0.782 0.094 !       2.68 eA-3
C104 0.266 0.987 0.038 !       2.56 eA-3
Q105 0.990 0.724 0.090 !       2.42 eA-3
Q106 1.000 0.780 0.226 !       2.24 eA-3
Q107 0.782 0.545 0.447 !       1.78 eA-3
Q108 0.915 0.778 0.961 !       1.71 eA-3
Q109 0.038 0.768 0.938 !       1.51 eA-3
Q110 1.001 0.715 0.321 !       1.46 eA-3
Q111 0.089 0.520 0.378 !       1.40 eA-3
C112 0.779 0.042 0.017 !       1.39 eA-3
Q113 0.962 0.317 0.530 !       1.36 eA-3
Q114 0.347 0.014 0.284 !       1.12 eA-3
Q115 0.573 0.532 0.283 !       1.09 eA-3
C116 0.427 0.515 0.653 !       1.03 eA-3
Q117 0.499 0.967 0.066 !       1.00 eA-3
Q118 0.560 0.436 0.123 !       0.99 eA-3
Q119 0.376 0.596 0.631 !       0.97 eA-3
Q120 0.844 0.065 0.089 !       0.96 eA-3
Q121 0.931 0.966 0.075 !       0.95 eA-3
C122 0.557 0.982 0.934 !       0.94 eA-3
Q123 0.813 0.471 0.312 !       0.91 eA-3
C124 0.403 0.954 0.037 !       0.91 eA-3
C125 0.686 0.502 0.288 !       0.91 eA-3
Q126 0.068 0.059 0.168 !       0.91 eA-3
Q127 0.902 0.766 0.465 !       0.90 eA-3
Q128 0.911 0.968 0.193 !       0.89 eA-3
Q129 0.338 0.653 0.345 !       0.88 eA-3
Q130 0.808 0.045 0.155 !       0.85 eA-3
Q131 0.772 0.949 0.694 !       0.84 eA-3
Q132 0.228 0.457 0.819 !       0.84 eA-3
Q133 0.940 0.332 0.400 !       0.83 eA-3
C134 0.439 0.487 0.845 !       0.83 eA-3
Q135 0.524 0.563 0.716 !       0.80 eA-3
Q136 0.250 0.821 0.474 !       0.80 eA-3
C137 0.664 0.057 0.960 !       0.79 eA-3
Q138 0.094 0.534 0.247 !       0.79 eA-3
Q139 0.968 0.453 0.469 !       0.78 eA-3
C140 0.500 0.500 0.000 !       0.77 eA-3
Q141 0.994 0.659 0.625 !       0.76 eA-3
Q142 1.004 0.642 0.366 !       0.76 eA-3
Q143 0.033 0.983 0.466 !       0.76 eA-3
Q144 0.564 0.514 0.707 !       0.75 eA-3
Q145 0.217 0.033 0.783 !       0.74 eA-3
Q146 0.723 0.403 0.440 !       0.74 eA-3
Q147 0.591 0.075 0.754 !       0.74 eA-3
Q148 0.625 0.910 0.075 !       0.73 eA-3
Q149 0.624 0.550 0.068 !       0.73 eA-3
Q150 0.191 0.909 0.050 !       0.73 eA-3
Q151 0.972 0.093 0.655 !       0.73 eA-3
Q152 0.561 0.761 0.067 !       0.73 eA-3
Q153 0.371 0.456 0.224 !       0.72 eA-3
Q154 0.241 0.783 0.583 !       0.72 eA-3
Q155 0.320 0.530 0.281 !       0.72 eA-3
Q156 0.130 0.952 0.573 !       0.72 eA-3
Q157 0.311 0.140 0.028 !       0.71 eA-3
Q158 0.666 0.595 0.469 !       0.71 eA-3
Q159 0.362 0.160 0.793 !       0.71 eA-3
Q160 0.260 0.327 0.022 !       0.70 eA-3
Q161 0.369 0.435 0.345 !       0.70 eA-3
Q162 0.561 0.516 0.783 !       0.69 eA-3
Q163 0.713 0.961 0.101 !       0.69 eA-3
Q164 0.097 0.315 0.654 !       0.69 eA-3
Q165 0.655 0.014 0.375 !       0.69 eA-3
Q166 0.100 0.378 0.307 !       0.69 eA-3
Q167 0.304 0.098 0.154 !       0.69 eA-3
Q168 0.696 0.902 0.846 !       0.69 eA-3
Q169 0.120 0.579 0.726 !       0.68 eA-3
Q170 0.132 0.285 0.449 !       0.68 eA-3
Q171 0.596 0.449-0.004 !       0.68 eA-3
Q172 0.130 0.013 0.408 !       0.68 eA-3
Q173 0.470 0.514 0.338 !       0.68 eA-3
Q174 0.022 0.621 0.214 !       0.68 eA-3
Q175 0.431 0.145 0.622 !       0.67 eA-3
Q176 0.210 0.573 0.127 !       0.67 eA-3
Q177 0.627 0.080 0.188 !       0.67 eA-3
Q178 0.541 0.800 0.479 !       0.67 eA-3
Q179 0.376 0.456 0.471 !       0.67 eA-3
Q180 0.248 0.597 0.940 !       0.66 eA-3
C181 0.387 0.972 0.248 !       0.66 eA-3
Q182 0.753 0.921 0.044 !       0.66 eA-3
Q183 0.249 0.372 0.745 !       0.66 eA-3
Q184 0.564 0.375 0.473 !       0.66 eA-3
Q185 0.405 0.468 0.381 !       0.66 eA-3
Q186 0.563 0.124 0.965 !       0.65 eA-3
Q187 0.125 0.296 0.694 !       0.65 eA-3
Q188 0.999 0.436 0.501 !       0.65 eA-3
Q189 0.381 0.925 0.365 !       0.65 eA-3
Q190 0.973 0.092 0.850 !       0.65 eA-3
Q191 0.818 0.766 0.933 !       0.65 eA-3
Q192 0.769 0.797 0.892 !       0.65 eA-3
Q193 0.915 0.810 0.192 !       0.65 eA-3
Q194 0.557 0.488 0.874 !       0.65 eA-3
Q195 0.726 0.917 0.885 !       0.65 eA-3
C196 0.438 1.006 0.928 !       0.64 eA-3
Q197 0.368 0.254 0.184 !       0.64 eA-3
Q198 0.620 0.088-0.008 !       0.64 eA-3
Q199 0.600 0.456 0.379 !       0.63 eA-3
)
;
_shelx_fab_checksum              7178
_olex2_submission_special_instructions 'No special instructions were received'
loop_
_space_group_symop_operation_xyz
'x, y, z'
'-x, y+1/2, -z+1/2'
'-x, -y, -z'
'x, -y-1/2, z-1/2'
loop_
_atom_site_label
_atom_site_type_symbol
_atom_site_fract_x
_atom_site_fract_y
_atom_site_fract_z
_atom_site_U_iso_or_equiv
_atom_site_adp_type
_atom_site_occupancy
_atom_site_site_symmetry_order
_atom_site_calc_flag
_atom_site_refinement_flags_posn
Pr1 Pr 0.01055(4) 0.21505(2) 0.00493(6) 0.01566(18) Uani 1 1 d .
O4 O -0.1291(6) 0.2595(3) -0.2515(8) 0.0310(15) Uani 1 1 d .
O1 O 0.2464(6) 0.1899(3) -0.0297(8) 0.0355(16) Uani 1 1 d .
O3 O -0.2245(6) 0.1838(3) 0.0338(8) 0.0398(17) Uani 1 1 d .
F3 F -0.4106(6) 0.1227(3) 0.2416(9) 0.0526(17) Uani 1 1 d .
C5 C -0.2309(8) 0.2167(4) 0.1617(11) 0.0215(18) Uani 1 1 d .
O2 O 0.1522(5) 0.2580(3) -0.2171(8) 0.0307(15) Uani 1 1 d .
F6 F -0.3340(5) 0.3388(2) 0.1775(8) 0.0428(15) Uani 1 1 d .
C10 C 0.2529(8) 0.2280(4) -0.1430(11) 0.025(2) Uani 1 1 d .
O6 O -0.0102(6) 0.1328(3) -0.2089(7) 0.0328(16) Uani 1 1 d .
O5 O 0.0432(7) 0.1187(3) 0.1806(9) 0.0464(19) Uani 1 1 d .
F5 F 0.4319(6) 0.1356(3) -0.2275(9) 0.0492(16) Uani 1 1 d .
F4 F -0.6437(5) 0.1478(3) 0.3378(9) 0.0540(18) Uani 1 1 d .
F2 F 0.2302(7) 0.0590(4) -0.3877(14) 0.107(3) Uani 1 1 d .
C6 C -0.3637(8) 0.2301(4) 0.2116(11) 0.024(2) Uani 1 1 d .
C7 C -0.4480(9) 0.1829(4) 0.2503(12) 0.029(2) Uani 1 1 d .
C3 C 0.0003(9) 0.0602(4) -0.4333(11) 0.031(2) Uani 1 1 d D
C9 C 0.3874(8) 0.2434(5) -0.1940(11) 0.027(2) Uani 1 1 d .
C4 C 0.0007(10) 0.1272(4) -0.3636(12) 0.031(2) Uani 1 1 d .
C8 C -0.5690(8) 0.1963(5) 0.2948(12) 0.031(2) Uani 1 1 d .
C12 C -0.4089(9) 0.2920(4) 0.2216(11) 0.027(2) Uani 1 1 d .
O7 O 0.0145(9) 0.3302(3) 0.0307(9) 0.058(2) Uani 1 1 d .
C2 C 0.1175(10) 0.0296(5) -0.4422(14) 0.044(3) Uani 1 1 d D
F1 F -0.2307(7) 0.0592(3) -0.4845(13) 0.102(3) Uani 1 1 d .
C1 C -0.1169(10) 0.0299(4) -0.4916(13) 0.041(3) Uani 1 1 d D
C11 C 0.4706(8) 0.1964(5) -0.2324(12) 0.031(2) Uani 1 1 d .
loop_
_atom_site_aniso_label
_atom_site_aniso_U_11
_atom_site_aniso_U_22
_atom_site_aniso_U_33
_atom_site_aniso_U_23
_atom_site_aniso_U_13
_atom_site_aniso_U_12
Pr1 0.0162(3) 0.0184(3) 0.0139(2) -0.00085(19) 0.00704(17) 0.0000(2)
O4 0.017(3) 0.042(4) 0.036(4) 0.009(3) 0.009(3) -0.001(3)
O1 0.026(4) 0.055(4) 0.028(4) 0.012(3) 0.013(3) 0.005(3)
O3 0.027(4) 0.065(5) 0.030(4) -0.015(3) 0.014(3) -0.012(3)
F3 0.034(3) 0.041(3) 0.088(5) 0.003(3) 0.024(3) 0.005(3)
C5 0.013(4) 0.025(4) 0.027(5) 0.002(4) 0.006(3) 0.002(4)
O2 0.013(3) 0.047(4) 0.033(4) 0.012(3) 0.008(3) 0.006(3)
F6 0.027(3) 0.038(3) 0.067(4) 0.012(3) 0.021(3) -0.003(3)
C10 0.020(5) 0.038(5) 0.018(5) 0.001(4) 0.004(4) -0.003(4)
O6 0.059(4) 0.025(3) 0.019(3) -0.004(3) 0.018(3) 0.002(3)
O5 0.066(5) 0.038(4) 0.034(4) 0.014(3) 0.005(4) -0.005(4)
F5 0.036(3) 0.041(3) 0.075(5) -0.002(3) 0.023(3) -0.005(3)
F4 0.030(3) 0.046(3) 0.091(5) 0.013(3) 0.026(3) -0.009(3)
F2 0.052(5) 0.082(5) 0.184(10) -0.074(6) 0.010(5) -0.013(4)
C6 0.015(4) 0.041(5) 0.017(4) 0.005(4) 0.006(3) -0.001(4)
C7 0.031(5) 0.019(4) 0.040(6) 0.000(4) 0.009(4) 0.007(4)
C3 0.061(7) 0.019(4) 0.015(4) -0.004(4) 0.008(4) 0.005(5)
C9 0.011(4) 0.048(6) 0.023(5) 0.005(4) 0.002(3) -0.002(4)
C4 0.052(6) 0.020(4) 0.024(5) -0.008(4) 0.014(4) 0.003(4)
C8 0.015(5) 0.046(6) 0.031(5) 0.014(4) 0.004(4) -0.012(4)
C12 0.020(5) 0.040(5) 0.021(5) -0.001(4) 0.003(4) 0.000(4)
O7 0.124(8) 0.012(3) 0.039(5) -0.002(3) 0.019(5) 0.002(4)
C2 0.047(7) 0.036(6) 0.051(7) -0.021(5) 0.013(5) -0.002(5)
F1 0.057(5) 0.072(5) 0.172(10) -0.065(6) 0.006(5) 0.019(4)
C1 0.053(7) 0.025(5) 0.046(6) -0.012(5) 0.009(5) 0.005(5)
C11 0.018(5) 0.051(6) 0.025(5) -0.010(4) 0.006(4) -0.008(4)
loop_
_atom_type_symbol
_atom_type_description
_atom_type_scat_dispersion_real
_atom_type_scat_dispersion_imag
_atom_type_scat_source
C C 0.0033 0.0016 'International Tables Vol C Tables 4.2.6.8 and 6.1.1.4'
F F 0.0171 0.0103 'International Tables Vol C Tables 4.2.6.8 and 6.1.1.4'
O O 0.0106 0.0060 'International Tables Vol C Tables 4.2.6.8 and 6.1.1.4'
Pr Pr -0.2180 2.8214 'International Tables Vol C Tables 4.2.6.8 and 6.1.1.4'
loop_
_geom_angle_atom_site_label_1
_geom_angle_atom_site_label_2
_geom_angle_atom_site_label_3
_geom_angle
_geom_angle_site_symmetry_1
_geom_angle_site_symmetry_3
O4 Pr1 O4 102.25(18) . 4_566
O4 Pr1 O1 115.51(19) . .
O4 Pr1 O3 75.0(2) . .
O4 Pr1 C5 25.5(2) 4_566 .
O4 Pr1 C5 85.7(2) . .
O4 Pr1 O2 67.94(18) . .
O4 Pr1 O2 144.3(2) . 4_566
O4 Pr1 C10 150.2(2) 4_566 .
O4 Pr1 C10 93.0(2) . .
O1 Pr1 O4 139.4(2) . 4_566
O1 Pr1 O3 152.5(2) . .
O1 Pr1 C5 158.4(2) . .
O1 Pr1 O2 50.44(19) . .
O1 Pr1 C10 24.6(2) . .
O3 Pr1 O4 50.14(19) . 4_566
O3 Pr1 C5 25.0(2) . .
O3 Pr1 O2 141.7(2) . .
O3 Pr1 C10 159.6(2) . .
O2 Pr1 O4 67.32(19) 4_566 4_566
O2 Pr1 O4 147.4(2) . 4_566
O2 Pr1 O1 73.2(2) 4_566 .
O2 Pr1 O3 114.11(19) 4_566 .
O2 Pr1 C5 150.8(2) . .
O2 Pr1 C5 92.1(2) 4_566 .
O2 Pr1 O2 101.83(17) 4_566 .
O2 Pr1 C10 26.0(2) . .
O2 Pr1 C10 85.3(2) 4_566 .
C10 Pr1 C5 173.8(2) . .
O6 Pr1 O4 74.2(2) . .
O6 Pr1 O4 131.6(2) . 4_566
O6 Pr1 O1 75.7(2) . .
O6 Pr1 O3 83.7(2) . .
O6 Pr1 C5 108.4(2) . .
O6 Pr1 O2 77.4(2) . .
O6 Pr1 O2 139.0(2) . 4_566
O6 Pr1 C10 77.1(2) . .
O6 Pr1 O5 77.4(2) . .
O6 Pr1 O7 141.0(2) . .
O5 Pr1 O4 78.5(2) . 4_566
O5 Pr1 O4 141.9(2) . .
O5 Pr1 O1 80.6(2) . .
O5 Pr1 O3 77.2(2) . .
O5 Pr1 C5 79.7(2) . .
O5 Pr1 O2 71.8(2) . 4_566
O5 Pr1 O2 129.0(2) . .
O5 Pr1 C10 104.8(2) . .
O7 Pr1 O4 74.7(2) . 4_566
O7 Pr1 O4 71.8(2) . .
O7 Pr1 O1 102.5(3) . .
O7 Pr1 O3 105.0(3) . .
O7 Pr1 C5 87.5(2) . .
O7 Pr1 O2 72.5(2) . 4_566
O7 Pr1 O2 72.7(2) . .
O7 Pr1 C10 86.3(3) . .
O7 Pr1 O5 141.4(2) . .
Pr1 O4 Pr1 111.7(2) . 4_565
C5 O4 Pr1 90.7(5) 4_565 4_565
C5 O4 Pr1 157.0(5) 4_565 .
C10 O1 Pr1 95.7(5) . .
C5 O3 Pr1 95.4(5) . .
O4 C5 Pr1 63.7(4) 4_566 .
O4 C5 C6 118.9(7) 4_566 .
O3 C5 Pr1 59.6(4) . .
O3 C5 O4 121.9(7) . 4_566
O3 C5 C6 119.1(8) . .
C6 C5 Pr1 166.1(6) . .
Pr1 O2 Pr1 111.5(2) 4_565 .
C10 O2 Pr1 146.6(5) . 4_565
C10 O2 Pr1 90.4(5) . .
O1 C10 Pr1 59.7(4) . .
O1 C10 O2 122.7(8) . .
O1 C10 C9 119.4(8) . .
O2 C10 Pr1 63.6(4) . .
O2 C10 C9 117.8(7) . .
C9 C10 Pr1 169.4(6) . .
C4 O6 Pr1 137.8(5) . .
C7 C6 C5 122.5(8) . .
C7 C6 C12 116.6(7) . .
C12 C6 C5 121.0(7) . .
F3 C7 C6 119.3(8) . .
F3 C7 C8 119.2(8) . .
C8 C7 C6 121.4(8) . .
C2 C3 C4 120.4(8) . .
C2 C3 C1 118.7(8) . .
C1 C3 C4 120.9(8) . .
C8 C9 C10 122.4(8) 4_665 .
C8 C9 C11 116.8(8) 4_665 .
C11 C9 C10 120.8(8) . .
O6 C4 C3 116.4(8) . .
O6 C4 O7 128.1(8) . 4_565
O7 C4 C3 115.4(8) 4_565 .
F4 C8 C7 118.1(8) . .
F4 C8 C9 119.8(8) . 4_466
C9 C8 C7 122.0(8) 4_466 .
F6 C12 C6 118.7(7) . .
F6 C12 C11 120.8(8) . 4_466
C11 C12 C6 120.4(9) 4_466 .
C4 O7 Pr1 140.7(6) 4_566 .
F2 C2 C3 118.7(8) . .
F2 C2 C1 121.0(9) . 3_554
C1 C2 C3 120.3(9) 3_554 .
C2 C1 C3 120.9(9) 3_554 .
F1 C1 C3 119.1(8) . .
F1 C1 C2 119.9(9) . 3_554
F5 C11 C9 119.7(7) . .
F5 C11 C12 117.5(8) . 4_665
C12 C11 C9 122.8(9) 4_665 .
loop_
_geom_bond_atom_site_label_1
_geom_bond_atom_site_label_2
_geom_bond_distance
_geom_bond_site_symmetry_2
Pr1 O4 2.479(6) .
Pr1 O4 2.623(6) 4_566
Pr1 O1 2.523(6) .
Pr1 O3 2.535(6) .
Pr1 C5 2.925(8) .
Pr1 O2 2.504(6) 4_566
Pr1 O2 2.606(6) .
Pr1 C10 2.909(8) .
Pr1 O6 2.421(6) .
Pr1 O5 2.471(6) .
Pr1 O7 2.459(6) .
O4 C5 1.261(10) 4_565
O1 C10 1.217(10) .
O3 C5 1.240(10) .
F3 C7 1.342(10) .
C5 C6 1.497(11) .
O2 C10 1.274(10) .
F6 C12 1.335(10) .
C10 C9 1.525(11) .
O6 C4 1.250(10) .
F5 C11 1.356(11) .
F4 C8 1.359(9) .
F2 C2 1.323(11) .
C6 C7 1.388(12) .
C6 C12 1.401(12) .
C7 C8 1.366(12) .
C3 C4 1.529(11) .
C3 C2 1.374(11) .
C3 C1 1.375(11) .
C9 C8 1.365(13) 4_665
C9 C11 1.377(13) .
C4 O7 1.256(11) 4_565
C12 C11 1.359(12) 4_466
C2 C1 1.369(13) 3_554
F1 C1 1.329(11) .
