#------------------------------------------------------------------------------
#$Date: 2017-04-05 05:47:50 +0300 (Wed, 05 Apr 2017) $
#$Revision: 194914 $
#$URL: file:///home/coder/svn-repositories/cod/cif/7/04/26/7042642.cif $
#------------------------------------------------------------------------------
#
# This file is available in the Crystallography Open Database (COD),
# http://www.crystallography.net/
#
# All data on this site have been placed in the public domain by the
# contributors.
#
data_7042642
loop_
_publ_author_name
'Cui, Yu'
'Chen, Zi-Man'
'Jiang, Xuan-Feng'
'Tong, Jin'
'Yu, Shu-Yan'
_publ_section_title
;
 Self-Assembly and Anion sensing of Metal-organic [M6L2] Cages from
 Fluorescent Triphenylamine Tri-pyrazoles with Dipalladium(II,II) Corners
;
_journal_name_full               'Dalton Trans.'
_journal_paper_doi               10.1039/C7DT00179G
_journal_year                    2017
_chemical_formula_moiety         'C126 H84 N26 Pd6, 6(F6 P)'
_chemical_formula_sum            'C126 H84 F36 N26 P6 Pd6'
_chemical_formula_weight         3470.41
_space_group_crystal_system      hexagonal
_space_group_IT_number           175
_space_group_name_Hall           '-P 6'
_space_group_name_H-M_alt        'P 6/m'
_symmetry_space_group_name_Hall  '-P 6'
_symmetry_space_group_name_H-M   'P 6/m'
_atom_sites_solution_hydrogens   geom
_audit_creation_date             2016-10-10
_audit_creation_method
;
Olex2 1.2-beta
(compiled 2016.09.09 svn.r3337 for OlexSys, GUI svn.r5227)
;
_audit_update_record
;
2017-03-23 deposited with the CCDC.
2017-04-04 downloaded from the CCDC.
;
_cell_angle_alpha                90
_cell_angle_beta                 90
_cell_angle_gamma                120
_cell_formula_units_Z            2
_cell_length_a                   29.983(4)
_cell_length_b                   29.983(4)
_cell_length_c                   11.399(2)
_cell_measurement_reflns_used    2016
_cell_measurement_temperature    291.15
_cell_measurement_theta_max      20
_cell_measurement_theta_min      2
_cell_volume                     8875(2)
_computing_cell_refinement       'SAINT v8.34A (Bruker, 2013)'
_computing_data_collection       'Bruker APEX2'
_computing_data_reduction        'Bruker SAINT'
_computing_molecular_graphics    'Bruker SHELXTL'
_computing_publication_material  'Bruker SHELXTL'
_computing_structure_refinement  'ShelXL (Sheldrick, 2015)'
_computing_structure_solution    'SHELXS-97 (Sheldrick 2008)'
_diffrn_ambient_temperature      291.15
_diffrn_measured_fraction_theta_full 0.999
_diffrn_measured_fraction_theta_max 0.999
_diffrn_measurement_device_type  'CCD Area Detector'
_diffrn_radiation_type           MoK\a
_diffrn_radiation_wavelength     0.71073
_diffrn_reflns_av_R_equivalents  0.1010
_diffrn_reflns_av_unetI/netI     0.0517
_diffrn_reflns_Laue_measured_fraction_full 0.999
_diffrn_reflns_Laue_measured_fraction_max 0.999
_diffrn_reflns_limit_h_max       31
_diffrn_reflns_limit_h_min       -36
_diffrn_reflns_limit_k_max       36
_diffrn_reflns_limit_k_min       -33
_diffrn_reflns_limit_l_max       13
_diffrn_reflns_limit_l_min       -13
_diffrn_reflns_number            44418
_diffrn_reflns_point_group_measured_fraction_full 0.999
_diffrn_reflns_point_group_measured_fraction_max 0.999
_diffrn_reflns_theta_full        25.242
_diffrn_reflns_theta_max         25.682
_diffrn_reflns_theta_min         2.244
_exptl_absorpt_coefficient_mu    0.732
_exptl_absorpt_correction_type   none
_exptl_crystal_colour            yellow
_exptl_crystal_colour_primary    yellow
_exptl_crystal_density_diffrn    1.299
_exptl_crystal_description       block
_exptl_crystal_F_000             3424
_exptl_crystal_size_max          0.23
_exptl_crystal_size_mid          0.13
_exptl_crystal_size_min          0.12
_refine_diff_density_max         2.862
_refine_diff_density_min         -2.185
_refine_diff_density_rms         0.172
_refine_ls_extinction_method     none
_refine_ls_goodness_of_fit_ref   1.035
_refine_ls_hydrogen_treatment    constr
_refine_ls_matrix_type           full
_refine_ls_number_parameters     350
_refine_ls_number_reflns         5921
_refine_ls_number_restraints     141
_refine_ls_restrained_S_all      1.075
_refine_ls_R_factor_all          0.1039
_refine_ls_R_factor_gt           0.0779
_refine_ls_shift/su_max          0.001
_refine_ls_shift/su_mean         0.000
_refine_ls_structure_factor_coef Fsqd
_refine_ls_weighting_details
'w=1/[\s^2^(Fo^2^)+(0.1347P)^2^+66.7061P] where P=(Fo^2^+2Fc^2^)/3'
_refine_ls_weighting_scheme      calc
_refine_ls_wR_factor_gt          0.2119
_refine_ls_wR_factor_ref         0.2383
_reflns_Friedel_coverage         0.000
_reflns_number_gt                4392
_reflns_number_total             5921
_reflns_threshold_expression     'I > 2\s(I)'
_cod_data_source_file            c7dt00179g2.cif
_cod_data_source_block           jxf111_sq
_cod_original_cell_volume        8875(3)
_cod_database_code               7042642
_shelx_space_group_comment
;
The symmetry employed for this shelxl refinement is uniquely defined
by the following loop, which should always be used as a source of
symmetry information in preference to the above space-group names.
They are only intended as comments.
;
_olex2_refinement_description
;
1. Fixed Uiso
 At 1.2 times of:
  All C(H) groups
2. Restrained distances
 P1-F2
 1.7 with sigma of 0.02
 C16-C18A
 2.4 with sigma of 0.02
 C17-C18A
 1.4 with sigma of 0.02
 C18A-C19A
 1.4 with sigma of 0.02
 F2-F8
 3 with sigma of 0.02
 F1-P1
 1.7 with sigma of 0.02
 F1-F2 \\sim F2-F5
 with sigma of 0.02
 F4-F3 \\sim F3-F2
 with sigma of 0.02
 F8-F6 \\sim F6-F10
 with sigma of 0.02
3. Rigid body (RIGU) restrains
 P1, P2, F3, F4, F1, F2, F5, F6, F7, F8, F9, F10
 with sigma for 1-2 distances of 0.004 and sigma for 1-3 distances of 0.004
 C20A, C20, C19, C19A, C18A, C18, C17, N5
 with sigma for 1-2 distances of 0.004 and sigma for 1-3 distances of 0.004
4. Others
 Sof(C18A)=Sof(H18A)=Sof(C19A)=Sof(H19A)=Sof(C20A)=Sof(H20A)=1-FVAR(1)
 Sof(C20)=Sof(H20)=Sof(C18)=Sof(H18)=Sof(C19)=Sof(H19)=FVAR(1)
 Fixed Sof: F2(0.5)
5.a Aromatic/amide H refined with riding coordinates:
 C7(H7), C8(H8), C11(H11), C12(H12), C14(H14), C15(H15), C20(H20), C18(H18),
 C21(H21), C4(H4), C5(H5), C6(H6), C3(H3), C19(H19), C18A(H18A), C19A(H19A),
 C20A(H20A)
;
_shelx_res_file
;
    jxf111_sq.res created by SHELXL-2014/7

TITL jxf111 P 6/m R = 0.13
CELL 0.71073 29.983 29.983 11.399 90 90 120
ZERR 2 0.004 0.004 0.002 0 0 0
LATT 1
SYMM -Y+X,+X,+Z
SYMM -Y,+X-Y,+Z
SYMM -X,-Y,+Z
SYMM +Y-X,-X,+Z
SYMM +Y,-X+Y,+Z
SFAC  C 2.310 20.844 1.02 10.208 1.589 0.569 0.865 51.651 0.216 0.003 0.002 =
 11.5 0.68 12.01
SFAC  H 0.493 10.511 0.323 26.126 0.14 3.142 0.041 57.8 0.003 0 0 0.624 0.35 =
 1.008
SFAC  F 3.539 10.283 2.641 4.294 1.517 0.262 1.024 26.148 0.278 0.017 0.01 =
 51.5 0.64 19
SFAC  N 12.213 0.006 3.132 9.893 2.013 28.998 1.166 0.583 -11.529 0.006 =
 0.003 19.6 0.68 14.01
SFAC  P 6.435 1.907 4.179 27.157 1.78 0.526 1.491 68.165 1.115 0.102 0.094 =
 410 1.05 30.97
SFAC  Pd 19.332 0.699 15.502 7.989 5.295 25.205 0.606 76.899 5.266 -0.999 =
 1.007 4360 1.5 106.4
UNIT 252 168 72 52 12 12

DFIX 1.7 P1 F2
DFIX 2.4 C16 C18A
DFIX 1.4 C17 C18A
DFIX 1.4 C18A C19A
DFIX 3 F2 F8
DFIX 1.7 F1 P1
SADI F1 F2 F2 F5
SADI F4 F3 F3 F2
SADI F8 F6 F6 F10
RIGU $P $F
RIGU C20A C20 C19 C19A C18A C18 C17 N5

L.S. 20 0 110
PLAN  -20
TEMP 18
BOND $H
CONF
ABIN
fmap 2
acta
SHEL 666 0.82
REM <olex2.extras>
REM <HklSrc "%.\\jxf111_sq.hkl">
REM </olex2.extras>

WGHT    0.134700   66.706093
FVAR       0.04459   0.53486
PD1   6    0.477039    0.364290    1.000000    10.50000    0.02264    0.02035 =
         0.03196    0.00000    0.00000    0.01095
PD2   6    0.350269    0.295131    1.000000    10.50000    0.02024    0.02750 =
         0.03860    0.00000    0.00000    0.01197
N5    4    0.510170    0.422832    0.883144    11.00000    0.03634    0.02827 =
         0.04134    0.00513   -0.00736    0.01368
N3    4    0.303542    0.302990    1.116333    11.00000    0.02707    0.03306 =
         0.04322   -0.00061    0.00138    0.01232
N2    4    0.391165    0.283686    0.876515    11.00000    0.01836    0.03347 =
         0.03759   -0.00152    0.00135    0.00993
N1    4    0.444001    0.308291    0.879712    11.00000    0.02180    0.02403 =
         0.03519    0.00045   -0.00074    0.01013
N4    4    0.666667    0.333333    0.725953    10.33333    0.01987    0.01987 =
         0.04025    0.00000    0.00000    0.00994
C7    1    0.374237    0.246846    0.796156    11.00000    0.02043    0.03403 =
         0.04632   -0.00832   -0.00364    0.00791
AFIX  43
H7    2    0.339917    0.224767    0.776738    11.00000   -1.20000
AFIX   0
C8    1    0.416109    0.246760    0.746138    11.00000    0.03089    0.03757 =
         0.05226   -0.01423   -0.00428    0.01573
AFIX  43
H8    2    0.415417    0.224759    0.687748    11.00000   -1.20000
AFIX   0
C9    1    0.459486    0.286057    0.800328    11.00000    0.02287    0.03207 =
         0.03816   -0.00483   -0.00121    0.01307
C10   1    0.513611    0.300384    0.781126    11.00000    0.02440    0.02468 =
         0.03681   -0.00367   -0.00430    0.01192
C11   1    0.525525    0.273203    0.701744    11.00000    0.02833    0.07308 =
         0.10697   -0.06428   -0.01731    0.02266
AFIX  43
H11   2    0.499064    0.247169    0.658282    11.00000   -1.20000
AFIX   0
C12   1    0.574762    0.283088    0.684544    11.00000    0.03197    0.06620 =
         0.08157   -0.04796   -0.01159    0.02631
AFIX  43
H12   2    0.581056    0.262993    0.632454    11.00000   -1.20000
AFIX   0
C13   1    0.615555    0.323155    0.744754    11.00000    0.02119    0.01741 =
         0.03320    0.00144    0.00231    0.01074
C14   1    0.604401    0.350773    0.820165    11.00000    0.02293    0.07386 =
         0.06907   -0.04563   -0.01017    0.01461
AFIX  43
H14   2    0.630940    0.377797    0.861306    11.00000   -1.20000
AFIX   0
C15   1    0.554290    0.339738    0.837603    11.00000    0.03188    0.08103 =
         0.06663   -0.05271   -0.00745    0.02144
AFIX  43
H15   2    0.548119    0.359899    0.889755    11.00000   -1.20000
AFIX   0
PART 1
C20   1    0.517666    0.418457    0.764682    21.00000    0.05251    0.04333 =
         0.04178    0.00501   -0.00637    0.02940
AFIX  43
H20   2    0.501526    0.385826    0.731052    21.00000   -1.20000
AFIX   0
PART 0
C16   1    0.539376    0.470226    0.938352    11.00000    0.03296    0.02602 =
         0.04734    0.00497   -0.00778    0.01610
C17   1    0.567039    0.515979    0.877612    11.00000    0.05893    0.03616 =
         0.06988    0.01710   -0.01330    0.01749
PART 1
C18   1    0.574480    0.508245    0.753548    21.00000    0.08985    0.04361 =
         0.06668    0.02047   -0.01380    0.02713
AFIX  43
H18   2    0.598452    0.537074    0.712175    21.00000   -1.20000
AFIX   0
PART 0
C21   1    0.596461    0.561868    0.940618    11.00000    0.04321    0.02131 =
         0.11161    0.01592   -0.00889    0.00925
AFIX  43
H21   2    0.616162    0.592597    0.900290    11.00000   -1.20000
AFIX   0
C4    1    0.267027    0.306741    1.298589    11.00000    0.06859    0.11649 =
         0.05662   -0.01292    0.00848    0.06011
AFIX  43
H4    2    0.270078    0.309439    1.379820    11.00000   -1.20000
AFIX   0
C5    1    0.306041    0.306420    1.229542    11.00000    0.04811    0.06695 =
         0.04668   -0.00798    0.00045    0.03459
AFIX  43
H5    2    0.334685    0.308772    1.267059    11.00000   -1.20000
AFIX   0
C1    1    0.262029    0.301409    1.061938    11.00000    0.03052    0.04376 =
         0.05853   -0.00076    0.00171    0.02238
C2    1    0.221699    0.300712    1.125092    11.00000    0.04407    0.06555 =
         0.06846    0.00130    0.01119    0.03989
C6    1    0.179279    0.296360    1.057325    11.00000    0.03861    0.08520 =
         0.10529    0.00144    0.00678    0.04275
AFIX  43
H6    2    0.150738    0.293435    1.096555    11.00000   -1.20000
AFIX   0
C3    1    0.225413    0.303073    1.244641    11.00000    0.06875    0.10164 =
         0.08812   -0.00610    0.01928    0.05992
AFIX  43
H3    2    0.198950    0.302138    1.289100    11.00000   -1.20000
AFIX   0
PART 1
C19   1    0.549241    0.462052    0.691507    21.00000    0.09824    0.05593 =
         0.06431    0.01415    0.00228    0.02078
AFIX  43
H19   2    0.552512    0.459699    0.610942    21.00000   -1.20000
AFIX   0

PART 0
P1    5    0.702927    0.559496    0.500000    10.50000    0.31780    0.27132 =
         0.13361    0.00000    0.00000    0.24077
F3    3    0.708311    0.567079    0.354251    11.00000    0.34530    0.34234 =
         0.16911    0.01759    0.00278    0.24472
F4    3    0.758381    0.567609    0.500000    10.50000    0.31780    0.27035 =
         0.15593    0.00000    0.00000    0.22644
F1    3    0.673717    0.491007    0.500000    10.50000    0.39550    0.28045 =
         0.23686    0.00000    0.00000    0.24213
F2    3    0.639720    0.540121    0.462357    10.50000    0.33574    0.35004 =
         0.23907    0.02943    0.00374    0.24981
F5    3    0.717186    0.613649    0.500000    10.50000    0.39624    0.29335 =
         0.25965    0.00000    0.00000    0.25986

P2    5    0.589685    0.632075    0.500000    10.50000    0.07582    0.06999 =
         0.04123    0.00000    0.00000    0.01887
F6    3    0.615615    0.687642    0.500000    10.50000    0.20908    0.09846 =
         0.13386    0.00000    0.00000    0.02047
F7    3    0.550344    0.568890    0.500000    10.50000    0.16932    0.11120 =
         0.12894    0.00000    0.00000    0.02743
F8    3    0.642385    0.635606    0.500000    10.50000    0.15220    0.28648 =
         0.12433    0.00000    0.00000    0.10470
F9    3    0.590711    0.624143    0.369797    11.00000    0.10965    0.13780 =
         0.08445   -0.02777    0.01732   -0.01146
F10   3    0.535744    0.623671    0.500000    10.50000    0.11689    0.18792 =
         0.08159    0.00000    0.00000    0.05912
PART 2
C18A  1    0.559665    0.518332    0.761447   -21.00000    0.06348    0.02901 =
         0.06398    0.01624   -0.01157    0.02657
AFIX  43
H18A  2    0.575254    0.548837    0.718707   -21.00000   -1.20000
AFIX   0
C19A  1    0.526945    0.471316    0.712918   -21.00000    0.05352    0.03597 =
         0.04833    0.01893   -0.00150    0.02328
AFIX  43
H19A  2    0.521005    0.469843    0.632558   -21.00000   -1.20000
AFIX   0
C20A  1    0.501123    0.423957    0.778526   -21.00000    0.03131    0.02698 =
         0.03907    0.00705    0.00072    0.02466
AFIX  43
H20A  2    0.477256    0.393804    0.741056   -21.00000   -1.20000
AFIX   0
HKLF 4

REM  jxf111 P 6/m R = 0.13
REM R1 =  0.0779 for    4392 Fo > 4sig(Fo)  and  0.1039 for all    5921 data
REM    350 parameters refined using    141 restraints

END

WGHT      0.1347     66.6972

REM Highest difference peak  2.862,  deepest hole -2.185,  1-sigma level  0.172
Q1    1   0.6504  0.6804  0.5000  10.50000  0.05    2.86
Q2    1   0.5876  0.6745  0.4013  11.00000  0.05    2.56
Q3    1   0.5948  0.5789  1.0000  10.50000  0.05    1.56
Q4    1   0.6147  0.4484  0.5000  10.50000  0.05    1.29
Q5    1   0.6276  0.6076  0.5000  10.50000  0.05    1.13
Q6    1   0.5981  0.6029  0.4267  11.00000  0.05    1.09
Q7    1   0.6932  0.5622  0.2521  11.00000  0.05    0.93
Q8    1   0.2808  0.3540  1.0000  10.50000  0.05    0.89
Q9    1   0.2810  0.3093  1.0000  10.50000  0.05    0.89
Q10   1   0.4729  0.4041  0.5000  10.50000  0.05    0.81
Q11   1   0.6926  0.2389  0.0000  10.50000  0.05    0.81
Q12   1   0.5379  0.4375  0.5000  10.50000  0.05    0.75
Q13   1   0.5865  0.5740  0.5000  10.50000  0.05    0.74
Q14   1   0.6270  0.4683  0.4206  11.00000  0.05    0.66
Q15   1   0.7486  0.6207  0.5000  10.50000  0.05    0.66
Q16   1   0.5834  0.3134  0.6460  11.00000  0.05    0.65
Q17   1   0.3512  0.2913  0.9104  11.00000  0.05    0.62
Q18   1   0.5064  0.2802  0.5000  10.50000  0.05    0.62
Q19   1   0.5360  0.4928  1.0000  10.50000  0.05    0.57
Q20   1   0.6315  0.4847  0.5000  10.50000  0.05    0.57
;
_shelx_res_checksum              2333
_shelx_fab_checksum              26223
_shelx_fab_file
;
    0    3    0   -193.63      0.00
   -3    4    0    195.41      0.00
   -2    4    0    -66.71      0.00
   -1    4    0   -113.77      0.00
    0    4    0    -14.50      0.00
   -4    5    0    250.00      0.00
   -3    5    0     87.15      0.00
   -2    5    0     71.89      0.00
   -1    5    0    -73.80      0.00
    0    5    0    129.28      0.00
   -5    6    0     73.76      0.00
   -4    6    0    126.74      0.00
   -3    6    0     -0.14      0.00
   -2    6    0     34.57      0.00
   -1    6    0    -31.57      0.00
    0    6    0    201.51      0.00
   -6    7    0     29.47      0.00
   -5    7    0     71.61      0.00
   -4    7    0      5.21      0.00
   -3    7    0   -116.12      0.00
   -2    7    0      4.06      0.00
   -1    7    0     84.78      0.00
    0    7    0    109.30      0.00
   -7    8    0     -6.13      0.00
   -6    8    0     21.28      0.00
   -5    8    0    -21.15      0.00
   -4    8    0    -70.90      0.00
   -3    8    0      1.51      0.00
   -2    8    0     43.47      0.00
   -1    8    0     87.03      0.00
    0    8    0    -51.25      0.00
   -8    9    0     18.06      0.00
   -7    9    0      7.41      0.00
   -6    9    0    -42.36      0.00
   -5    9    0    -22.32      0.00
   -4    9    0    -38.02      0.00
   -3    9    0     74.29      0.00
   -2    9    0     -0.12      0.00
   -1    9    0     37.69      0.00
    0    9    0    -71.53      0.00
   -9   10    0     13.32      0.00
   -8   10    0      7.78      0.00
   -7   10    0     34.61      0.00
   -6   10    0      0.24      0.00
   -5   10    0    -17.93      0.00
   -4   10    0    -26.66      0.00
   -3   10    0     32.41      0.00
   -2   10    0    -15.27      0.00
   -1   10    0    -31.28      0.00
    0   10    0    -40.71      0.00
  -10   11    0      0.48      0.00
   -9   11    0    -11.61      0.00
   -8   11    0     29.69      0.00
   -7   11    0     10.02      0.00
   -6   11    0    -11.20      0.00
   -5   11    0     -9.66      0.00
   -4   11    0     21.31      0.00
   -3   11    0    -20.07      0.00
   -2   11    0    -30.17      0.00
   -1   11    0    -59.47      0.00
    0   11    0     38.61      0.00
  -11   12    0     -9.62      0.00
  -10   12    0     -2.83      0.00
   -9   12    0      0.80      0.00
   -8   12    0     -5.99      0.00
   -7   12    0     -6.67      0.00
   -6   12    0     13.84      0.00
   -5   12    0     10.83      0.00
   -4   12    0      6.35      0.00
   -3   12    0    -52.14      0.00
   -2   12    0     27.09      0.00
   -1   12    0      2.62      0.00
    0   12    0     51.17      0.00
  -12   13    0     -7.20      0.00
  -11   13    0     25.29      0.00
  -10   13    0    -16.74      0.00
   -9   13    0    -34.29      0.00
   -8   13    0     -2.03      0.00
   -7   13    0     28.77      0.00
   -6   13    0     45.35      0.00
   -5   13    0      5.60      0.00
   -4   13    0     -8.74      0.00
   -3   13    0    -11.30      0.00
   -2   13    0     18.48      0.00
   -1   13    0     35.87      0.00
    0   13    0     15.46      0.00
  -13   14    0    -22.99      0.00
  -12   14    0      0.62      0.00
  -11   14    0     -0.86      0.00
  -10   14    0      8.56      0.00
   -9   14    0      6.46      0.00
   -8   14    0     16.66      0.00
   -7   14    0     12.97      0.00
   -6   14    0      9.53      0.00
   -5   14    0      8.07      0.00
   -4   14    0    -14.79      0.00
   -3   14    0     18.77      0.00
   -2   14    0      6.76      0.00
   -1   14    0     11.63      0.00
    0   14    0    -52.73      0.00
  -14   15    0      3.11      0.00
  -13   15    0     -1.38      0.00
  -12   15    0      6.86      0.00
  -11   15    0      1.42      0.00
  -10   15    0     -5.44      0.00
   -9   15    0      4.34      0.00
   -8   15    0      7.98      0.00
   -7   15    0     10.24      0.00
   -6   15    0     -9.09      0.00
   -5   15    0    -30.09      0.00
   -4   15    0    -27.98      0.00
   -3   15    0     22.84      0.00
   -2   15    0    -13.15      0.00
   -1   15    0     20.64      0.00
    0   15    0    -24.36      0.00
  -15   16    0     -2.83      0.00
  -14   16    0     -5.19      0.00
  -13   16    0     16.81      0.00
  -12   16    0     23.39      0.00
  -11   16    0     -1.44      0.00
  -10   16    0    -18.75      0.00
   -9   16    0    -20.12      0.00
   -8   16    0    -14.55      0.00
   -7   16    0    -22.32      0.00
   -6   16    0    -13.30      0.00
   -5   16    0     14.40      0.00
   -4   16    0      2.54      0.00
   -3   16    0     -9.45      0.00
   -2   16    0     -4.53      0.00
   -1   16    0     -7.47      0.00
    0   16    0     24.68      0.00
  -16   17    0     10.88      0.00
  -15   17    0     -4.87      0.00
  -14   17    0     26.34      0.00
  -13   17    0      7.91      0.00
  -12   17    0    -14.44      0.00
  -11   17    0    -20.66      0.00
  -10   17    0      6.67      0.00
   -9   17    0      6.15      0.00
   -8   17    0    -28.46      0.00
   -7   17    0    -20.94      0.00
   -6   17    0     10.23      0.00
   -5   17    0      8.93      0.00
   -4   17    0     38.70      0.00
   -3   17    0     -0.07      0.00
   -2   17    0      3.00      0.00
   -1   17    0    -17.18      0.00
    0   17    0     19.25      0.00
  -17   18    0     -1.85      0.00
  -16   18    0     -2.00      0.00
  -15   18    0      6.67      0.00
  -14   18    0     10.61      0.00
  -13   18    0      1.99      0.00
  -12   18    0    -11.67      0.00
  -11   18    0      9.65      0.00
  -10   18    0      8.33      0.00
   -9   18    0     -1.20      0.00
   -8   18    0     10.39      0.00
   -7   18    0      9.09      0.00
   -6   18    0     19.12      0.00
   -5   18    0      6.71      0.00
   -4   18    0      0.57      0.00
   -3   18    0    -17.35      0.00
   -2   18    0     10.48      0.00
   -1   18    0      8.59      0.00
    0   18    0     18.41      0.00
  -18   19    0     -6.57      0.00
  -17   19    0      6.95      0.00
  -16   19    0    -11.78      0.00
  -15   19    0     17.19      0.00
  -14   19    0      4.05      0.00
  -13   19    0      3.06      0.00
  -12   19    0      7.05      0.00
  -11   19    0     22.26      0.00
  -10   19    0     18.73      0.00
   -9   19    0      7.24      0.00
   -8   19    0     -5.40      0.00
   -7   19    0     21.96      0.00
   -6   19    0     12.52      0.00
   -5   19    0     -6.55      0.00
   -4   19    0    -14.39      0.00
   -3   19    0    -18.24      0.00
   -2   19    0      2.29      0.00
   -1   19    0     25.63      0.00
    0   19    0     11.03      0.00
  -19   20    0     11.79      0.00
  -18   20    0      0.87      0.00
  -17   20    0      5.33      0.00
  -16   20    0      3.84      0.00
  -15   20    0     16.26      0.00
  -14   20    0      6.18      0.00
  -13   20    0      4.75      0.00
  -12   20    0     11.40      0.00
  -11   20    0     29.97      0.00
  -10   20    0     -7.23      0.00
   -9   20    0     -5.74      0.00
   -8   20    0      9.15      0.00
   -7   20    0      8.33      0.00
   -6   20    0     -6.73      0.00
   -5   20    0     -0.85      0.00
   -4   20    0    -10.25      0.00
   -3   20    0     18.23      0.00
   -2   20    0      3.58      0.00
   -1   20    0     20.27      0.00
    0   20    0    -11.83      0.00
  -20   21    0      8.78      0.00
  -19   21    0    -13.09      0.00
  -18   21    0     -4.51      0.00
  -17   21    0     11.45      0.00
  -16   21    0     23.75      0.00
  -15   21    0      9.83      0.00
  -14   21    0     -5.84      0.00
  -13   21    0      4.61      0.00
  -12   21    0     16.85      0.00
  -11   21    0     -8.85      0.00
  -10   21    0     -2.92      0.00
   -9   21    0      3.80      0.00
   -8   21    0      4.54      0.00
   -7   21    0      8.16      0.00
   -6   21    0     -8.05      0.00
   -5   21    0     15.63      0.00
   -4   21    0      3.06      0.00
   -3   21    0     16.36      0.00
   -2   21    0     -1.18      0.00
   -1   21    0     -4.58      0.00
    0   21    0      6.57      0.00
  -21   22    0      1.05      0.00
  -20   22    0      2.90      0.00
  -19   22    0      7.43      0.00
  -18   22    0     15.48      0.00
  -17   22    0     -2.31      0.00
  -16   22    0      0.52      0.00
  -15   22    0    -15.35      0.00
  -14   22    0     15.02      0.00
  -13   22    0      7.93      0.00
  -12   22    0      8.73      0.00
  -11   22    0    -11.07      0.00
  -10   22    0    -10.49      0.00
   -9   22    0     12.50      0.00
   -8   22    0     22.33      0.00
   -7   22    0      8.83      0.00
   -6   22    0     -0.73      0.00
   -5   22    0     -5.73      0.00
   -4   22    0      0.20      0.00
   -3   22    0     -1.93      0.00
   -2   22    0      3.08      0.00
   -1   22    0     -4.28      0.00
    0   22    0      0.63      0.00
  -22   23    0     -7.69      0.00
  -21   23    0    -11.71      0.00
  -20   23    0     -2.96      0.00
  -19   23    0      4.37      0.00
  -18   23    0     23.44      0.00
  -17   23    0      2.68      0.00
  -16   23    0     -5.92      0.00
  -15   23    0    -16.19      0.00
  -14   23    0     -5.19      0.00
  -13   23    0     19.03      0.00
  -12   23    0     20.71      0.00
  -11   23    0     -2.34      0.00
  -10   23    0     10.29      0.00
   -9   23    0      0.60      0.00
   -8   23    0     -0.72      0.00
   -7   23    0     -8.86      0.00
   -6   23    0      3.58      0.00
   -5   23    0     -3.00      0.00
   -4   23    0      1.36      0.00
   -3   23    0     -6.26      0.00
   -2   23    0      4.89      0.00
   -1   23    0    -10.70      0.00
    0   23    0     16.15      0.00
  -23   24    0     -1.12      0.00
  -22   24    0     12.54      0.00
  -21   24    0     -0.64      0.00
  -20   24    0     -5.72      0.00
  -19   24    0      3.49      0.00
  -18   24    0      3.40      0.00
  -17   24    0     10.39      0.00
  -16   24    0     -3.33      0.00
  -15   24    0      2.75      0.00
  -14   24    0     15.10      0.00
  -13   24    0      2.95      0.00
  -12   24    0      1.59      0.00
  -11   24    0      8.98      0.00
  -10   24    0     12.08      0.00
   -9   24    0     -3.49      0.00
   -8   24    0    -16.34      0.00
   -7   24    0    -14.07      0.00
   -6   24    0      7.97      0.00
   -5   24    0      4.54      0.00
   -4   24    0     20.07      0.00
   -3   24    0     -6.08      0.00
   -2   24    0      3.25      0.00
   -1   24    0      8.28      0.00
    0   24    0     -1.36      0.00
  -24   25    0     10.79      0.00
  -23   25    0      1.35      0.00
  -22   25    0    -10.27      0.00
  -21   25    0     -6.06      0.00
  -20   25    0      9.60      0.00
  -19   25    0     22.16      0.00
  -18   25    0      8.33      0.00
  -17   25    0     -0.01      0.00
  -16   25    0     -3.57      0.00
  -15   25    0     12.36      0.00
  -14   25    0      2.51      0.00
  -13   25    0     11.89      0.00
  -12   25    0     -3.44      0.00
  -11   25    0     -3.01      0.00
  -10   25    0     -6.22      0.00
   -9   25    0     -8.14      0.00
   -8   25    0     11.45      0.00
   -7   25    0     15.45      0.00
   -6   25    0     17.57      0.00
   -5   25    0     -1.37      0.00
   -4   25    0     -7.40      0.00
   -3   25    0     12.40      0.00
   -2   25    0      4.26      0.00
   -1   25    0      5.41      0.00
    0   25    0     -2.30      0.00
  -25   26    0      7.50      0.00
  -24   26    0      7.12      0.00
  -23   26    0      2.31      0.00
  -22   26    0      0.53      0.00
  -21   26    0     -6.03      0.00
  -20   26    0     -5.33      0.00
  -19   26    0     11.21      0.00
  -18   26    0     12.86      0.00
  -17   26    0     27.57      0.00
  -16   26    0     -2.56      0.00
  -15   26    0    -10.36      0.00
  -14   26    0    -11.09      0.00
  -13   26    0      2.15      0.00
  -12   26    0     10.83      0.00
  -11   26    0     14.72      0.00
  -10   26    0     -2.49      0.00
   -9   26    0     -7.65      0.00
   -8   26    0      3.40      0.00
   -7   26    0     27.00      0.00
   -6   26    0      8.99      0.00
   -5   26    0      5.03      0.00
   -4   26    0    -11.38      0.00
   -3   26    0     -5.85      0.00
   -2   26    0     -3.34      0.00
   -1   26    0     13.58      0.00
    0   26    0     -2.98      0.00
  -26   27    0      3.37      0.00
  -25   27    0     -4.16      0.00
  -24   27    0     -2.79      0.00
  -23   27    0      9.33      0.00
  -22   27    0     -3.83      0.00
  -21   27    0      4.01      0.00
  -20   27    0     -6.29      0.00
  -19   27    0     -2.65      0.00
  -18   27    0      9.00      0.00
  -17   27    0      7.30      0.00
  -16   27    0     14.37      0.00
  -15   27    0     -2.51      0.00
  -14   27    0    -10.03      0.00
  -13   27    0      1.23      0.00
  -12   27    0      9.78      0.00
  -11   27    0     19.82      0.00
  -10   27    0     -2.11      0.00
   -9   27    0      2.75      0.00
   -8   27    0     -5.25      0.00
   -7   27    0     -1.97      0.00
   -6   27    0     -2.79      0.00
   -5   27    0      4.15      0.00
   -4   27    0     -7.99      0.00
   -3   27    0      6.14      0.00
   -2   27    0     -2.46      0.00
   -1   27    0     -6.26      0.00
    0   27    0      4.35      0.00
  -27   28    0      0.30      0.00
  -26   28    0     -7.83      0.00
  -25   28    0      4.34      0.00
  -24   28    0     -2.24      0.00
  -23   28    0     -1.24      0.00
  -22   28    0     -1.75      0.00
  -21   28    0     -3.15      0.00
  -20   28    0      2.97      0.00
  -19   28    0     -5.20      0.00
  -18   28    0      7.36      0.00
  -17   28    0      6.71      0.00
  -16   28    0      5.94      0.00
  -15   28    0     -0.49      0.00
  -14   28    0      3.17      0.00
  -13   28    0      5.85      0.00
  -12   28    0      3.96      0.00
  -11   28    0     -6.51      0.00
  -10   28    0     -4.74      0.00
   -9   28    0     -2.50      0.00
   -8   28    0     -1.93      0.00
   -7   28    0     -0.33      0.00
   -6   28    0     -9.36      0.00
   -5   28    0      2.29      0.00
   -4   28    0      6.00      0.00
   -3   28    0     -4.96      0.00
   -2   28    0      3.80      0.00
   -1   28    0     -2.98      0.00
    0   28    0      8.44      0.00
  -28   29    0      1.34      0.00
  -27   29    0      6.65      0.00
  -26   29    0      1.17      0.00
  -25   29    0    -10.20      0.00
  -24   29    0      2.77      0.00
  -23   29    0      1.40      0.00
  -22   29    0      4.29      0.00
  -21   29    0     -7.97      0.00
  -20   29    0     -6.82      0.00
  -19   29    0      0.58      0.00
  -18   29    0     13.04      0.00
  -17   29    0      5.36      0.00
  -16   29    0      0.75      0.00
  -15   29    0     -4.60      0.00
  -14   29    0     -0.33      0.00
  -13   29    0     -7.00      0.00
  -12   29    0      2.55      0.00
  -11   29    0     -5.54      0.00
  -10   29    0     -0.61      0.00
   -9   29    0     -3.29      0.00
   -8   29    0     -3.32      0.00
   -7   29    0     -3.93      0.00
   -6   29    0     14.09      0.00
   -5   29    0      5.15      0.00
   -4   29    0      6.15      0.00
   -3   29    0     -0.01      0.00
   -2   29    0     -5.95      0.00
   -1   29    0     -5.76      0.00
    0   29    0      9.40      0.00
  -29   30    0      6.32      0.00
  -28   30    0      7.00      0.00
  -27   30    0      0.37      0.00
  -26   30    0     -4.41      0.00
  -25   30    0      2.15      0.00
  -24   30    0     10.00      0.00
  -23   30    0     -4.48      0.00
  -22   30    0      2.04      0.00
  -21   30    0     -4.93      0.00
  -20   30    0      4.88      0.00
  -19   30    0     -1.77      0.00
  -18   30    0     -2.00      0.00
  -17   30    0     -0.08      0.00
  -16   30    0     -0.41      0.00
  -15   30    0      0.77      0.00
  -14   30    0     -4.27      0.00
  -13   30    0     -6.27      0.00
  -12   30    0     -1.46      0.00
  -11   30    0      7.50      0.00
  -10   30    0     15.11      0.00
   -9   30    0     -4.33      0.00
   -8   30    0      2.04      0.00
   -7   30    0      0.17      0.00
   -6   30    0      4.92      0.00
   -5   30    0      8.94      0.00
   -4   30    0     12.97      0.00
   -3   30    0     -3.52      0.00
   -2   30    0     -6.11      0.00
   -1   30    0     -7.32      0.00
    0   30    0     -7.44      0.00
  -30   31    0     10.23      0.00
  -29   31    0     10.45      0.00
  -28   31    0     -1.32      0.00
  -27   31    0     -4.84      0.00
  -26   31    0     -0.04      0.00
  -25   31    0     -1.86      0.00
  -24   31    0      1.73      0.00
  -23   31    0      4.90      0.00
  -22   31    0      4.43      0.00
  -21   31    0      1.68      0.00
  -20   31    0     -0.78      0.00
  -19   31    0      3.02      0.00
  -18   31    0     -3.10      0.00
  -17   31    0     -3.27      0.00
  -16   31    0      0.95      0.00
  -15   31    0      5.23      0.00
  -14   31    0     -0.31      0.00
  -13   31    0      0.44      0.00
  -12   31    0      2.85      0.00
  -11   31    0     11.52      0.00
  -10   31    0      7.00      0.00
   -9   31    0     10.14      0.00
   -8   31    0     -1.03      0.00
   -7   31    0     -2.35      0.00
   -6   31    0     11.10      0.00
   -5   31    0     -1.38      0.00
   -4   31    0     -2.37      0.00
   -3   31    0      0.04      0.00
   -2   31    0     -4.76      0.00
   -1   31    0      1.88      0.00
    0   31    0     -1.01      0.00
  -31   32    0      5.19      0.00
  -30   32    0     13.23      0.00
  -29   32    0     -6.59      0.00
  -28   32    0      1.05      0.00
  -27   32    0     -2.50      0.00
  -26   32    0     -6.81      0.00
  -25   32    0      2.97      0.00
  -24   32    0     -2.96      0.00
  -23   32    0     12.56      0.00
  -22   32    0      1.89      0.00
  -21   32    0      7.68      0.00
  -20   32    0     -2.98      0.00
  -19   32    0     -0.23      0.00
  -18   32    0      0.75      0.00
  -17   32    0      2.97      0.00
  -16   32    0      7.08      0.00
  -15   32    0      1.54      0.00
  -14   32    0      0.63      0.00
  -13   32    0      3.35      0.00
  -12   32    0     -0.61      0.00
  -11   32    0     11.35      0.00
  -10   32    0      0.63      0.00
   -9   32    0      1.57      0.00
   -8   32    0      2.42      0.00
   -7   32    0     -0.23      0.00
   -6   32    0     -4.85      0.00
   -5   32    0      5.62      0.00
   -4   32    0      2.32      0.00
   -3   32    0     -2.92      0.00
   -2   32    0     -2.92      0.00
   -1   32    0      3.95      0.00
    0   32    0      2.04      0.00
  -31   33    0     -2.12      0.00
  -30   33    0      2.34      0.00
  -29   33    0     -3.52      0.00
  -28   33    0     -9.10      0.00
  -27   33    0     -4.29      0.00
  -26   33    0      1.52      0.00
  -25   33    0      6.19      0.00
  -24   33    0     -1.85      0.00
  -23   33    0      6.17      0.00
  -22   33    0      4.14      0.00
  -21   33    0      9.43      0.00
  -20   33    0     -3.61      0.00
  -19   33    0      0.17      0.00
  -18   33    0     -1.08      0.00
  -17   33    0      3.33      0.00
  -16   33    0      3.65      0.00
  -15   33    0     -2.95      0.00
  -14   33    0     -0.54      0.00
  -13   33    0      4.58      0.00
  -12   33    0      9.05      0.00
  -11   33    0     -7.86      0.00
  -10   33    0     -4.12      0.00
   -9   33    0      8.28      0.00
   -8   33    0     -2.69      0.00
   -7   33    0     -2.28      0.00
   -6   33    0     -0.65      0.00
   -5   33    0      5.53      0.00
   -4   33    0      5.98      0.00
   -3   33    0      8.68      0.00
   -2   33    0     -3.70      0.00
  -30   34    0     -4.01      0.00
  -29   34    0     -1.98      0.00
  -28   34    0     -2.31      0.00
  -27   34    0     -3.08      0.00
  -26   34    0     -3.52      0.00
  -25   34    0     -0.02      0.00
  -24   34    0      8.92      0.00
  -23   34    0      4.10      0.00
  -22   34    0     -3.07      0.00
  -21   34    0     -2.96      0.00
  -20   34    0      2.60      0.00
  -19   34    0      4.29      0.00
  -18   34    0     -0.21      0.00
  -17   34    0      3.00      0.00
  -16   34    0     -1.91      0.00
  -15   34    0     -3.45      0.00
  -14   34    0      5.63      0.00
  -13   34    0      0.61      0.00
  -12   34    0      0.56      0.00
  -11   34    0     -1.40      0.00
  -10   34    0      7.50      0.00
   -9   34    0      0.57      0.00
   -8   34    0      2.65      0.00
   -7   34    0      4.16      0.00
   -6   34    0     -5.15      0.00
   -5   34    0      5.01      0.00
   -4   34    0      6.98      0.00
  -29   35    0      2.59      0.00
  -28   35    0     -1.55      0.00
  -27   35    0     -4.85      0.00
  -26   35    0     -0.54      0.00
  -25   35    0      0.42      0.00
  -24   35    0      8.40      0.00
  -23   35    0     -3.61      0.00
  -22   35    0      0.05      0.00
  -21   35    0     -6.87      0.00
  -20   35    0      3.29      0.00
  -19   35    0      1.37      0.00
  -18   35    0      5.22      0.00
  -17   35    0      1.65      0.00
  -16   35    0     -1.96      0.00
  -15   35    0      7.45      0.00
  -14   35    0      6.31      0.00
  -13   35    0      3.13      0.00
  -12   35    0     -1.87      0.00
  -11   35    0     -2.01      0.00
  -10   35    0     10.92      0.00
   -9   35    0     10.98      0.00
   -8   35    0      0.58      0.00
   -7   35    0     -5.04      0.00
   -6   35    0     -1.47      0.00
  -27   36    0     -3.45      0.00
  -26   36    0      5.11      0.00
  -25   36    0      1.10      0.00
  -24   36    0      2.21      0.00
  -23   36    0     -1.53      0.00
  -22   36    0      1.62      0.00
  -21   36    0     -3.68      0.00
  -20   36    0      7.66      0.00
  -19   36    0      1.14      0.00
  -18   36    0      0.07      0.00
  -17   36    0     -1.70      0.00
  -16   36    0     -2.38      0.00
  -15   36    0      7.57      0.00
  -14   36    0     11.25      0.00
  -13   36    0      8.46      0.00
  -12   36    0     -3.73      0.00
  -11   36    0      4.81      0.00
  -10   36    0      3.82      0.00
   -9   36    0     -0.78      0.00
  -23   37    0     -4.47      0.00
  -22   37    0     -0.01      0.00
  -21   37    0      7.74      0.00
  -20   37    0     -0.29      0.00
  -19   37    0      1.23      0.00
  -18   37    0      1.27      0.00
  -17   37    0     -5.57      0.00
  -16   37    0     -2.03      0.00
  -15   37    0      6.16      0.00
  -14   37    0      4.33      0.00
   -1    2    1     52.54      0.00
    0    2    1     34.29      0.00
   -2    3    1    -43.67      0.00
   -1    3    1    186.84      0.00
    0    3    1    -28.35      0.00
   -3    4    1     12.31      0.00
   -2    4    1   -152.46      0.00
   -1    4    1   -103.38      0.00
    0    4    1     69.08      0.00
   -4    5    1    122.40      0.00
   -3    5    1   -134.19      0.00
   -2    5    1     21.52      0.00
   -1    5    1     28.61      0.00
    0    5    1     40.08      0.00
   -5    6    1     33.22      0.00
   -4    6    1     44.35      0.00
   -3    6    1     -4.14      0.00
   -2    6    1     32.93      0.00
   -1    6    1    -24.94      0.00
    0    6    1     65.62      0.00
   -6    7    1     -7.98      0.00
   -5    7    1     42.07      0.00
   -4    7    1     40.28      0.00
   -3    7    1    -11.55      0.00
   -2    7    1     16.92      0.00
   -1    7    1    -30.35      0.00
    0    7    1     -1.09      0.00
   -7    8    1    -19.12      0.00
   -6    8    1     45.16      0.00
   -5    8    1     -0.21      0.00
   -4    8    1    -62.63      0.00
   -3    8    1     47.08      0.00
   -2    8    1    -14.42      0.00
   -1    8    1     29.02      0.00
    0    8    1    -41.64      0.00
   -8    9    1      7.00      0.00
   -7    9    1      1.27      0.00
   -6    9    1    -85.25      0.00
   -5    9    1      3.35      0.00
   -4    9    1      0.53      0.00
   -3    9    1     73.69      0.00
   -2    9    1      0.04      0.00
   -1    9    1     -6.51      0.00
    0    9    1    -25.12      0.00
   -9   10    1     12.81      0.00
   -8   10    1    -11.58      0.00
   -7   10    1      3.97      0.00
   -6   10    1     -0.61      0.00
   -5   10    1     -9.47      0.00
   -4   10    1     18.36      0.00
   -3   10    1     11.13      0.00
   -2   10    1     14.24      0.00
   -1   10    1      8.59      0.00
    0   10    1    -18.64      0.00
  -10   11    1      5.29      0.00
   -9   11    1     -9.54      0.00
   -8   11    1      6.31      0.00
   -7   11    1     -2.37      0.00
   -6   11    1      1.73      0.00
   -5   11    1     10.46      0.00
   -4   11    1     22.86      0.00
   -3   11    1    -18.38      0.00
   -2   11    1      1.53      0.00
   -1   11    1    -14.99      0.00
    0   11    1     30.68      0.00
  -11   12    1    -29.31      0.00
  -10   12    1    -15.25      0.00
   -9   12    1     39.26      0.00
   -8   12    1      1.23      0.00
   -7   12    1    -10.19      0.00
   -6   12    1      0.67      0.00
   -5   12    1    -22.99      0.00
   -4   12    1     10.55      0.00
   -3   12    1    -29.54      0.00
   -2   12    1     34.47      0.00
   -1   12    1      3.24      0.00
    0   12    1      5.17      0.00
  -12   13    1    -24.71      0.00
  -11   13    1      7.80      0.00
  -10   13    1      2.09      0.00
   -9   13    1    -27.87      0.00
   -8   13    1     -3.56      0.00
   -7   13    1     -5.58      0.00
   -6   13    1     22.73      0.00
   -5   13    1     -7.80      0.00
   -4   13    1    -26.34      0.00
   -3   13    1      2.59      0.00
   -2   13    1     -4.53      0.00
   -1   13    1     23.61      0.00
    0   13    1      5.68      0.00
  -13   14    1     -8.33      0.00
  -12   14    1     -2.76      0.00
  -11   14    1    -13.27      0.00
  -10   14    1     19.01      0.00
   -9   14    1     -4.83      0.00
   -8   14    1     -9.05      0.00
   -7   14    1     -3.54      0.00
   -6   14    1    -13.83      0.00
   -5   14    1     14.34      0.00
   -4   14    1    -18.27      0.00
   -3   14    1     19.41      0.00
   -2   14    1      1.26      0.00
   -1   14    1      3.07      0.00
    0   14    1    -24.98      0.00
  -14   15    1     11.60      0.00
  -13   15    1     -3.82      0.00
  -12   15    1     -4.62      0.00
  -11   15    1      8.77      0.00
  -10   15    1      0.13      0.00
   -9   15    1     -6.29      0.00
   -8   15    1      6.90      0.00
   -7   15    1     15.74      0.00
   -6   15    1     -9.82      0.00
   -5   15    1    -24.89      0.00
   -4   15    1    -15.84      0.00
   -3   15    1     27.54      0.00
   -2   15    1     -1.14      0.00
   -1   15    1     10.83      0.00
    0   15    1    -18.87      0.00
  -15   16    1     -4.50      0.00
  -14   16    1    -14.84      0.00
  -13   16    1    -14.16      0.00
  -12   16    1     20.81      0.00
  -11   16    1     17.91      0.00
  -10   16    1     -0.22      0.00
   -9   16    1    -10.22      0.00
   -8   16    1     -2.00      0.00
   -7   16    1     -5.95      0.00
   -6   16    1    -15.11      0.00
   -5   16    1      9.10      0.00
   -4   16    1     15.42      0.00
   -3   16    1    -14.74      0.00
   -2   16    1     -7.91      0.00
   -1   16    1     -9.08      0.00
    0   16    1     17.19      0.00
  -16   17    1     14.07      0.00
  -15   17    1     -8.81      0.00
  -14   17    1      2.63      0.00
  -13   17    1    -11.85      0.00
  -12   17    1     -1.53      0.00
  -11   17    1      2.76      0.00
  -10   17    1     -5.64      0.00
   -9   17    1     10.70      0.00
   -8   17    1     -6.58      0.00
   -7   17    1    -16.71      0.00
   -6   17    1      0.90      0.00
   -5   17    1     -6.21      0.00
   -4   17    1     27.67      0.00
   -3   17    1    -11.00      0.00
   -2   17    1      6.20      0.00
   -1   17    1     -3.59      0.00
    0   17    1     13.28      0.00
  -17   18    1    -11.75      0.00
  -16   18    1      2.59      0.00
  -15   18    1     11.76      0.00
  -14   18    1     -6.12      0.00
  -13   18    1      5.70      0.00
  -12   18    1     -8.05      0.00
  -11   18    1     -6.81      0.00
  -10   18    1    -14.24      0.00
   -9   18    1      0.93      0.00
   -8   18    1     16.47      0.00
   -7   18    1     -5.16      0.00
   -6   18    1      8.58      0.00
   -5   18    1      1.29      0.00
   -4   18    1     -4.69      0.00
   -3   18    1     -9.12      0.00
   -2   18    1     21.66      0.00
   -1   18    1      7.32      0.00
    0   18    1      0.97      0.00
  -18   19    1    -18.26      0.00
  -17   19    1     10.25      0.00
  -16   19    1     -0.99      0.00
  -15   19    1     10.95      0.00
  -14   19    1     -5.01      0.00
  -13   19    1      6.52      0.00
  -12   19    1     -2.14      0.00
  -11   19    1     -5.27      0.00
  -10   19    1      3.70      0.00
   -9   19    1      2.53      0.00
   -8   19    1    -13.05      0.00
   -7   19    1      7.83      0.00
   -6   19    1     23.15      0.00
   -5   19    1      7.66      0.00
   -4   19    1    -17.06      0.00
   -3   19    1     -5.71      0.00
   -2   19    1     -6.55      0.00
   -1   19    1     10.46      0.00
    0   19    1     -4.51      0.00
  -19   20    1      3.66      0.00
  -18   20    1     -2.80      0.00
  -17   20    1      1.58      0.00
  -16   20    1      3.97      0.00
  -15   20    1      8.55      0.00
  -14   20    1      5.35      0.00
  -13   20    1     -0.18      0.00
  -12   20    1     -4.82      0.00
  -11   20    1      4.45      0.00
  -10   20    1      3.87      0.00
   -9   20    1     -1.87      0.00
   -8   20    1     -4.24      0.00
   -7   20    1     13.88      0.00
   -6   20    1     -0.77      0.00
   -5   20    1      1.48      0.00
   -4   20    1    -19.58      0.00
   -3   20    1      9.22      0.00
   -2   20    1     -2.68      0.00
   -1   20    1      3.72      0.00
    0   20    1     -8.78      0.00
  -20   21    1     10.03      0.00
  -19   21    1     -6.80      0.00
  -18   21    1      1.54      0.00
  -17   21    1      8.48      0.00
  -16   21    1      5.30      0.00
  -15   21    1     -5.15      0.00
  -14   21    1     -2.70      0.00
  -13   21    1     -2.55      0.00
  -12   21    1      6.61      0.00
  -11   21    1     -4.04      0.00
  -10   21    1      5.45      0.00
   -9   21    1      6.96      0.00
   -8   21    1     -2.14      0.00
   -7   21    1      9.33      0.00
   -6   21    1    -15.19      0.00
   -5   21    1     -9.26      0.00
   -4   21    1      3.98      0.00
   -3   21    1     10.56      0.00
   -2   21    1      3.82      0.00
   -1   21    1      3.82      0.00
    0   21    1      3.81      0.00
  -21   22    1      5.92      0.00
  -20   22    1      3.65      0.00
  -19   22    1      7.33      0.00
  -18   22    1      6.56      0.00
  -17   22    1     -9.49      0.00
  -16   22    1     -4.82      0.00
  -15   22    1    -10.42      0.00
  -14   22    1     12.49      0.00
  -13   22    1     -2.58      0.00
  -12   22    1      0.37      0.00
  -11   22    1      0.94      0.00
  -10   22    1     -0.12      0.00
   -9   22    1      0.09      0.00
   -8   22    1     10.47      0.00
   -7   22    1     -2.43      0.00
   -6   22    1     -6.05      0.00
   -5   22    1      1.71      0.00
   -4   22    1     12.35      0.00
   -3   22    1      4.57      0.00
   -2   22    1      5.89      0.00
   -1   22    1      1.84      0.00
    0   22    1      1.29      0.00
  -22   23    1     -9.01      0.00
  -21   23    1    -10.71      0.00
  -20   23    1      0.17      0.00
  -19   23    1     -0.66      0.00
  -18   23    1     11.39      0.00
  -17   23    1     -2.27      0.00
  -16   23    1     -0.34      0.00
  -15   23    1     -8.86      0.00
  -14   23    1     -0.69      0.00
  -13   23    1      7.46      0.00
  -12   23    1      7.87      0.00
  -11   23    1     -2.15      0.00
  -10   23    1     -5.23      0.00
   -9   23    1     -7.02      0.00
   -8   23    1      2.39      0.00
   -7   23    1      1.19      0.00
   -6   23    1     12.99      0.00
   -5   23    1      6.66      0.00
   -4   23    1      7.87      0.00
   -3   23    1    -10.79      0.00
   -2   23    1     -0.17      0.00
   -1   23    1     -7.40      0.00
    0   23    1     17.45      0.00
  -23   24    1     -2.76      0.00
  -22   24    1     11.12      0.00
  -21   24    1      1.30      0.00
  -20   24    1     -7.02      0.00
  -19   24    1     -2.97      0.00
  -18   24    1     -2.21      0.00
  -17   24    1     10.72      0.00
  -16   24    1      6.10      0.00
  -15   24    1      6.37      0.00
  -14   24    1     -4.48      0.00
  -13   24    1     -8.77      0.00
  -12   24    1     -7.59      0.00
  -11   24    1     11.07      0.00
  -10   24    1      7.79      0.00
   -9   24    1     -3.43      0.00
   -8   24    1     -3.15      0.00
   -7   24    1    -15.66      0.00
   -6   24    1      6.12      0.00
   -5   24    1      4.38      0.00
   -4   24    1      4.05      0.00
   -3   24    1     -9.85      0.00
   -2   24    1     -5.41      0.00
   -1   24    1      6.48      0.00
    0   24    1      1.60      0.00
  -24   25    1      4.14      0.00
  -23   25    1     -2.92      0.00
  -22   25    1     -8.58      0.00
  -21   25    1      3.27      0.00
  -20   25    1     11.27      0.00
  -19   25    1     15.31      0.00
  -18   25    1     -2.62      0.00
  -17   25    1     -5.19      0.00
  -16   25    1     -7.96      0.00
  -15   25    1     12.91      0.00
  -14   25    1     -1.53      0.00
  -13   25    1      1.25      0.00
  -12   25    1     -0.60      0.00
  -11   25    1     -6.50      0.00
  -10   25    1      3.83      0.00
   -9   25    1      2.05      0.00
   -8   25    1     -1.63      0.00
   -7   25    1     -8.50      0.00
   -6   25    1    -12.33      0.00
   -5   25    1     -4.22      0.00
   -4   25    1     -4.44      0.00
   -3   25    1     14.83      0.00
   -2   25    1      2.98      0.00
   -1   25    1     -5.50      0.00
    0   25    1     -2.84      0.00
  -25   26    1     10.18      0.00
  -24   26    1      7.79      0.00
  -23   26    1      1.16      0.00
  -22   26    1      4.76      0.00
  -21   26    1     -4.33      0.00
  -20   26    1     -4.96      0.00
  -19   26    1      3.13      0.00
  -18   26    1      7.47      0.00
  -17   26    1     11.45      0.00
  -16   26    1     -7.06      0.00
  -15   26    1     -7.13      0.00
  -14   26    1     -3.67      0.00
  -13   26    1      6.56      0.00
  -12   26    1     11.60      0.00
  -11   26    1      3.98      0.00
  -10   26    1     -9.80      0.00
   -9   26    1     -7.67      0.00
   -8   26    1     -9.63      0.00
   -7   26    1      3.51      0.00
   -6   26    1     -3.16      0.00
   -5   26    1      4.84      0.00
   -4   26    1      1.37      0.00
   -3   26    1     -1.29      0.00
   -2   26    1     -4.48      0.00
   -1   26    1      8.78      0.00
    0   26    1     -4.38      0.00
  -26   27    1      7.54      0.00
  -25   27    1     -1.58      0.00
  -24   27    1     -2.30      0.00
  -23   27    1      8.19      0.00
  -22   27    1      0.83      0.00
  -21   27    1      2.12      0.00
  -20   27    1     -6.74      0.00
  -19   27    1     -6.81      0.00
  -18   27    1      0.66      0.00
  -17   27    1      1.94      0.00
  -16   27    1      9.35      0.00
  -15   27    1      3.65      0.00
  -14   27    1     -3.68      0.00
  -13   27    1     -1.09      0.00
  -12   27    1     -1.80      0.00
  -11   27    1      0.96      0.00
  -10   27    1      2.68      0.00
   -9   27    1      6.86      0.00
   -8   27    1     -6.98      0.00
   -7   27    1     -5.61      0.00
   -6   27    1     -5.07      0.00
   -5   27    1      4.56      0.00
   -4   27    1      2.06      0.00
   -3   27    1      5.60      0.00
   -2   27    1     -1.84      0.00
   -1   27    1     -5.08      0.00
    0   27    1      5.90      0.00
  -27   28    1      2.13      0.00
  -26   28    1     -0.05      0.00
  -25   28    1     11.21      0.00
  -24   28    1     -2.29      0.00
  -23   28    1     -4.07      0.00
  -22   28    1     -7.41      0.00
  -21   28    1     -2.69      0.00
  -20   28    1      4.55      0.00
  -19   28    1      4.25      0.00
  -18   28    1      3.16      0.00
  -17   28    1     -3.34      0.00
  -16   28    1      2.19      0.00
  -15   28    1     -6.09      0.00
  -14   28    1      9.40      0.00
  -13   28    1      4.06      0.00
  -12   28    1     -4.14      0.00
  -11   28    1     -4.86      0.00
  -10   28    1     -2.60      0.00
   -9   28    1      7.96      0.00
   -8   28    1      5.97      0.00
   -7   28    1     -1.79      0.00
   -6   28    1    -10.62      0.00
   -5   28    1     -6.99      0.00
   -4   28    1     11.33      0.00
   -3   28    1     -0.96      0.00
   -2   28    1      3.68      0.00
   -1   28    1      0.81      0.00
    0   28    1      0.03      0.00
  -28   29    1     -3.66      0.00
  -27   29    1      2.04      0.00
  -26   29    1      4.49      0.00
  -25   29    1     -5.62      0.00
  -24   29    1      2.30      0.00
  -23   29    1      1.27      0.00
  -22   29    1      4.84      0.00
  -21   29    1     -4.84      0.00
  -20   29    1     -1.09      0.00
  -19   29    1      2.95      0.00
  -18   29    1     11.22      0.00
  -17   29    1      1.29      0.00
  -16   29    1      0.91      0.00
  -15   29    1     -5.66      0.00
  -14   29    1     -0.95      0.00
  -13   29    1      4.49      0.00
  -12   29    1      4.74      0.00
  -11   29    1     -0.75      0.00
  -10   29    1     -1.40      0.00
   -9   29    1     -6.08      0.00
   -8   29    1      2.74      0.00
   -7   29    1     -3.93      0.00
   -6   29    1     12.49      0.00
   -5   29    1      3.59      0.00
   -4   29    1     -4.45      0.00
   -3   29    1     -0.89      0.00
   -2   29    1     -4.26      0.00
   -1   29    1     -1.72      0.00
    0   29    1     10.04      0.00
  -29   30    1     -1.55      0.00
  -28   30    1      1.21      0.00
  -27   30    1      0.57      0.00
  -26   30    1      2.82      0.00
  -25   30    1      4.23      0.00
  -24   30    1      6.16      0.00
  -23   30    1     -4.16      0.00
  -22   30    1      6.35      0.00
  -21   30    1      4.34      0.00
  -20   30    1      9.56      0.00
  -19   30    1     -2.16      0.00
  -18   30    1     -5.87      0.00
  -17   30    1      3.24      0.00
  -16   30    1      1.79      0.00
  -15   30    1      5.69      0.00
  -14   30    1      1.18      0.00
  -13   30    1     -2.68      0.00
  -12   30    1      0.98      0.00
  -11   30    1      4.15      0.00
  -10   30    1      5.77      0.00
   -9   30    1     -4.54      0.00
   -8   30    1      2.10      0.00
   -7   30    1      4.12      0.00
   -6   30    1      0.94      0.00
   -5   30    1      4.70      0.00
   -4   30    1      3.53      0.00
   -3   30    1     -3.31      0.00
   -2   30    1     -2.71      0.00
   -1   30    1     -3.92      0.00
    0   30    1     -2.34      0.00
  -30   31    1      5.96      0.00
  -29   31    1      1.88      0.00
  -28   31    1     -4.68      0.00
  -27   31    1     -2.26      0.00
  -26   31    1      3.01      0.00
  -25   31    1      4.49      0.00
  -24   31    1      4.78      0.00
  -23   31    1      5.26      0.00
  -22   31    1      1.35      0.00
  -21   31    1      1.60      0.00
  -20   31    1     -0.28      0.00
  -19   31    1      2.14      0.00
  -18   31    1      3.13      0.00
  -17   31    1     -0.61      0.00
  -16   31    1     -0.12      0.00
  -15   31    1      4.38      0.00
  -14   31    1     -1.06      0.00
  -13   31    1      7.31      0.00
  -12   31    1      3.13      0.00
  -11   31    1      5.65      0.00
  -10   31    1      1.46      0.00
   -9   31    1      4.83      0.00
   -8   31    1     -3.24      0.00
   -7   31    1     -1.04      0.00
   -6   31    1     10.19      0.00
   -5   31    1      1.82      0.00
   -4   31    1     -5.43      0.00
   -3   31    1     -1.03      0.00
   -2   31    1     -3.26      0.00
   -1   31    1      2.53      0.00
    0   31    1     -2.01      0.00
  -31   32    1     -5.95      0.00
  -30   32    1      0.24      0.00
  -29   32    1     -8.90      0.00
  -28   32    1      4.64      0.00
  -27   32    1      4.94      0.00
  -26   32    1     -0.34      0.00
  -25   32    1      2.22      0.00
  -24   32    1     -4.65      0.00
  -23   32    1      5.49      0.00
  -22   32    1     -3.39      0.00
  -21   32    1      4.51      0.00
  -20   32    1      1.22      0.00
  -19   32    1     -0.35      0.00
  -18   32    1      0.02      0.00
  -17   32    1      5.46      0.00
  -16   32    1      2.33      0.00
  -15   32    1      4.84      0.00
  -14   32    1      6.29      0.00
  -13   32    1      4.38      0.00
  -12   32    1      1.43      0.00
  -11   32    1      4.87      0.00
  -10   32    1      1.38      0.00
   -9   32    1     -3.80      0.00
   -8   32    1     -2.79      0.00
   -7   32    1      7.03      0.00
   -6   32    1     -0.02      0.00
   -5   32    1      6.32      0.00
   -4   32    1      4.67      0.00
   -3   32    1    -11.34      0.00
   -2   32    1     -7.14      0.00
   -1   32    1     -0.33      0.00
    0   32    1     -0.38      0.00
  -31   33    1     -4.86      0.00
  -30   33    1     -3.82      0.00
  -29   33    1     -4.11      0.00
  -28   33    1     -7.64      0.00
  -27   33    1     -2.87      0.00
  -26   33    1      5.17      0.00
  -25   33    1      6.50      0.00
  -24   33    1     -3.90      0.00
  -23   33    1     -2.56      0.00
  -22   33    1     -0.80      0.00
  -21   33    1     10.30      0.00
  -20   33    1     -1.48      0.00
  -19   33    1      4.49      0.00
  -18   33    1     -1.43      0.00
  -17   33    1      1.16      0.00
  -16   33    1      5.29      0.00
  -15   33    1      0.72      0.00
  -14   33    1      7.43      0.00
  -13   33    1      0.03      0.00
  -12   33    1      5.81      0.00
  -11   33    1     -1.33      0.00
  -10   33    1     -2.87      0.00
   -9   33    1      3.07      0.00
   -8   33    1     -3.84      0.00
   -7   33    1     -1.60      0.00
   -6   33    1      4.47      0.00
   -5   33    1      4.98      0.00
   -4   33    1      2.24      0.00
   -3   33    1      1.19      0.00
   -2   33    1     -7.69      0.00
  -30   34    1     -6.74      0.00
  -29   34    1     -2.12      0.00
  -28   34    1     -0.61      0.00
  -27   34    1     -1.60      0.00
  -26   34    1     -0.36      0.00
  -25   34    1      0.04      0.00
  -24   34    1      4.28      0.00
  -23   34    1      0.33      0.00
  -22   34    1      0.24      0.00
  -21   34    1      1.26      0.00
  -20   34    1      3.79      0.00
  -19   34    1      3.82      0.00
  -18   34    1      0.47      0.00
  -17   34    1     -0.83      0.00
  -16   34    1     -2.61      0.00
  -15   34    1     -3.34      0.00
  -14   34    1      2.56      0.00
  -13   34    1     -1.86      0.00
  -12   34    1      5.16      0.00
  -11   34    1      4.17      0.00
  -10   34    1      2.27      0.00
   -9   34    1     -8.34      0.00
   -8   34    1     -1.68      0.00
   -7   34    1      2.76      0.00
   -6   34    1     -0.31      0.00
   -5   34    1      6.19      0.00
   -4   34    1      2.31      0.00
  -28   35    1      1.18      0.00
  -27   35    1      3.83      0.00
  -26   35    1      2.07      0.00
  -25   35    1     -1.15      0.00
  -24   35    1      3.59      0.00
  -23   35    1     -5.58      0.00
  -22   35    1      4.05      0.00
  -21   35    1     -3.38      0.00
  -20   35    1      2.23      0.00
  -19   35    1      0.72      0.00
  -18   35    1      0.30      0.00
  -17   35    1     -6.39      0.00
  -16   35    1     -2.07      0.00
  -15   35    1      5.71      0.00
  -14   35    1     -1.56      0.00
  -13   35    1     -3.34      0.00
  -12   35    1      1.80      0.00
  -11   35    1      1.26      0.00
  -10   35    1     -0.19      0.00
   -9   35    1      0.88      0.00
   -8   35    1     -2.52      0.00
   -7   35    1     -4.88      0.00
  -26   36    1      0.80      0.00
  -25   36    1     -1.95      0.00
  -24   36    1      0.43      0.00
  -23   36    1      2.08      0.00
  -22   36    1      2.40      0.00
  -21   36    1     -5.29      0.00
  -20   36    1      5.44      0.00
  -19   36    1      0.15      0.00
  -18   36    1     -1.93      0.00
  -17   36    1     -4.52      0.00
  -16   36    1      0.60      0.00
  -15   36    1      5.08      0.00
  -14   36    1     -0.71      0.00
  -13   36    1      5.11      0.00
  -12   36    1     -5.76      0.00
  -11   36    1     -1.36      0.00
  -10   36    1      1.69      0.00
  -23   37    1     -1.75      0.00
  -22   37    1     -3.26      0.00
  -21   37    1      5.29      0.00
  -20   37    1      5.71      0.00
  -19   37    1      4.33      0.00
  -18   37    1      1.03      0.00
  -17   37    1     -0.07      0.00
  -16   37    1     -1.50      0.00
  -15   37    1     -0.13      0.00
  -14   37    1     -2.91      0.00
    0    0    2    182.24      0.00
    0    1    2    -88.01      0.00
   -1    2    2     -3.51      0.00
    0    2    2    -60.15      0.00
   -2    3    2     12.64      0.00
   -1    3    2     74.49      0.00
    0    3    2    -45.28      0.00
   -3    4    2     78.69      0.00
   -2    4    2     48.18      0.00
   -1    4    2     44.79      0.00
    0    4    2    -36.87      0.00
   -4    5    2    -53.13      0.00
   -3    5    2    -13.97      0.00
   -2    5    2     70.55      0.00
   -1    5    2    -43.76      0.00
    0    5    2     -9.84      0.00
   -5    6    2   -108.25      0.00
   -4    6    2    -52.95      0.00
   -3    6    2     -3.85      0.00
   -2    6    2     34.27      0.00
   -1    6    2    -40.22      0.00
    0    6    2      0.17      0.00
   -6    7    2    -44.44      0.00
   -5    7    2    -17.87      0.00
   -4    7    2    -21.40      0.00
   -3    7    2     -2.17      0.00
   -2    7    2     15.45      0.00
   -1    7    2      8.56      0.00
    0    7    2      7.63      0.00
   -7    8    2     -1.77      0.00
   -6    8    2     24.94      0.00
   -5    8    2     16.83      0.00
   -4    8    2     40.68      0.00
   -3    8    2     13.70      0.00
   -2    8    2    -35.40      0.00
   -1    8    2      4.62      0.00
    0    8    2    -38.52      0.00
   -8    9    2     39.84      0.00
   -7    9    2    -16.24      0.00
   -6    9    2      6.75      0.00
   -5    9    2     36.21      0.00
   -4    9    2     15.95      0.00
   -3    9    2      3.79      0.00
   -2    9    2    -60.54      0.00
   -1    9    2      6.04      0.00
    0    9    2     -8.84      0.00
   -9   10    2     24.59      0.00
   -8   10    2    -15.12      0.00
   -7   10    2     -2.37      0.00
   -6   10    2      0.23      0.00
   -5   10    2     -2.96      0.00
   -4   10    2    -12.55      0.00
   -3   10    2    -15.66      0.00
   -2   10    2      2.54      0.00
   -1   10    2     23.31      0.00
    0   10    2     15.04      0.00
  -10   11    2     -8.22      0.00
   -9   11    2    -12.91      0.00
   -8   11    2    -11.30      0.00
   -7   11    2    -24.37      0.00
   -6   11    2     -9.87      0.00
   -5   11    2     -0.77      0.00
   -4   11    2     11.13      0.00
   -3   11    2      0.40      0.00
   -2   11    2     28.30      0.00
   -1   11    2    -17.64      0.00
    0   11    2     22.64      0.00
  -11   12    2    -23.90      0.00
  -10   12    2      1.26      0.00
   -9   12    2      4.87      0.00
   -8   12    2    -18.03      0.00
   -7   12    2      0.15      0.00
   -6   12    2     -7.01      0.00
   -5   12    2      0.22      0.00
   -4   12    2      9.67      0.00
   -3   12    2    -11.28      0.00
   -2   12    2     26.10      0.00
   -1   12    2    -24.27      0.00
    0   12    2     -9.08      0.00
  -12   13    2    -20.01      0.00
  -11   13    2     16.26      0.00
  -10   13    2     -5.34      0.00
   -9   13    2      4.56      0.00
   -8   13    2      7.01      0.00
   -7   13    2      2.95      0.00
   -6   13    2    -11.75      0.00
   -5   13    2    -20.22      0.00
   -4   13    2    -13.50      0.00
   -3   13    2      7.65      0.00
   -2   13    2     -5.71      0.00
   -1   13    2    -11.91      0.00
    0   13    2    -19.68      0.00
  -13   14    2     -3.21      0.00
  -12   14    2      0.36      0.00
  -11   14    2    -11.01      0.00
  -10   14    2     18.48      0.00
   -9   14    2     10.96      0.00
   -8   14    2      2.76      0.00
   -7   14    2    -18.06      0.00
   -6   14    2    -32.73      0.00
   -5   14    2     -9.85      0.00
   -4   14    2     -4.49      0.00
   -3   14    2     14.65      0.00
   -2   14    2    -16.87      0.00
   -1   14    2      9.50      0.00
    0   14    2    -17.83      0.00
  -14   15    2     21.73      0.00
  -13   15    2      0.68      0.00
  -12   15    2      2.71      0.00
  -11   15    2    -12.54      0.00
  -10   15    2    -10.64      0.00
   -9   15    2     -1.92      0.00
   -8   15    2      5.05      0.00
   -7   15    2     -6.63      0.00
   -6   15    2      1.39      0.00
   -5   15    2     -2.05      0.00
   -4   15    2    -13.33      0.00
   -3   15    2      6.55      0.00
   -2   15    2    -10.30      0.00
   -1   15    2     30.86      0.00
    0   15    2     -1.79      0.00
  -15   16    2     -1.33      0.00
  -14   16    2    -10.63      0.00
  -13   16    2      8.23      0.00
  -12   16    2      0.71      0.00
  -11   16    2    -12.59      0.00
  -10   16    2     -2.08      0.00
   -9   16    2     -6.91      0.00
   -8   16    2      2.01      0.00
   -7   16    2      5.56      0.00
   -6   16    2     15.69      0.00
   -5   16    2     16.56      0.00
   -4   16    2     -6.16      0.00
   -3   16    2    -20.51      0.00
   -2   16    2      2.37      0.00
   -1   16    2     -2.80      0.00
    0   16    2     18.68      0.00
  -16   17    2    -13.67      0.00
  -15   17    2     -9.75      0.00
  -14   17    2     13.91      0.00
  -13   17    2      3.84      0.00
  -12   17    2    -10.88      0.00
  -11   17    2     -4.90      0.00
  -10   17    2      5.40      0.00
   -9   17    2     11.74      0.00
   -8   17    2     -4.82      0.00
   -7   17    2      2.32      0.00
   -6   17    2     13.86      0.00
   -5   17    2    -11.08      0.00
   -4   17    2      2.56      0.00
   -3   17    2    -15.76      0.00
   -2   17    2      8.37      0.00
   -1   17    2    -14.82      0.00
    0   17    2      3.84      0.00
  -17   18    2     -7.53      0.00
  -16   18    2     -7.59      0.00
  -15   18    2     -6.85      0.00
  -14   18    2     -5.48      0.00
  -13   18    2      8.37      0.00
  -12   18    2     -1.67      0.00
  -11   18    2     10.47      0.00
  -10   18    2     -2.87      0.00
   -9   18    2    -13.66      0.00
   -8   18    2     -0.91      0.00
   -7   18    2      9.23      0.00
   -6   18    2      4.94      0.00
   -5   18    2    -11.19      0.00
   -4   18    2    -11.27      0.00
   -3   18    2     -8.62      0.00
   -2   18    2      4.50      0.00
   -1   18    2     -6.69      0.00
    0   18    2     10.07      0.00
  -18   19    2      4.77      0.00
  -17   19    2     13.44      0.00
  -16   19    2     -8.40      0.00
  -15   19    2      0.25      0.00
  -14   19    2     -6.25      0.00
  -13   19    2    -10.56      0.00
  -12   19    2     -0.27      0.00
  -11   19    2      8.51      0.00
  -10   19    2     -5.63      0.00
   -9   19    2     -6.23      0.00
   -8   19    2     -8.89      0.00
   -7   19    2      7.72      0.00
   -6   19    2     -1.65      0.00
   -5   19    2     -2.81      0.00
   -4   19    2      3.64      0.00
   -3   19    2     -5.46      0.00
   -2   19    2    -12.25      0.00
   -1   19    2      6.97      0.00
    0   19    2     -1.06      0.00
  -19   20    2      9.50      0.00
  -18   20    2      5.53      0.00
  -17   20    2      1.42      0.00
  -16   20    2      0.79      0.00
  -15   20    2     -4.70      0.00
  -14   20    2     -7.50      0.00
  -13   20    2     -3.88      0.00
  -12   20    2      1.08      0.00
  -11   20    2      7.34      0.00
  -10   20    2     -6.97      0.00
   -9   20    2     -5.69      0.00
   -8   20    2      6.08      0.00
   -7   20    2     -5.25      0.00
   -6   20    2     -6.44      0.00
   -5   20    2      8.81      0.00
   -4   20    2     -2.45      0.00
   -3   20    2      8.00      0.00
   -2   20    2    -18.52      0.00
   -1   20    2      2.45      0.00
    0   20    2    -13.82      0.00
  -20   21    2      3.29      0.00
  -19   21    2    -18.40      0.00
  -18   21    2    -11.36      0.00
  -17   21    2      4.34      0.00
  -16   21    2     10.64      0.00
  -15   21    2      3.23      0.00
  -14   21    2     -4.14      0.00
  -13   21    2     -9.70      0.00
  -12   21    2      7.21      0.00
  -11   21    2     -3.71      0.00
  -10   21    2      9.72      0.00
   -9   21    2      2.18      0.00
   -8   21    2    -10.38      0.00
   -7   21    2    -12.37      0.00
   -6   21    2     -7.86      0.00
   -5   21    2     17.69      0.00
   -4   21    2      3.81      0.00
   -3   21    2     -7.11      0.00
   -2   21    2    -18.86      0.00
   -1   21    2     -6.48      0.00
    0   21    2      8.87      0.00
  -21   22    2      2.12      0.00
  -20   22    2     -7.86      0.00
  -19   22    2     -6.51      0.00
  -18   22    2     -4.23      0.00
  -17   22    2     -6.47      0.00
  -16   22    2     10.87      0.00
  -15   22    2      3.21      0.00
  -14   22    2      7.44      0.00
  -13   22    2     -5.10      0.00
  -12   22    2     -7.99      0.00
  -11   22    2     -7.33      0.00
  -10   22    2      1.63      0.00
   -9   22    2      8.27      0.00
   -8   22    2     -2.16      0.00
   -7   22    2    -15.53      0.00
   -6   22    2     -1.88      0.00
   -5   22    2     -0.91      0.00
   -4   22    2      1.30      0.00
   -3   22    2     -4.87      0.00
   -2   22    2      9.71      0.00
   -1   22    2      0.08      0.00
    0   22    2      0.52      0.00
  -22   23    2     -5.91      0.00
  -21   23    2     -0.65      0.00
  -20   23    2     -4.20      0.00
  -19   23    2     -9.76      0.00
  -18   23    2     -0.43      0.00
  -17   23    2      2.81      0.00
  -16   23    2      3.76      0.00
  -15   23    2      4.87      0.00
  -14   23    2     -8.21      0.00
  -13   23    2     -6.79      0.00
  -12   23    2     -5.57      0.00
  -11   23    2     -1.07      0.00
  -10   23    2      9.01      0.00
   -9   23    2     -1.14      0.00
   -8   23    2     -8.78      0.00
   -7   23    2     -3.76      0.00
   -6   23    2      0.81      0.00
   -5   23    2     -3.78      0.00
   -4   23    2      6.34      0.00
   -3   23    2      4.54      0.00
   -2   23    2     13.46      0.00
   -1   23    2     -9.83      0.00
    0   23    2      3.33      0.00
  -23   24    2     -9.62      0.00
  -22   24    2     14.46      0.00
  -21   24    2     11.90      0.00
  -20   24    2     -1.24      0.00
  -19   24    2     -7.47      0.00
  -18   24    2    -17.15      0.00
  -17   24    2     -2.41      0.00
  -16   24    2      8.27      0.00
  -15   24    2      8.86      0.00
  -14   24    2     -2.71      0.00
  -13   24    2    -15.44      0.00
  -12   24    2    -11.18      0.00
  -11   24    2      6.91      0.00
  -10   24    2      7.89      0.00
   -9   24    2     10.20      0.00
   -8   24    2     -7.70      0.00
   -7   24    2     -7.67      0.00
   -6   24    2     -1.69      0.00
   -5   24    2      2.83      0.00
   -4   24    2     14.79      0.00
   -3   24    2      0.85      0.00
   -2   24    2     -3.36      0.00
   -1   24    2    -12.18      0.00
    0   24    2    -18.70      0.00
  -24   25    2      2.67      0.00
  -23   25    2     -5.05      0.00
  -22   25    2     -1.01      0.00
  -21   25    2      0.24      0.00
  -20   25    2      9.24      0.00
  -19   25    2     -1.14      0.00
  -18   25    2    -11.15      0.00
  -17   25    2     -9.02      0.00
  -16   25    2     -3.22      0.00
  -15   25    2     10.06      0.00
  -14   25    2      3.66      0.00
  -13   25    2      2.19      0.00
  -12   25    2    -15.77      0.00
  -11   25    2     -8.94      0.00
  -10   25    2      3.59      0.00
   -9   25    2      6.66      0.00
   -8   25    2     12.28      0.00
   -7   25    2      3.87      0.00
   -6   25    2    -11.40      0.00
   -5   25    2    -14.22      0.00
   -4   25    2     -6.85      0.00
   -3   25    2     16.80      0.00
   -2   25    2     -7.38      0.00
   -1   25    2    -11.49      0.00
    0   25    2    -12.24      0.00
  -25   26    2      0.21      0.00
  -24   26    2      4.13      0.00
  -23   26    2     -3.18      0.00
  -22   26    2      3.45      0.00
  -21   26    2     -4.65      0.00
  -20   26    2     -6.42      0.00
  -19   26    2     -1.70      0.00
  -18   26    2     -3.74      0.00
  -17   26    2      5.37      0.00
  -16   26    2     -4.48      0.00
  -15   26    2     -2.12      0.00
  -14   26    2      1.34      0.00
  -13   26    2     -0.79      0.00
  -12   26    2     -0.37      0.00
  -11   26    2     -6.15      0.00
  -10   26    2     -3.24      0.00
   -9   26    2      1.18      0.00
   -8   26    2      6.78      0.00
   -7   26    2     -0.64      0.00
   -6   26    2    -13.61      0.00
   -5   26    2     -3.41      0.00
   -4   26    2     -5.21      0.00
   -3   26    2     -1.77      0.00
   -2   26    2     -3.69      0.00
   -1   26    2     12.51      0.00
    0   26    2      1.36      0.00
  -26   27    2      1.45      0.00
  -25   27    2      2.25      0.00
  -24   27    2     -6.87      0.00
  -23   27    2     -1.87      0.00
  -22   27    2     -6.68      0.00
  -21   27    2      6.96      0.00
  -20   27    2      2.38      0.00
  -19   27    2     -3.23      0.00
  -18   27    2     -2.96      0.00
  -17   27    2     -8.90      0.00
  -16   27    2      2.06      0.00
  -15   27    2      0.02      0.00
  -14   27    2      5.20      0.00
  -13   27    2      1.26      0.00
  -12   27    2     -8.63      0.00
  -11   27    2     -3.17      0.00
  -10   27    2      4.01      0.00
   -9   27    2      2.28      0.00
   -8   27    2     -3.26      0.00
   -7   27    2    -12.71      0.00
   -6   27    2      2.41      0.00
   -5   27    2      5.33      0.00
   -4   27    2      1.85      0.00
   -3   27    2      5.01      0.00
   -2   27    2      2.09      0.00
   -1   27    2      1.08      0.00
    0   27    2      4.71      0.00
  -27   28    2     -0.08      0.00
  -26   28    2     -1.52      0.00
  -25   28    2     10.46      0.00
  -24   28    2     -4.67      0.00
  -23   28    2     -4.91      0.00
  -22   28    2     -8.81      0.00
  -21   28    2      2.13      0.00
  -20   28    2     11.60      0.00
  -19   28    2      3.27      0.00
  -18   28    2     -1.29      0.00
  -17   28    2    -11.54      0.00
  -16   28    2     -6.94      0.00
  -15   28    2      4.52      0.00
  -14   28    2      8.02      0.00
  -13   28    2     -2.87      0.00
  -12   28    2     -3.59      0.00
  -11   28    2     -6.29      0.00
  -10   28    2     -0.45      0.00
   -9   28    2      1.02      0.00
   -8   28    2      5.73      0.00
   -7   28    2      2.98      0.00
   -6   28    2      0.09      0.00
   -5   28    2      1.04      0.00
   -4   28    2      5.43      0.00
   -3   28    2     -5.91      0.00
   -2   28    2      7.71      0.00
   -1   28    2      1.07      0.00
    0   28    2     -1.31      0.00
  -28   29    2     -5.27      0.00
  -27   29    2      3.80      0.00
  -26   29    2      5.66      0.00
  -25   29    2      3.39      0.00
  -24   29    2      0.02      0.00
  -23   29    2     -3.27      0.00
  -22   29    2     -2.13      0.00
  -21   29    2     -1.39      0.00
  -20   29    2      0.64      0.00
  -19   29    2      4.07      0.00
  -18   29    2      0.65      0.00
  -17   29    2     -7.42      0.00
  -16   29    2     -3.72      0.00
  -15   29    2     -2.57      0.00
  -14   29    2      0.61      0.00
  -13   29    2     -2.56      0.00
  -12   29    2      0.17      0.00
  -11   29    2     -3.14      0.00
  -10   29    2     -3.10      0.00
   -9   29    2      2.95      0.00
   -8   29    2     -1.66      0.00
   -7   29    2      4.72      0.00
   -6   29    2      8.46      0.00
   -5   29    2     -7.81      0.00
   -4   29    2    -10.60      0.00
   -3   29    2     -4.33      0.00
   -2   29    2      4.42      0.00
   -1   29    2     -2.21      0.00
    0   29    2     -2.96      0.00
  -29   30    2     -3.95      0.00
  -28   30    2     -3.66      0.00
  -27   30    2      3.23      0.00
  -26   30    2      6.56      0.00
  -25   30    2      1.53      0.00
  -24   30    2      2.20      0.00
  -23   30    2     -7.38      0.00
  -22   30    2     -3.09      0.00
  -21   30    2     -3.97      0.00
  -20   30    2      6.09      0.00
  -19   30    2     -1.94      0.00
  -18   30    2     -4.66      0.00
  -17   30    2     -4.31      0.00
  -16   30    2     -6.43      0.00
  -15   30    2      0.45      0.00
  -14   30    2     -0.71      0.00
  -13   30    2     -0.44      0.00
  -12   30    2     -3.47      0.00
  -11   30    2      2.38      0.00
  -10   30    2     -2.90      0.00
   -9   30    2     -8.65      0.00
   -8   30    2     -3.33      0.00
   -7   30    2      6.66      0.00
   -6   30    2     -6.74      0.00
   -5   30    2     -6.47      0.00
   -4   30    2     -2.26      0.00
   -3   30    2     -0.99      0.00
   -2   30    2     -1.86      0.00
   -1   30    2     -4.49      0.00
    0   30    2     -3.72      0.00
  -30   31    2      0.93      0.00
  -29   31    2     -1.22      0.00
  -28   31    2      2.33      0.00
  -27   31    2     -0.87      0.00
  -26   31    2      1.01      0.00
  -25   31    2     -3.73      0.00
  -24   31    2     -1.43      0.00
  -23   31    2     -6.35      0.00
  -22   31    2     -1.19      0.00
  -21   31    2     -1.37      0.00
  -20   31    2     -1.94      0.00
  -19   31    2      4.87      0.00
  -18   31    2     -0.65      0.00
  -17   31    2     -4.49      0.00
  -16   31    2     -4.94      0.00
  -15   31    2     -1.51      0.00
  -14   31    2     -2.06      0.00
  -13   31    2      5.44      0.00
  -12   31    2      0.46      0.00
  -11   31    2     -3.86      0.00
  -10   31    2    -11.00      0.00
   -9   31    2      2.37      0.00
   -8   31    2     -1.48      0.00
   -7   31    2     -0.27      0.00
   -6   31    2      2.04      0.00
   -5   31    2     -0.33      0.00
   -4   31    2     -4.05      0.00
   -3   31    2      0.52      0.00
   -2   31    2     -1.77      0.00
   -1   31    2      4.14      0.00
    0   31    2      2.67      0.00
  -31   32    2      0.04      0.00
  -30   32    2      1.60      0.00
  -29   32    2     -7.14      0.00
  -28   32    2      0.41      0.00
  -27   32    2     -1.17      0.00
  -26   32    2      0.18      0.00
  -25   32    2     -0.28      0.00
  -24   32    2     -4.64      0.00
  -23   32    2      4.08      0.00
  -22   32    2     -6.05      0.00
  -21   32    2      0.42      0.00
  -20   32    2     -0.58      0.00
  -19   32    2      4.34      0.00
  -18   32    2      2.28      0.00
  -17   32    2     -1.28      0.00
  -16   32    2     -3.78      0.00
  -15   32    2     -3.51      0.00
  -14   32    2      2.55      0.00
  -13   32    2      4.00      0.00
  -12   32    2     -3.53      0.00
  -11   32    2      2.52      0.00
  -10   32    2      0.38      0.00
   -9   32    2     -2.30      0.00
   -8   32    2      4.41      0.00
   -7   32    2      3.02      0.00
   -6   32    2      3.65      0.00
   -5   32    2      6.65      0.00
   -4   32    2      2.39      0.00
   -3   32    2     -2.56      0.00
   -2   32    2     -4.53      0.00
   -1   32    2      2.72      0.00
    0   32    2      6.84      0.00
  -31   33    2     -2.30      0.00
  -30   33    2      0.58      0.00
  -29   33    2     -1.51      0.00
  -28   33    2     -2.79      0.00
  -27   33    2     -2.03      0.00
  -26   33    2     -0.11      0.00
  -25   33    2      5.49      0.00
  -24   33    2      1.82      0.00
  -23   33    2      1.21      0.00
  -22   33    2      0.53      0.00
  -21   33    2      4.89      0.00
  -20   33    2     -2.89      0.00
  -19   33    2      2.34      0.00
  -18   33    2     -2.41      0.00
  -17   33    2     -4.54      0.00
  -16   33    2     -2.17      0.00
  -15   33    2      0.57      0.00
  -14   33    2      3.97      0.00
  -13   33    2      3.44      0.00
  -12   33    2     10.82      0.00
  -11   33    2     -4.64      0.00
  -10   33    2      1.01      0.00
   -9   33    2      3.47      0.00
   -8   33    2      3.48      0.00
   -7   33    2     -1.36      0.00
   -6   33    2      6.26      0.00
   -5   33    2      7.20      0.00
   -4   33    2      2.80      0.00
   -3   33    2     -2.31      0.00
   -2   33    2     -5.07      0.00
  -29   34    2      8.81      0.00
  -28   34    2      3.20      0.00
  -27   34    2     -0.83      0.00
  -26   34    2     -0.19      0.00
  -25   34    2     -1.01      0.00
  -24   34    2      4.09      0.00
  -23   34    2      3.96      0.00
  -22   34    2      0.73      0.00
  -21   34    2     -0.27      0.00
  -20   34    2      5.28      0.00
  -19   34    2      1.68      0.00
  -18   34    2     -6.54      0.00
  -17   34    2     -2.85      0.00
  -16   34    2     -0.06      0.00
  -15   34    2     -1.60      0.00
  -14   34    2      6.51      0.00
  -13   34    2      3.95      0.00
  -12   34    2      6.07      0.00
  -11   34    2     -0.77      0.00
  -10   34    2      1.74      0.00
   -9   34    2     -7.33      0.00
   -8   34    2     -1.44      0.00
   -7   34    2      5.66      0.00
   -6   34    2      3.64      0.00
   -5   34    2      1.02      0.00
  -28   35    2      1.95      0.00
  -27   35    2      4.00      0.00
  -26   35    2     -0.60      0.00
  -25   35    2      0.19      0.00
  -24   35    2      4.63      0.00
  -23   35    2     -3.54      0.00
  -22   35    2      0.93      0.00
  -21   35    2     -1.25      0.00
  -20   35    2      7.65      0.00
  -19   35    2     -0.42      0.00
  -18   35    2      3.51      0.00
  -17   35    2      1.22      0.00
  -16   35    2     -1.54      0.00
  -15   35    2     -0.57      0.00
  -14   35    2     -2.41      0.00
  -13   35    2     -1.42      0.00
  -12   35    2     -0.04      0.00
  -11   35    2     -0.76      0.00
  -10   35    2     -2.43      0.00
   -9   35    2     -2.85      0.00
   -8   35    2     -3.98      0.00
   -7   35    2     -0.09      0.00
  -25   36    2     -0.69      0.00
  -24   36    2      1.27      0.00
  -23   36    2      1.90      0.00
  -22   36    2      4.36      0.00
  -21   36    2     -2.39      0.00
  -20   36    2      6.63      0.00
  -19   36    2      3.70      0.00
  -18   36    2      4.14      0.00
  -17   36    2     -1.08      0.00
  -16   36    2     -6.08      0.00
  -15   36    2     -7.20      0.00
  -14   36    2     -3.91      0.00
  -13   36    2      1.24      0.00
  -12   36    2     -6.06      0.00
  -11   36    2     -0.08      0.00
  -21   37    2      9.04      0.00
  -20   37    2      2.58      0.00
  -19   37    2      4.40      0.00
  -18   37    2      2.64      0.00
  -17   37    2     -8.70      0.00
  -16   37    2    -15.64      0.00
    0    0    3    -35.21      0.00
    0    1    3     17.63      0.00
   -1    2    3     65.51      0.00
    0    2    3     61.45      0.00
   -2    3    3     25.02      0.00
   -1    3    3     52.23      0.00
    0    3    3     22.78      0.00
   -3    4    3    -23.33      0.00
   -2    4    3    -42.51      0.00
   -1    4    3    -21.64      0.00
    0    4    3     22.94      0.00
   -4    5    3    -33.07      0.00
   -3    5    3    -80.81      0.00
   -2    5    3     10.68      0.00
   -1    5    3      9.55      0.00
    0    5    3      1.12      0.00
   -5    6    3    -18.04      0.00
   -4    6    3      5.56      0.00
   -3    6    3     17.14      0.00
   -2    6    3     -6.75      0.00
   -1    6    3     -5.54      0.00
    0    6    3    -10.13      0.00
   -6    7    3    -14.02      0.00
   -5    7    3      5.05      0.00
   -4    7    3      9.36      0.00
   -3    7    3     25.29      0.00
   -2    7    3     20.12      0.00
   -1    7    3    -10.15      0.00
    0    7    3     -5.76      0.00
   -7    8    3     10.94      0.00
   -6    8    3     41.41      0.00
   -5    8    3      3.68      0.00
   -4    8    3    -14.59      0.00
   -3    8    3     -1.61      0.00
   -2    8    3    -34.78      0.00
   -1    8    3     40.48      0.00
    0    8    3     13.44      0.00
   -8    9    3     24.15      0.00
   -7    9    3    -15.07      0.00
   -6    9    3    -19.28      0.00
   -5    9    3     31.06      0.00
   -4    9    3    -10.02      0.00
   -3    9    3    -10.77      0.00
   -2    9    3    -20.29      0.00
   -1    9    3     -3.80      0.00
    0    9    3     13.07      0.00
   -9   10    3     10.54      0.00
   -8   10    3    -31.24      0.00
   -7   10    3      1.29      0.00
   -6   10    3     16.00      0.00
   -5   10    3    -14.95      0.00
   -4   10    3    -12.62      0.00
   -3   10    3    -36.50      0.00
   -2   10    3      7.15      0.00
   -1   10    3     16.18      0.00
    0   10    3     -0.15      0.00
  -10   11    3    -13.54      0.00
   -9   11    3    -19.83      0.00
   -8   11    3    -18.78      0.00
   -7   11    3     -4.23      0.00
   -6   11    3     12.96      0.00
   -5   11    3     -6.91      0.00
   -4   11    3    -17.62      0.00
   -3   11    3    -20.15      0.00
   -2   11    3     13.86      0.00
   -1   11    3    -12.63      0.00
    0   11    3     17.19      0.00
  -11   12    3     -9.75      0.00
  -10   12    3     -9.86      0.00
   -9   12    3      4.52      0.00
   -8   12    3    -16.10      0.00
   -7   12    3     13.99      0.00
   -6   12    3     -2.92      0.00
   -5   12    3    -22.62      0.00
   -4   12    3     18.03      0.00
   -3   12    3      1.39      0.00
   -2   12    3     10.56      0.00
   -1   12    3    -18.81      0.00
    0   12    3     -4.26      0.00
  -12   13    3      1.55      0.00
  -11   13    3     14.70      0.00
  -10   13    3     -9.73      0.00
   -9   13    3    -16.74      0.00
   -8   13    3     11.49      0.00
   -7   13    3     -3.20      0.00
   -6   13    3      1.78      0.00
   -5   13    3      8.17      0.00
   -4   13    3      7.70      0.00
   -3   13    3     21.27      0.00
   -2   13    3    -22.44      0.00
   -1   13    3     -7.68      0.00
    0   13    3     -0.88      0.00
  -13   14    3     24.53      0.00
  -12   14    3     16.47      0.00
  -11   14    3    -25.91      0.00
  -10   14    3      7.03      0.00
   -9   14    3     -4.30      0.00
   -8   14    3      2.00      0.00
   -7   14    3      0.75      0.00
   -6   14    3    -16.30      0.00
   -5   14    3     21.46      0.00
   -4   14    3      6.59      0.00
   -3   14    3      7.59      0.00
   -2   14    3    -24.08      0.00
   -1   14    3      0.41      0.00
    0   14    3      4.48      0.00
  -14   15    3     24.06      0.00
  -13   15    3      7.74      0.00
  -12   15    3      2.13      0.00
  -11   15    3     -6.02      0.00
  -10   15    3    -11.63      0.00
   -9   15    3     -2.28      0.00
   -8   15    3      2.84      0.00
   -7   15    3     -4.99      0.00
   -6   15    3      0.62      0.00
   -5   15    3      3.19      0.00
   -4   15    3     -6.29      0.00
   -3   15    3     -4.91      0.00
   -2   15    3     -8.70      0.00
   -1   15    3      7.54      0.00
    0   15    3    -11.19      0.00
  -15   16    3      0.55      0.00
  -14   16    3    -11.00      0.00
  -13   16    3     -7.99      0.00
  -12   16    3     -5.37      0.00
  -11   16    3      0.13      0.00
  -10   16    3      9.58      0.00
   -9   16    3     -3.55      0.00
   -8   16    3    -10.62      0.00
   -7   16    3     -7.59      0.00
   -6   16    3     -3.50      0.00
   -5   16    3      4.58      0.00
   -4   16    3      1.49      0.00
   -3   16    3    -15.05      0.00
   -2   16    3     -6.42      0.00
   -1   16    3    -17.67      0.00
    0   16    3      5.10      0.00
  -16   17    3     -0.63      0.00
  -15   17    3      0.11      0.00
  -14   17    3      3.21      0.00
  -13   17    3    -15.90      0.00
  -12   17    3     -5.81      0.00
  -11   17    3      9.78      0.00
  -10   17    3     -8.34      0.00
   -9   17    3      5.96      0.00
   -8   17    3     -0.60      0.00
   -7   17    3      0.16      0.00
   -6   17    3     -3.16      0.00
   -5   17    3    -21.22      0.00
   -4   17    3     -1.50      0.00
   -3   17    3    -10.54      0.00
   -2   17    3     12.67      0.00
   -1   17    3     -5.23      0.00
    0   17    3     -0.96      0.00
  -17   18    3    -13.52      0.00
  -16   18    3      4.82      0.00
  -15   18    3      0.14      0.00
  -14   18    3    -15.38      0.00
  -13   18    3     12.71      0.00
  -12   18    3      3.90      0.00
  -11   18    3      2.78      0.00
  -10   18    3    -11.05      0.00
   -9   18    3     -5.25      0.00
   -8   18    3     11.82      0.00
   -7   18    3     -0.95      0.00
   -6   18    3     -3.63      0.00
   -5   18    3    -13.25      0.00
   -4   18    3     -7.08      0.00
   -3   18    3      7.99      0.00
   -2   18    3     13.98      0.00
   -1   18    3     -7.39      0.00
    0   18    3      0.58      0.00
  -18   19    3     -6.53      0.00
  -17   19    3     15.11      0.00
  -16   19    3      0.05      0.00
  -15   19    3     -0.93      0.00
  -14   19    3     -6.73      0.00
  -13   19    3     -0.13      0.00
  -12   19    3      6.96      0.00
  -11   19    3     -4.32      0.00
  -10   19    3     -0.65      0.00
   -9   19    3     -0.84      0.00
   -8   19    3     -5.14      0.00
   -7   19    3     -4.27      0.00
   -6   19    3     -1.54      0.00
   -5   19    3      7.28      0.00
   -4   19    3      8.76      0.00
   -3   19    3      9.62      0.00
   -2   19    3    -11.66      0.00
   -1   19    3     -0.23      0.00
    0   19    3    -12.39      0.00
  -19   20    3      5.87      0.00
  -18   20    3      1.08      0.00
  -17   20    3     -5.60      0.00
  -16   20    3      0.23      0.00
  -15   20    3     -6.09      0.00
  -14   20    3      4.03      0.00
  -13   20    3      2.88      0.00
  -12   20    3     -5.42      0.00
  -11   20    3    -10.21      0.00
  -10   20    3      1.14      0.00
   -9   20    3      1.86      0.00
   -8   20    3     -1.29      0.00
   -7   20    3      0.14      0.00
   -6   20    3     -0.38      0.00
   -5   20    3      6.64      0.00
   -4   20    3     -9.17      0.00
   -3   20    3      6.20      0.00
   -2   20    3     -7.58      0.00
   -1   20    3     -0.99      0.00
    0   20    3     -9.40      0.00
  -20   21    3      5.93      0.00
  -19   21    3     -3.45      0.00
  -18   21    3      0.88      0.00
  -17   21    3      2.29      0.00
  -16   21    3    -10.44      0.00
  -15   21    3     -5.48      0.00
  -14   21    3     -0.03      0.00
  -13   21    3     -7.64      0.00
  -12   21    3     -2.06      0.00
  -11   21    3     -2.87      0.00
  -10   21    3      8.56      0.00
   -9   21    3      1.83      0.00
   -8   21    3     -7.78      0.00
   -7   21    3     -1.79      0.00
   -6   21    3     -5.43      0.00
   -5   21    3     -2.44      0.00
   -4   21    3      1.40      0.00
   -3   21    3     -8.88      0.00
   -2   21    3     -6.98      0.00
   -1   21    3      2.57      0.00
    0   21    3      2.32      0.00
  -21   22    3      7.26      0.00
  -20   22    3     -2.32      0.00
  -19   22    3      5.32      0.00
  -18   22    3     -8.90      0.00
  -17   22    3    -11.66      0.00
  -16   22    3     -0.14      0.00
  -15   22    3      0.70      0.00
  -14   22    3      4.90      0.00
  -13   22    3     -6.38      0.00
  -12   22    3     -9.22      0.00
  -11   22    3     -0.68      0.00
  -10   22    3      2.76      0.00
   -9   22    3      2.35      0.00
   -8   22    3     -2.29      0.00
   -7   22    3    -13.40      0.00
   -6   22    3     -3.96      0.00
   -5   22    3     -2.87      0.00
   -4   22    3      3.01      0.00
   -3   22    3      0.46      0.00
   -2   22    3      5.95      0.00
   -1   22    3     -2.51      0.00
    0   22    3     -0.68      0.00
  -22   23    3     -7.23      0.00
  -21   23    3     -2.89      0.00
  -20   23    3      0.06      0.00
  -19   23    3    -10.15      0.00
  -18   23    3     -0.42      0.00
  -17   23    3     -1.42      0.00
  -16   23    3     -0.26      0.00
  -15   23    3     -1.10      0.00
  -14   23    3     -3.53      0.00
  -13   23    3     -1.27      0.00
  -12   23    3     -4.09      0.00
  -11   23    3      1.72      0.00
  -10   23    3     -7.38      0.00
   -9   23    3     -8.51      0.00
   -8   23    3     -0.83      0.00
   -7   23    3      6.34      0.00
   -6   23    3      2.79      0.00
   -5   23    3     -6.81      0.00
   -4   23    3      3.29      0.00
   -3   23    3     -4.19      0.00
   -2   23    3      6.13      0.00
   -1   23    3     -5.18      0.00
    0   23    3     10.31      0.00
  -23   24    3     -7.44      0.00
  -22   24    3     12.48      0.00
  -21   24    3     -0.15      0.00
  -20   24    3     -7.25      0.00
  -19   24    3     -7.25      0.00
  -18   24    3     -7.63      0.00
  -17   24    3      3.49      0.00
  -16   24    3      6.48      0.00
  -15   24    3     -0.46      0.00
  -14   24    3    -14.07      0.00
  -13   24    3    -10.00      0.00
  -12   24    3     -4.85      0.00
  -11   24    3      6.26      0.00
  -10   24    3      1.42      0.00
   -9   24    3      3.79      0.00
   -8   24    3     -0.72      0.00
   -7   24    3     -6.81      0.00
   -6   24    3      0.08      0.00
   -5   24    3      4.84      0.00
   -4   24    3      1.05      0.00
   -3   24    3     -3.95      0.00
   -2   24    3     -7.83      0.00
   -1   24    3     -4.08      0.00
    0   24    3     -5.29      0.00
  -24   25    3     -2.23      0.00
  -23   25    3     -8.34      0.00
  -22   25    3     -4.15      0.00
  -21   25    3      0.88      0.00
  -20   25    3      4.90      0.00
  -19   25    3      0.12      0.00
  -18   25    3     -3.62      0.00
  -17   25    3     -7.66      0.00
  -16   25    3    -10.28      0.00
  -15   25    3      3.39      0.00
  -14   25    3      3.62      0.00
  -13   25    3     -3.97      0.00
  -12   25    3     -9.54      0.00
  -11   25    3     -6.23      0.00
  -10   25    3      9.92      0.00
   -9   25    3      9.37      0.00
   -8   25    3      1.52      0.00
   -7   25    3     -3.71      0.00
   -6   25    3    -18.80      0.00
   -5   25    3     -2.71      0.00
   -4   25    3     -0.49      0.00
   -3   25    3     14.73      0.00
   -2   25    3     -2.34      0.00
   -1   25    3    -14.60      0.00
    0   25    3    -13.35      0.00
  -25   26    3     -1.88      0.00
  -24   26    3      1.87      0.00
  -23   26    3     -0.71      0.00
  -22   26    3      6.06      0.00
  -21   26    3     -8.64      0.00
  -20   26    3     -6.13      0.00
  -19   26    3     -2.14      0.00
  -18   26    3      1.57      0.00
  -17   26    3     -0.38      0.00
  -16   26    3     -3.27      0.00
  -15   26    3      1.93      0.00
  -14   26    3     -0.27      0.00
  -13   26    3     -2.82      0.00
  -12   26    3      1.87      0.00
  -11   26    3     -5.72      0.00
  -10   26    3     -4.56      0.00
   -9   26    3      2.45      0.00
   -8   26    3      2.16      0.00
   -7   26    3     -5.32      0.00
   -6   26    3     -6.26      0.00
   -5   26    3      1.75      0.00
   -4   26    3     -0.63      0.00
   -3   26    3     -0.87      0.00
   -2   26    3     -4.19      0.00
   -1   26    3     10.90      0.00
    0   26    3     -5.70      0.00
  -26   27    3      1.86      0.00
  -25   27    3     -1.13      0.00
  -24   27    3     -9.19      0.00
  -23   27    3     -0.97      0.00
  -22   27    3     -1.00      0.00
  -21   27    3      7.23      0.00
  -20   27    3     -1.87      0.00
  -19   27    3     -5.99      0.00
  -18   27    3     -5.34      0.00
  -17   27    3      0.76      0.00
  -16   27    3      9.06      0.00
  -15   27    3      6.69      0.00
  -14   27    3     -0.53      0.00
  -13   27    3     -9.06      0.00
  -12   27    3    -13.88      0.00
  -11   27    3     -8.23      0.00
  -10   27    3      8.57      0.00
   -9   27    3      5.23      0.00
   -8   27    3     -1.83      0.00
   -7   27    3     -7.84      0.00
   -6   27    3      1.31      0.00
   -5   27    3      1.98      0.00
   -4   27    3      3.71      0.00
   -3   27    3      4.43      0.00
   -2   27    3     -1.27      0.00
   -1   27    3     -1.19      0.00
    0   27    3      6.99      0.00
  -27   28    3      6.49      0.00
  -26   28    3     -1.09      0.00
  -25   28    3      9.62      0.00
  -24   28    3    -10.06      0.00
  -23   28    3     -2.85      0.00
  -22   28    3    -11.68      0.00
  -21   28    3      2.80      0.00
  -20   28    3      8.04      0.00
  -19   28    3      6.62      0.00
  -18   28    3     -3.10      0.00
  -17   28    3     -5.83      0.00
  -16   28    3      4.53      0.00
  -15   28    3     -0.51      0.00
  -14   28    3     -0.33      0.00
  -13   28    3     -9.02      0.00
  -12   28    3     -7.98      0.00
  -11   28    3     -2.26      0.00
  -10   28    3     -1.08      0.00
   -9   28    3      8.20      0.00
   -8   28    3      9.73      0.00
   -7   28    3     -1.90      0.00
   -6   28    3     -6.57      0.00
   -5   28    3    -11.98      0.00
   -4   28    3     13.99      0.00
   -3   28    3      1.89      0.00
   -2   28    3      5.03      0.00
   -1   28    3      1.08      0.00
    0   28    3     -3.36      0.00
  -28   29    3     -1.50      0.00
  -27   29    3      0.37      0.00
  -26   29    3     -2.13      0.00
  -25   29    3     -0.25      0.00
  -24   29    3      0.97      0.00
  -23   29    3     -2.22      0.00
  -22   29    3      1.46      0.00
  -21   29    3     -0.63      0.00
  -20   29    3     -2.23      0.00
  -19   29    3     -0.13      0.00
  -18   29    3      2.67      0.00
  -17   29    3     -1.15      0.00
  -16   29    3      0.40      0.00
  -15   29    3     -7.55      0.00
  -14   29    3     -5.77      0.00
  -13   29    3      2.50      0.00
  -12   29    3      1.89      0.00
  -11   29    3      2.04      0.00
  -10   29    3      1.85      0.00
   -9   29    3      1.98      0.00
   -8   29    3      1.53      0.00
   -7   29    3     -2.59      0.00
   -6   29    3      1.91      0.00
   -5   29    3     -3.98      0.00
   -4   29    3     -7.71      0.00
   -3   29    3     -0.73      0.00
   -2   29    3      4.32      0.00
   -1   29    3      0.28      0.00
    0   29    3      3.50      0.00
  -29   30    3     -2.97      0.00
  -28   30    3     -1.12      0.00
  -27   30    3     -1.86      0.00
  -26   30    3      9.07      0.00
  -25   30    3     -3.52      0.00
  -24   30    3      0.15      0.00
  -23   30    3     -3.55      0.00
  -22   30    3      1.90      0.00
  -21   30    3      0.05      0.00
  -20   30    3      5.96      0.00
  -19   30    3     -3.79      0.00
  -18   30    3     -8.28      0.00
  -17   30    3     -3.22      0.00
  -16   30    3     -4.78      0.00
  -15   30    3      3.22      0.00
  -14   30    3      5.03      0.00
  -13   30    3      1.77      0.00
  -12   30    3      0.55      0.00
  -11   30    3      2.19      0.00
  -10   30    3     -1.86      0.00
   -9   30    3      0.51      0.00
   -8   30    3      1.00      0.00
   -7   30    3      6.11      0.00
   -6   30    3    -12.49      0.00
   -5   30    3     -4.01      0.00
   -4   30    3     -0.11      0.00
   -3   30    3      1.81      0.00
   -2   30    3      5.53      0.00
   -1   30    3     -3.14      0.00
    0   30    3      0.61      0.00
  -30   31    3      2.27      0.00
  -29   31    3      3.77      0.00
  -28   31    3      8.12      0.00
  -27   31    3     -0.03      0.00
  -26   31    3     -1.62      0.00
  -25   31    3     -1.38      0.00
  -24   31    3      1.69      0.00
  -23   31    3     -3.97      0.00
  -22   31    3      0.08      0.00
  -21   31    3      1.32      0.00
  -20   31    3     -0.01      0.00
  -19   31    3      1.30      0.00
  -18   31    3      2.19      0.00
  -17   31    3     -4.18      0.00
  -16   31    3     -6.08      0.00
  -15   31    3     -0.51      0.00
  -14   31    3     -0.43      0.00
  -13   31    3      9.75      0.00
  -12   31    3      4.49      0.00
  -11   31    3     -3.89      0.00
  -10   31    3     -6.19      0.00
   -9   31    3      3.74      0.00
   -8   31    3      1.52      0.00
   -7   31    3     -0.23      0.00
   -6   31    3      3.36      0.00
   -5   31    3      3.67      0.00
   -4   31    3     -4.58      0.00
   -3   31    3      1.94      0.00
   -2   31    3      4.28      0.00
   -1   31    3      4.20      0.00
    0   31    3     -1.94      0.00
  -31   32    3     -3.39      0.00
  -30   32    3      6.49      0.00
  -29   32    3      6.73      0.00
  -28   32    3      5.35      0.00
  -27   32    3      0.36      0.00
  -26   32    3      1.60      0.00
  -25   32    3     -2.99      0.00
  -24   32    3     -3.71      0.00
  -23   32    3      4.20      0.00
  -22   32    3     -2.09      0.00
  -21   32    3      2.46      0.00
  -20   32    3      7.60      0.00
  -19   32    3      3.55      0.00
  -18   32    3     -2.54      0.00
  -17   32    3      0.96      0.00
  -16   32    3     -2.58      0.00
  -15   32    3     -1.06      0.00
  -14   32    3      2.97      0.00
  -13   32    3     -0.38      0.00
  -12   32    3     -1.64      0.00
  -11   32    3      0.08      0.00
  -10   32    3      7.37      0.00
   -9   32    3      0.05      0.00
   -8   32    3      1.63      0.00
   -7   32    3      6.62      0.00
   -6   32    3      2.55      0.00
   -5   32    3      5.06      0.00
   -4   32    3      2.94      0.00
   -3   32    3      0.63      0.00
   -2   32    3     -3.74      0.00
   -1   32    3     -2.51      0.00
  -30   33    3      8.46      0.00
  -29   33    3      0.74      0.00
  -28   33    3     -2.61      0.00
  -27   33    3     -3.37      0.00
  -26   33    3     -1.70      0.00
  -25   33    3      7.92      0.00
  -24   33    3      6.59      0.00
  -23   33    3     -0.53      0.00
  -22   33    3      0.61      0.00
  -21   33    3     11.25      0.00
  -20   33    3      0.79      0.00
  -19   33    3      3.73      0.00
  -18   33    3     -1.99      0.00
  -17   33    3     -1.42      0.00
  -16   33    3      1.24      0.00
  -15   33    3      1.51      0.00
  -14   33    3      5.25      0.00
  -13   33    3     -0.63      0.00
  -12   33    3      0.43      0.00
  -11   33    3     -1.85      0.00
  -10   33    3      2.22      0.00
   -9   33    3      7.90      0.00
   -8   33    3      4.87      0.00
   -7   33    3     -0.81      0.00
   -6   33    3      1.57      0.00
   -5   33    3     -1.45      0.00
   -4   33    3      0.91      0.00
   -3   33    3      1.80      0.00
  -28   34    3     -2.54      0.00
  -27   34    3     -1.73      0.00
  -26   34    3      3.77      0.00
  -25   34    3      5.52      0.00
  -24   34    3      2.51      0.00
  -23   34    3      2.85      0.00
  -22   34    3      5.43      0.00
  -21   34    3      2.95      0.00
  -20   34    3      0.28      0.00
  -19   34    3      0.93      0.00
  -18   34    3      0.92      0.00
  -17   34    3      3.46      0.00
  -16   34    3      0.17      0.00
  -15   34    3     -0.54      0.00
  -14   34    3      3.15      0.00
  -13   34    3      2.81      0.00
  -12   34    3      1.78      0.00
  -11   34    3      0.51      0.00
  -10   34    3     -1.60      0.00
   -9   34    3     -8.06      0.00
   -8   34    3      0.32      0.00
   -7   34    3      1.34      0.00
   -6   34    3      0.53      0.00
  -26   35    3      5.83      0.00
  -25   35    3      2.50      0.00
  -24   35    3     -0.12      0.00
  -23   35    3     -8.07      0.00
  -22   35    3      1.51      0.00
  -21   35    3      1.70      0.00
  -20   35    3      3.35      0.00
  -19   35    3     -0.23      0.00
  -18   35    3      5.00      0.00
  -17   35    3      0.56      0.00
  -16   35    3      2.46      0.00
  -15   35    3      4.61      0.00
  -14   35    3     -3.21      0.00
  -13   35    3     -5.28      0.00
  -12   35    3     -0.28      0.00
  -11   35    3     -1.29      0.00
  -10   35    3     -7.25      0.00
   -9   35    3     -5.70      0.00
  -23   36    3      1.04      0.00
  -22   36    3      3.22      0.00
  -21   36    3     -6.04      0.00
  -20   36    3      3.52      0.00
  -19   36    3      2.21      0.00
  -18   36    3      3.08      0.00
  -17   36    3     -2.21      0.00
  -16   36    3      2.76      0.00
  -15   36    3      3.01      0.00
  -14   36    3     -2.19      0.00
  -13   36    3     -1.90      0.00
    0    0    4    139.21      0.00
    0    1    4      2.30      0.00
   -1    2    4      2.65      0.00
    0    2    4    -36.57      0.00
   -2    3    4    -11.21      0.00
   -1    3    4    -13.69      0.00
    0    3    4    -39.19      0.00
   -3    4    4     53.46      0.00
   -2    4    4     24.61      0.00
   -1    4    4     15.71      0.00
    0    4    4    -21.23      0.00
   -4    5    4     -7.12      0.00
   -3    5    4     27.03      0.00
   -2    5    4     34.69      0.00
   -1    5    4    -30.57      0.00
    0    5    4     21.06      0.00
   -5    6    4    -16.65      0.00
   -4    6    4     20.58      0.00
   -3    6    4      8.28      0.00
   -2    6    4     -9.84      0.00
   -1    6    4    -28.21      0.00
    0    6    4     13.91      0.00
   -6    7    4     -9.07      0.00
   -5    7    4     -4.17      0.00
   -4    7    4    -13.20      0.00
   -3    7    4    -15.02      0.00
   -2    7    4      4.68      0.00
   -1    7    4      5.48      0.00
    0    7    4      7.68      0.00
   -7    8    4     -3.33      0.00
   -6    8    4      8.32      0.00
   -5    8    4    -16.70      0.00
   -4    8    4      2.10      0.00
   -3    8    4     -7.31      0.00
   -2    8    4     -7.74      0.00
   -1    8    4     28.74      0.00
    0    8    4    -18.43      0.00
   -8    9    4     11.67      0.00
   -7    9    4    -17.21      0.00
   -6    9    4     -1.18      0.00
   -5    9    4      9.98      0.00
   -4    9    4     -7.30      0.00
   -3    9    4     12.53      0.00
   -2    9    4     -9.54      0.00
   -1    9    4     14.56      0.00
    0    9    4    -13.93      0.00
   -9   10    4     -1.67      0.00
   -8   10    4     -7.53      0.00
   -7   10    4     20.86      0.00
   -6   10    4      3.20      0.00
   -5   10    4     -7.51      0.00
   -4   10    4     -8.27      0.00
   -3   10    4      5.34      0.00
   -2   10    4      8.86      0.00
   -1   10    4      4.59      0.00
    0   10    4     -5.75      0.00
  -10   11    4    -17.37      0.00
   -9   11    4     -6.73      0.00
   -8   11    4      9.05      0.00
   -7   11    4      3.17      0.00
   -6   11    4     -0.27      0.00
   -5   11    4      0.15      0.00
   -4   11    4      3.11      0.00
   -3   11    4     -4.49      0.00
   -2   11    4      1.53      0.00
   -1   11    4    -24.63      0.00
    0   11    4     17.56      0.00
  -11   12    4     -0.84      0.00
  -10   12    4     -0.04      0.00
   -9   12    4     -1.80      0.00
   -8   12    4     -6.83      0.00
   -7   12    4      4.44      0.00
   -6   12    4     -6.03      0.00
   -5   12    4      2.24      0.00
   -4   12    4     10.08      0.00
   -3   12    4    -21.41      0.00
   -2   12    4     -4.56      0.00
   -1   12    4    -11.15      0.00
    0   12    4     17.91      0.00
  -12   13    4     10.09      0.00
  -11   13    4     11.63      0.00
  -10   13    4    -10.80      0.00
   -9   13    4     -0.05      0.00
   -8   13    4     -2.35      0.00
   -7   13    4    -13.53      0.00
   -6   13    4     -3.65      0.00
   -5   13    4      1.05      0.00
   -4   13    4      2.56      0.00
   -3   13    4     -4.05      0.00
   -2   13    4    -10.51      0.00
   -1   13    4      4.08      0.00
    0   13    4     -0.51      0.00
  -13   14    4      7.43      0.00
  -12   14    4     -8.27      0.00
  -11   14    4    -18.64      0.00
  -10   14    4      8.44      0.00
   -9   14    4      0.96      0.00
   -8   14    4     -7.03      0.00
   -7   14    4    -18.87      0.00
   -6   14    4     -2.82      0.00
   -5   14    4     10.50      0.00
   -4   14    4      3.14      0.00
   -3   14    4      0.00      0.00
   -2   14    4    -14.51      0.00
   -1   14    4      5.37      0.00
    0   14    4     -6.45      0.00
  -14   15    4     10.76      0.00
  -13   15    4     -5.02      0.00
  -12   15    4     -5.31      0.00
  -11   15    4    -10.69      0.00
  -10   15    4     -7.74      0.00
   -9   15    4     -6.49      0.00
   -8   15    4     -4.90      0.00
   -7   15    4     -1.66      0.00
   -6   15    4     14.09      0.00
   -5   15    4      4.80      0.00
   -4   15    4    -12.00      0.00
   -3   15    4     -3.37      0.00
   -2   15    4     -8.27      0.00
   -1   15    4     15.41      0.00
    0   15    4     -8.11      0.00
  -15   16    4     -0.08      0.00
  -14   16    4     -9.39      0.00
  -13   16    4     -6.68      0.00
  -12   16    4     -9.80      0.00
  -11   16    4      0.26      0.00
  -10   16    4      7.75      0.00
   -9   16    4     -2.07      0.00
   -8   16    4     -9.76      0.00
   -7   16    4      0.41      0.00
   -6   16    4     -1.18      0.00
   -5   16    4      6.62      0.00
   -4   16    4     -2.22      0.00
   -3   16    4      1.08      0.00
   -2   16    4      3.73      0.00
   -1   16    4    -16.18      0.00
    0   16    4     10.98      0.00
  -16   17    4     -5.35      0.00
  -15   17    4      8.45      0.00
  -14   17    4     12.94      0.00
  -13   17    4     -3.69      0.00
  -12   17    4     -8.20      0.00
  -11   17    4     -1.20      0.00
  -10   17    4      3.57      0.00
   -9   17    4      9.94      0.00
   -8   17    4     -5.28      0.00
   -7   17    4     -1.63      0.00
   -6   17    4    -11.55      0.00
   -5   17    4     -9.64      0.00
   -4   17    4     17.92      0.00
   -3   17    4      4.20      0.00
   -2   17    4      5.92      0.00
   -1   17    4    -18.32      0.00
    0   17    4     -8.09      0.00
  -17   18    4     -6.08      0.00
  -16   18    4      5.24      0.00
  -15   18    4      0.51      0.00
  -14   18    4     -1.50      0.00
  -13   18    4      4.85      0.00
  -12   18    4      2.18      0.00
  -11   18    4      4.33      0.00
  -10   18    4     -2.08      0.00
   -9   18    4     -4.26      0.00
   -8   18    4      3.82      0.00
   -7   18    4     -1.58      0.00
   -6   18    4     -4.62      0.00
   -5   18    4     -0.93      0.00
   -4   18    4      2.33      0.00
   -3   18    4     -0.03      0.00
   -2   18    4     -5.90      0.00
   -1   18    4    -14.38      0.00
    0   18    4      1.83      0.00
  -18   19    4      0.13      0.00
  -17   19    4      6.16      0.00
  -16   19    4     -3.88      0.00
  -15   19    4      3.01      0.00
  -14   19    4     -1.46      0.00
  -13   19    4     -4.11      0.00
  -12   19    4     -1.03      0.00
  -11   19    4      1.07      0.00
  -10   19    4      2.90      0.00
   -9   19    4      4.93      0.00
   -8   19    4      0.28      0.00
   -7   19    4     -5.14      0.00
   -6   19    4     -7.85      0.00
   -5   19    4     -3.88      0.00
   -4   19    4      5.70      0.00
   -3   19    4     -6.13      0.00
   -2   19    4     -7.62      0.00
   -1   19    4      6.87      0.00
    0   19    4     -5.26      0.00
  -19   20    4      7.68      0.00
  -18   20    4     -2.99      0.00
  -17   20    4     -3.46      0.00
  -16   20    4     -6.05      0.00
  -15   20    4     -1.53      0.00
  -14   20    4      3.55      0.00
  -13   20    4      5.02      0.00
  -12   20    4     -2.21      0.00
  -11   20    4     -2.21      0.00
  -10   20    4     -2.76      0.00
   -9   20    4     -1.75      0.00
   -8   20    4      7.09      0.00
   -7   20    4     -8.70      0.00
   -6   20    4     -4.73      0.00
   -5   20    4     -4.00      0.00
   -4   20    4    -10.61      0.00
   -3   20    4     14.74      0.00
   -2   20    4      1.84      0.00
   -1   20    4     11.37      0.00
    0   20    4     -8.60      0.00
  -20   21    4     -1.91      0.00
  -19   21    4     -6.74      0.00
  -18   21    4     -4.17      0.00
  -17   21    4      1.43      0.00
  -16   21    4      1.01      0.00
  -15   21    4      4.61      0.00
  -14   21    4      3.18      0.00
  -13   21    4     -3.91      0.00
  -12   21    4      1.00      0.00
  -11   21    4     -6.29      0.00
  -10   21    4      1.53      0.00
   -9   21    4     -4.83      0.00
   -8   21    4     -8.00      0.00
   -7   21    4      0.77      0.00
   -6   21    4     -2.87      0.00
   -5   21    4      9.06      0.00
   -4   21    4      0.86      0.00
   -3   21    4      1.42      0.00
   -2   21    4     -3.13      0.00
   -1   21    4     -2.41      0.00
    0   21    4      3.89      0.00
  -21   22    4     -1.79      0.00
  -20   22    4     -0.41      0.00
  -19   22    4      6.08      0.00
  -18   22    4      2.97      0.00
  -17   22    4     -3.26      0.00
  -16   22    4      3.85      0.00
  -15   22    4     -1.17      0.00
  -14   22    4      3.60      0.00
  -13   22    4      0.35      0.00
  -12   22    4     -4.40      0.00
  -11   22    4     -6.14      0.00
  -10   22    4     -7.15      0.00
   -9   22    4      3.76      0.00
   -8   22    4      5.22      0.00
   -7   22    4     -0.88      0.00
   -6   22    4      1.18      0.00
   -5   22    4     -5.94      0.00
   -4   22    4     -0.25      0.00
   -3   22    4     -2.61      0.00
   -2   22    4      2.11      0.00
   -1   22    4     -5.80      0.00
    0   22    4     -1.31      0.00
  -22   23    4     -7.52      0.00
  -21   23    4     -1.80      0.00
  -20   23    4      1.74      0.00
  -19   23    4     -0.32      0.00
  -18   23    4      7.30      0.00
  -17   23    4      2.11      0.00
  -16   23    4     -3.03      0.00
  -15   23    4     -5.02      0.00
  -14   23    4     -7.43      0.00
  -13   23    4      1.99      0.00
  -12   23    4      7.81      0.00
  -11   23    4      3.18      0.00
  -10   23    4     -1.17      0.00
   -9   23    4     -3.96      0.00
   -8   23    4      4.00      0.00
   -7   23    4      4.14      0.00
   -6   23    4     -5.59      0.00
   -5   23    4    -10.62      0.00
   -4   23    4     -2.42      0.00
   -3   23    4     -8.68      0.00
   -2   23    4      5.55      0.00
   -1   23    4     -3.51      0.00
    0   23    4      9.54      0.00
  -23   24    4     -5.17      0.00
  -22   24    4      4.20      0.00
  -21   24    4      0.45      0.00
  -20   24    4     -1.10      0.00
  -19   24    4     -3.17      0.00
  -18   24    4     -4.72      0.00
  -17   24    4      0.38      0.00
  -16   24    4      5.68      0.00
  -15   24    4     -0.75      0.00
  -14   24    4     -3.67      0.00
  -13   24    4     -2.28      0.00
  -12   24    4      4.68      0.00
  -11   24    4      7.90      0.00
  -10   24    4      2.29      0.00
   -9   24    4      6.76      0.00
   -8   24    4     -9.85      0.00
   -7   24    4    -10.03      0.00
   -6   24    4      0.63      0.00
   -5   24    4      0.07      0.00
   -4   24    4      4.23      0.00
   -3   24    4     -8.66      0.00
   -2   24    4      0.30      0.00
   -1   24    4      6.76      0.00
    0   24    4     -1.00      0.00
  -24   25    4      4.20      0.00
  -23   25    4     -9.51      0.00
  -22   25    4     -5.11      0.00
  -21   25    4     -7.39      0.00
  -20   25    4      3.00      0.00
  -19   25    4      2.41      0.00
  -18   25    4      3.96      0.00
  -17   25    4      0.47      0.00
  -16   25    4     -5.10      0.00
  -15   25    4      4.07      0.00
  -14   25    4      5.00      0.00
  -13   25    4      7.21      0.00
  -12   25    4     -6.59      0.00
  -11   25    4     -2.40      0.00
  -10   25    4      1.59      0.00
   -9   25    4     -2.53      0.00
   -8   25    4      1.59      0.00
   -7   25    4      2.46      0.00
   -6   25    4     -0.76      0.00
   -5   25    4     -1.73      0.00
   -4   25    4     -7.98      0.00
   -3   25    4     12.46      0.00
   -2   25    4      3.48      0.00
   -1   25    4      4.77      0.00
    0   25    4     -5.45      0.00
  -25   26    4     -4.39      0.00
  -24   26    4      1.13      0.00
  -23   26    4      0.47      0.00
  -22   26    4      3.67      0.00
  -21   26    4     -7.94      0.00
  -20   26    4     -6.45      0.00
  -19   26    4      5.02      0.00
  -18   26    4      5.13      0.00
  -17   26    4     11.48      0.00
  -16   26    4     -0.37      0.00
  -15   26    4     -4.56      0.00
  -14   26    4     -6.02      0.00
  -13   26    4      2.07      0.00
  -12   26    4      5.78      0.00
  -11   26    4     -0.87      0.00
  -10   26    4     -1.72      0.00
   -9   26    4     -2.18      0.00
   -8   26    4     -1.48      0.00
   -7   26    4      4.17      0.00
   -6   26    4      0.18      0.00
   -5   26    4      3.21      0.00
   -4   26    4     -5.69      0.00
   -3   26    4      1.13      0.00
   -2   26    4     -0.43      0.00
   -1   26    4      8.80      0.00
    0   26    4     -3.94      0.00
  -26   27    4     -3.10      0.00
  -25   27    4      1.74      0.00
  -24   27    4     -3.49      0.00
  -23   27    4      5.16      0.00
  -22   27    4     -1.73      0.00
  -21   27    4      5.60      0.00
  -20   27    4     -2.32      0.00
  -19   27    4     -2.77      0.00
  -18   27    4      1.40      0.00
  -17   27    4      0.02      0.00
  -16   27    4      4.13      0.00
  -15   27    4     -0.56      0.00
  -14   27    4      1.64      0.00
  -13   27    4     -1.89      0.00
  -12   27    4     -5.41      0.00
  -11   27    4      5.23      0.00
  -10   27    4      5.72      0.00
   -9   27    4     -2.31      0.00
   -8   27    4     -1.78      0.00
   -7   27    4     -6.92      0.00
   -6   27    4      1.32      0.00
   -5   27    4     -0.31      0.00
   -4   27    4     -0.73      0.00
   -3   27    4      5.38      0.00
   -2   27    4     -3.37      0.00
   -1   27    4     -4.43      0.00
    0   27    4      1.11      0.00
  -27   28    4      7.56      0.00
  -26   28    4      1.33      0.00
  -25   28    4      4.96      0.00
  -24   28    4     -3.64      0.00
  -23   28    4      1.25      0.00
  -22   28    4     -7.80      0.00
  -21   28    4      0.06      0.00
  -20   28    4      3.62      0.00
  -19   28    4     -3.88      0.00
  -18   28    4     -3.01      0.00
  -17   28    4     -1.13      0.00
  -16   28    4      6.01      0.00
  -15   28    4      2.79      0.00
  -14   28    4      1.57      0.00
  -13   28    4     -2.04      0.00
  -12   28    4      5.67      0.00
  -11   28    4     -0.99      0.00
  -10   28    4     -3.22      0.00
   -9   28    4     -2.43      0.00
   -8   28    4      0.71      0.00
   -7   28    4     -0.81      0.00
   -6   28    4     -5.97      0.00
   -5   28    4     -0.37      0.00
   -4   28    4      9.51      0.00
   -3   28    4     -1.66      0.00
   -2   28    4      0.52      0.00
   -1   28    4     -4.12      0.00
    0   28    4      3.65      0.00
  -28   29    4     10.58      0.00
  -27   29    4      2.18      0.00
  -26   29    4     -0.48      0.00
  -25   29    4      0.40      0.00
  -24   29    4      0.08      0.00
  -23   29    4     -5.19      0.00
  -22   29    4     -1.36      0.00
  -21   29    4      1.50      0.00
  -20   29    4     -5.36      0.00
  -19   29    4     -4.37      0.00
  -18   29    4      2.07      0.00
  -17   29    4      4.17      0.00
  -16   29    4      6.14      0.00
  -15   29    4      1.15      0.00
  -14   29    4      3.07      0.00
  -13   29    4     -3.24      0.00
  -12   29    4      0.24      0.00
  -11   29    4      1.86      0.00
  -10   29    4      0.34      0.00
   -9   29    4      5.20      0.00
   -8   29    4     -5.18      0.00
   -7   29    4     -3.16      0.00
   -6   29    4      3.32      0.00
   -5   29    4     -0.62      0.00
   -4   29    4      7.84      0.00
   -3   29    4     -0.64      0.00
   -2   29    4      3.55      0.00
   -1   29    4     -5.53      0.00
    0   29    4      3.66      0.00
  -29   30    4      5.82      0.00
  -28   30    4     -0.18      0.00
  -27   30    4     -1.64      0.00
  -26   30    4      3.02      0.00
  -25   30    4     -4.36      0.00
  -24   30    4     -0.68      0.00
  -23   30    4     -0.14      0.00
  -22   30    4      5.29      0.00
  -21   30    4     -1.10      0.00
  -20   30    4      2.75      0.00
  -19   30    4     -1.19      0.00
  -18   30    4     -1.78      0.00
  -17   30    4      1.60      0.00
  -16   30    4      0.79      0.00
  -15   30    4      5.98      0.00
  -14   30    4      2.89      0.00
  -13   30    4      1.40      0.00
  -12   30    4     -1.76      0.00
  -11   30    4      1.46      0.00
  -10   30    4      6.10      0.00
   -9   30    4      1.59      0.00
   -8   30    4      2.78      0.00
   -7   30    4      1.23      0.00
   -6   30    4     -4.40      0.00
   -5   30    4     -0.17      0.00
   -4   30    4      5.44      0.00
   -3   30    4     -0.08      0.00
   -2   30    4     -1.88      0.00
   -1   30    4     -1.56      0.00
    0   30    4      5.61      0.00
  -30   31    4      3.90      0.00
  -29   31    4      0.52      0.00
  -28   31    4     -4.27      0.00
  -27   31    4     -4.27      0.00
  -26   31    4      0.78      0.00
  -25   31    4      3.61      0.00
  -24   31    4      3.18      0.00
  -23   31    4     -3.72      0.00
  -22   31    4      7.30      0.00
  -21   31    4      5.71      0.00
  -20   31    4     -3.38      0.00
  -19   31    4     -0.77      0.00
  -18   31    4      0.24      0.00
  -17   31    4      1.26      0.00
  -16   31    4     -1.85      0.00
  -15   31    4      1.61      0.00
  -14   31    4      3.15      0.00
  -13   31    4      7.23      0.00
  -12   31    4      5.10      0.00
  -11   31    4     -0.17      0.00
  -10   31    4     -0.78      0.00
   -9   31    4      3.04      0.00
   -8   31    4     -0.96      0.00
   -7   31    4     -0.71      0.00
   -6   31    4      0.37      0.00
   -5   31    4      1.88      0.00
   -4   31    4     -4.60      0.00
   -3   31    4     -1.15      0.00
   -2   31    4     -2.20      0.00
   -1   31    4      3.42      0.00
    0   31    4      7.59      0.00
  -30   32    4      3.41      0.00
  -29   32    4     -6.45      0.00
  -28   32    4    -12.66      0.00
  -27   32    4     -2.78      0.00
  -26   32    4      7.54      0.00
  -25   32    4      5.03      0.00
  -24   32    4     -3.63      0.00
  -23   32    4      3.70      0.00
  -22   32    4     -3.63      0.00
  -21   32    4     -0.97      0.00
  -20   32    4      0.91      0.00
  -19   32    4      2.17      0.00
  -18   32    4     -2.21      0.00
  -17   32    4     -3.43      0.00
  -16   32    4      2.61      0.00
  -15   32    4      5.09      0.00
  -14   32    4      2.27      0.00
  -13   32    4     -0.82      0.00
  -12   32    4     -4.27      0.00
  -11   32    4      4.84      0.00
  -10   32    4      2.24      0.00
   -9   32    4     -3.87      0.00
   -8   32    4      0.00      0.00
   -7   32    4     -3.80      0.00
   -6   32    4     -2.24      0.00
   -5   32    4      3.09      0.00
   -4   32    4      1.07      0.00
   -3   32    4      2.86      0.00
   -2   32    4     -3.88      0.00
  -28   33    4     -9.83      0.00
  -27   33    4     -2.07      0.00
  -26   33    4     -0.98      0.00
  -25   33    4      3.61      0.00
  -24   33    4      2.10      0.00
  -23   33    4     -4.87      0.00
  -22   33    4     -5.30      0.00
  -21   33    4      0.18      0.00
  -20   33    4     -0.70      0.00
  -19   33    4      0.53      0.00
  -18   33    4     -0.92      0.00
  -17   33    4     -1.23      0.00
  -16   33    4      0.02      0.00
  -15   33    4      0.49      0.00
  -14   33    4     -1.41      0.00
  -13   33    4     -1.46      0.00
  -12   33    4      1.36      0.00
  -11   33    4     -8.63      0.00
  -10   33    4     -2.77      0.00
   -9   33    4      3.79      0.00
   -8   33    4      3.67      0.00
   -7   33    4     -0.40      0.00
   -6   33    4     -2.30      0.00
   -5   33    4      1.56      0.00
  -27   34    4     -8.23      0.00
  -26   34    4      0.82      0.00
  -25   34    4     -2.45      0.00
  -24   34    4      0.16      0.00
  -23   34    4     -0.03      0.00
  -22   34    4     -1.38      0.00
  -21   34    4     -2.87      0.00
  -20   34    4      1.52      0.00
  -19   34    4      0.94      0.00
  -18   34    4     -4.51      0.00
  -17   34    4     -1.11      0.00
  -16   34    4     -2.10      0.00
  -15   34    4     -4.11      0.00
  -14   34    4     -1.38      0.00
  -13   34    4      1.32      0.00
  -12   34    4      3.18      0.00
  -11   34    4      0.67      0.00
  -10   34    4     -6.00      0.00
   -9   34    4     -3.51      0.00
   -8   34    4      2.94      0.00
   -7   34    4     10.17      0.00
  -24   35    4      2.55      0.00
  -23   35    4     -6.14      0.00
  -22   35    4     -4.50      0.00
  -21   35    4      1.26      0.00
  -20   35    4      7.12      0.00
  -19   35    4     -2.60      0.00
  -18   35    4     -6.29      0.00
  -17   35    4     -0.79      0.00
  -16   35    4     -0.01      0.00
  -15   35    4      0.93      0.00
  -14   35    4     -3.17      0.00
  -13   35    4      1.72      0.00
  -12   35    4      2.98      0.00
  -11   35    4      2.53      0.00
    0    0    5     -0.85      0.00
    0    1    5    -11.86      0.00
   -1    2    5     17.70      0.00
    0    2    5     19.52      0.00
   -2    3    5     -6.60      0.00
   -1    3    5     34.34      0.00
    0    3    5      1.73      0.00
   -3    4    5      6.02      0.00
   -2    4    5    -39.24      0.00
   -1    4    5    -25.38      0.00
    0    4    5     12.86      0.00
   -4    5    5     22.29      0.00
   -3    5    5    -36.84      0.00
   -2    5    5     -1.83      0.00
   -1    5    5     10.36      0.00
    0    5    5     12.00      0.00
   -5    6    5      5.58      0.00
   -4    6    5     22.44      0.00
   -3    6    5     -0.92      0.00
   -2    6    5     -0.36      0.00
   -1    6    5     -4.58      0.00
    0    6    5      7.37      0.00
   -6    7    5     -3.84      0.00
   -5    7    5      8.50      0.00
   -4    7    5     11.04      0.00
   -3    7    5     -8.20      0.00
   -2    7    5      4.66      0.00
   -1    7    5    -13.94      0.00
    0    7    5     -4.45      0.00
   -7    8    5    -10.30      0.00
   -6    8    5     12.75      0.00
   -5    8    5      1.54      0.00
   -4    8    5    -23.31      0.00
   -3    8    5     -4.91      0.00
   -2    8    5     -7.64      0.00
   -1    8    5     12.45      0.00
    0    8    5     -9.50      0.00
   -8    9    5      0.42      0.00
   -7    9    5     -7.40      0.00
   -6    9    5    -25.73      0.00
   -5    9    5      3.63      0.00
   -4    9    5    -14.02      0.00
   -3    9    5     19.76      0.00
   -2    9    5      5.30      0.00
   -1    9    5     -0.16      0.00
    0    9    5     -1.34      0.00
   -9   10    5      9.06      0.00
   -8   10    5     -4.71      0.00
   -7   10    5      8.77      0.00
   -6   10    5      3.65      0.00
   -5   10    5     -4.25      0.00
   -4   10    5      6.59      0.00
   -3   10    5      6.65      0.00
   -2   10    5     12.29      0.00
   -1   10    5      6.88      0.00
    0   10    5     -1.95      0.00
  -10   11    5      9.35      0.00
   -9   11    5     13.54      0.00
   -8   11    5     13.94      0.00
   -7   11    5      4.18      0.00
   -6   11    5      6.66      0.00
   -5   11    5      5.86      0.00
   -4   11    5     16.01      0.00
   -3   11    5      5.92      0.00
   -2   11    5     -6.11      0.00
   -1   11    5    -12.92      0.00
    0   11    5      7.54      0.00
  -11   12    5      2.41      0.00
  -10   12    5      8.82      0.00
   -9   12    5     21.81      0.00
   -8   12    5      6.19      0.00
   -7   12    5      3.26      0.00
   -6   12    5     -1.84      0.00
   -5   12    5     -1.93      0.00
   -4   12    5     12.52      0.00
   -3   12    5    -10.44      0.00
   -2   12    5     -3.67      0.00
   -1   12    5     -9.25      0.00
    0   12    5      2.72      0.00
  -12   13    5     -5.77      0.00
  -11   13    5      9.41      0.00
  -10   13    5      4.82      0.00
   -9   13    5     -7.65      0.00
   -8   13    5     -2.99      0.00
   -7   13    5    -13.74      0.00
   -6   13    5      9.34      0.00
   -5   13    5      4.41      0.00
   -4   13    5     -5.78      0.00
   -3   13    5     -8.88      0.00
   -2   13    5    -16.78      0.00
   -1   13    5      5.32      0.00
    0   13    5      6.63      0.00
  -13   14    5      1.21      0.00
  -12   14    5     -4.43      0.00
  -11   14    5    -12.30      0.00
  -10   14    5      5.42      0.00
   -9   14    5    -12.34      0.00
   -8   14    5     -8.44      0.00
   -7   14    5     -4.53      0.00
   -6   14    5     -3.34      0.00
   -5   14    5      7.59      0.00
   -4   14    5     -9.52      0.00
   -3   14    5      0.29      0.00
   -2   14    5      3.88      0.00
   -1   14    5      4.30      0.00
    0   14    5     -5.67      0.00
  -14   15    5      3.73      0.00
  -13   15    5     -0.81      0.00
  -12   15    5     -0.69      0.00
  -11   15    5      1.38      0.00
  -10   15    5    -11.05      0.00
   -9   15    5     -6.88      0.00
   -8   15    5     -2.01      0.00
   -7   15    5     11.22      0.00
   -6   15    5      3.95      0.00
   -5   15    5    -13.38      0.00
   -4   15    5     -6.27      0.00
   -3   15    5      9.79      0.00
   -2   15    5     12.89      0.00
   -1   15    5      8.35      0.00
    0   15    5    -14.94      0.00
  -15   16    5     -3.14      0.00
  -14   16    5     -3.82      0.00
  -13   16    5     -3.06      0.00
  -12   16    5      8.59      0.00
  -11   16    5      8.14      0.00
  -10   16    5     -0.57      0.00
   -9   16    5     -1.35      0.00
   -8   16    5      3.68      0.00
   -7   16    5      3.54      0.00
   -6   16    5     -7.42      0.00
   -5   16    5      2.64      0.00
   -4   16    5      6.64      0.00
   -3   16    5      4.57      0.00
   -2   16    5     -2.32      0.00
   -1   16    5    -11.35      0.00
    0   16    5      4.21      0.00
  -16   17    5      9.53      0.00
  -15   17    5      1.88      0.00
  -14   17    5      9.85      0.00
  -13   17    5     -4.35      0.00
  -12   17    5      4.69      0.00
  -11   17    5     -1.20      0.00
  -10   17    5     -5.10      0.00
   -9   17    5     14.43      0.00
   -8   17    5      5.34      0.00
   -7   17    5      2.13      0.00
   -6   17    5     -9.13      0.00
   -5   17    5     -7.60      0.00
   -4   17    5      9.90      0.00
   -3   17    5     -0.26      0.00
   -2   17    5     -0.14      0.00
   -1   17    5     -5.11      0.00
    0   17    5      3.16      0.00
  -17   18    5     -3.99      0.00
  -16   18    5      1.88      0.00
  -15   18    5      3.06      0.00
  -14   18    5      0.19      0.00
  -13   18    5     11.99      0.00
  -12   18    5     -1.42      0.00
  -11   18    5     -5.42      0.00
  -10   18    5     -5.63      0.00
   -9   18    5      3.45      0.00
   -8   18    5     12.66      0.00
   -7   18    5     -8.01      0.00
   -6   18    5     -1.41      0.00
   -5   18    5     -2.92      0.00
   -4   18    5     -0.02      0.00
   -3   18    5     -1.36      0.00
   -2   18    5      3.04      0.00
   -1   18    5     -1.25      0.00
    0   18    5      4.14      0.00
  -18   19    5    -10.63      0.00
  -17   19    5      5.65      0.00
  -16   19    5     -4.74      0.00
  -15   19    5      3.82      0.00
  -14   19    5     -2.26      0.00
  -13   19    5      4.12      0.00
  -12   19    5      2.39      0.00
  -11   19    5     -3.53      0.00
  -10   19    5      9.49      0.00
   -9   19    5     -0.86      0.00
   -8   19    5     -8.79      0.00
   -7   19    5     -6.23      0.00
   -6   19    5      5.16      0.00
   -5   19    5      6.87      0.00
   -4   19    5     -2.50      0.00
   -3   19    5     -6.13      0.00
   -2   19    5     -2.21      0.00
   -1   19    5      6.02      0.00
    0   19    5     -4.40      0.00
  -19   20    5      1.20      0.00
  -18   20    5     -2.79      0.00
  -17   20    5     -5.05      0.00
  -16   20    5     -3.27      0.00
  -15   20    5      0.29      0.00
  -14   20    5      6.00      0.00
  -13   20    5      4.44      0.00
  -12   20    5     -1.28      0.00
  -11   20    5      6.98      0.00
  -10   20    5      1.93      0.00
   -9   20    5     -4.60      0.00
   -8   20    5     -7.55      0.00
   -7   20    5      5.81      0.00
   -6   20    5      4.73      0.00
   -5   20    5      0.25      0.00
   -4   20    5    -14.02      0.00
   -3   20    5      2.66      0.00
   -2   20    5      4.01      0.00
   -1   20    5      5.41      0.00
    0   20    5     -6.87      0.00
  -20   21    5      0.94      0.00
  -19   21    5     -1.54      0.00
  -18   21    5      5.17      0.00
  -17   21    5      2.36      0.00
  -16   21    5     -4.14      0.00
  -15   21    5      0.33      0.00
  -14   21    5     -1.83      0.00
  -13   21    5      1.15      0.00
  -12   21    5      5.20      0.00
  -11   21    5      1.89      0.00
  -10   21    5     -0.11      0.00
   -9   21    5     -2.93      0.00
   -8   21    5     -2.51      0.00
   -7   21    5      7.12      0.00
   -6   21    5     -3.36      0.00
   -5   21    5     -1.56      0.00
   -4   21    5     -4.95      0.00
   -3   21    5      1.22      0.00
   -2   21    5      4.04      0.00
   -1   21    5      1.66      0.00
    0   21    5     -2.73      0.00
  -21   22    5      0.09      0.00
  -20   22    5      2.95      0.00
  -19   22    5      9.29      0.00
  -18   22    5      2.78      0.00
  -17   22    5     -6.07      0.00
  -16   22    5     -2.22      0.00
  -15   22    5     -5.77      0.00
  -14   22    5      5.28      0.00
  -13   22    5     -1.18      0.00
  -12   22    5      1.18      0.00
  -11   22    5     -3.76      0.00
  -10   22    5     -4.30      0.00
   -9   22    5      1.79      0.00
   -8   22    5      4.34      0.00
   -7   22    5      0.87      0.00
   -6   22    5      0.06      0.00
   -5   22    5     -3.83      0.00
   -4   22    5      1.98      0.00
   -3   22    5      0.07      0.00
   -2   22    5     -2.72      0.00
   -1   22    5     -2.85      0.00
    0   22    5     -0.87      0.00
  -22   23    5     -5.84      0.00
  -21   23    5     -7.09      0.00
  -20   23    5      4.03      0.00
  -19   23    5      0.29      0.00
  -18   23    5      5.90      0.00
  -17   23    5     -2.52      0.00
  -16   23    5      0.48      0.00
  -15   23    5     -7.59      0.00
  -14   23    5     -5.59      0.00
  -13   23    5      1.67      0.00
  -12   23    5      5.35      0.00
  -11   23    5      2.41      0.00
  -10   23    5     -2.11      0.00
   -9   23    5     -6.19      0.00
   -8   23    5      4.38      0.00
   -7   23    5      1.13      0.00
   -6   23    5      7.82      0.00
   -5   23    5     -0.96      0.00
   -4   23    5      1.09      0.00
   -3   23    5     -8.85      0.00
   -2   23    5     -5.81      0.00
   -1   23    5     -5.16      0.00
    0   23    5     10.01      0.00
  -23   24    5      0.95      0.00
  -22   24    5      1.39      0.00
  -21   24    5     -5.69      0.00
  -20   24    5     -5.52      0.00
  -19   24    5     -0.09      0.00
  -18   24    5     -0.77      0.00
  -17   24    5      9.25      0.00
  -16   24    5      3.41      0.00
  -15   24    5     -3.03      0.00
  -14   24    5     -4.80      0.00
  -13   24    5     -2.00      0.00
  -12   24    5      1.88      0.00
  -11   24    5      6.38      0.00
  -10   24    5      9.14      0.00
   -9   24    5     -0.12      0.00
   -8   24    5     -4.07      0.00
   -7   24    5     -2.29      0.00
   -6   24    5      7.88      0.00
   -5   24    5      3.39      0.00
   -4   24    5     -0.66      0.00
   -3   24    5     -8.40      0.00
   -2   24    5     -3.17      0.00
   -1   24    5      3.73      0.00
    0   24    5      5.83      0.00
  -24   25    5      0.29      0.00
  -23   25    5     -6.34      0.00
  -22   25    5    -10.95      0.00
  -21   25    5      0.46      0.00
  -20   25    5      1.62      0.00
  -19   25    5      7.16      0.00
  -18   25    5      3.90      0.00
  -17   25    5      0.26      0.00
  -16   25    5     -7.10      0.00
  -15   25    5      3.87      0.00
  -14   25    5      3.71      0.00
  -13   25    5      1.74      0.00
  -12   25    5     -0.58      0.00
  -11   25    5      7.71      0.00
  -10   25    5      3.33      0.00
   -9   25    5     -0.39      0.00
   -8   25    5     -1.40      0.00
   -7   25    5      2.44      0.00
   -6   25    5      0.03      0.00
   -5   25    5      3.80      0.00
   -4   25    5     -1.28      0.00
   -3   25    5      3.60      0.00
   -2   25    5      1.80      0.00
   -1   25    5     -3.43      0.00
    0   25    5     -0.48      0.00
  -25   26    5      1.92      0.00
  -24   26    5     -0.30      0.00
  -23   26    5     -0.27      0.00
  -22   26    5      3.04      0.00
  -21   26    5     -5.13      0.00
  -20   26    5     -4.58      0.00
  -19   26    5      1.20      0.00
  -18   26    5      7.05      0.00
  -17   26    5      5.41      0.00
  -16   26    5     -8.69      0.00
  -15   26    5     -5.75      0.00
  -14   26    5     -7.04      0.00
  -13   26    5      7.04      0.00
  -12   26    5      9.81      0.00
  -11   26    5      5.45      0.00
  -10   26    5     -3.34      0.00
   -9   26    5     -4.23      0.00
   -8   26    5     -5.98      0.00
   -7   26    5      1.89      0.00
   -6   26    5      1.68      0.00
   -5   26    5      8.81      0.00
   -4   26    5      1.67      0.00
   -3   26    5     -0.25      0.00
   -2   26    5     -6.19      0.00
   -1   26    5      5.56      0.00
    0   26    5     -5.55      0.00
  -26   27    5      0.49      0.00
  -25   27    5     -3.26      0.00
  -24   27    5     -5.32      0.00
  -23   27    5      5.65      0.00
  -22   27    5      8.45      0.00
  -21   27    5      2.30      0.00
  -20   27    5     -9.41      0.00
  -19   27    5     -7.38      0.00
  -18   27    5      1.06      0.00
  -17   27    5     -1.70      0.00
  -16   27    5     -0.93      0.00
  -15   27    5     -2.68      0.00
  -14   27    5     -3.75      0.00
  -13   27    5     -4.34      0.00
  -12   27    5      0.43      0.00
  -11   27    5      4.21      0.00
  -10   27    5     -0.25      0.00
   -9   27    5      0.05      0.00
   -8   27    5     -5.85      0.00
   -7   27    5     -3.93      0.00
   -6   27    5     -1.13      0.00
   -5   27    5      5.97      0.00
   -4   27    5      4.17      0.00
   -3   27    5      2.92      0.00
   -2   27    5     -4.01      0.00
   -1   27    5     -1.28      0.00
    0   27    5      2.15      0.00
  -27   28    5      3.57      0.00
  -26   28    5      1.58      0.00
  -25   28    5      3.24      0.00
  -24   28    5     -0.96      0.00
  -23   28    5      5.01      0.00
  -22   28    5     -2.96      0.00
  -21   28    5     -4.07      0.00
  -20   28    5      3.54      0.00
  -19   28    5      0.11      0.00
  -18   28    5     -4.24      0.00
  -17   28    5     -8.88      0.00
  -16   28    5      5.12      0.00
  -15   28    5     -3.87      0.00
  -14   28    5     -0.71      0.00
  -13   28    5     -0.18      0.00
  -12   28    5      0.35      0.00
  -11   28    5     -3.72      0.00
  -10   28    5     -1.21      0.00
   -9   28    5      1.55      0.00
   -8   28    5      0.02      0.00
   -7   28    5     -4.68      0.00
   -6   28    5      0.09      0.00
   -5   28    5      1.21      0.00
   -4   28    5     12.28      0.00
   -3   28    5     -1.14      0.00
   -2   28    5     -2.82      0.00
   -1   28    5     -2.02      0.00
    0   28    5      0.57      0.00
  -28   29    5      6.15      0.00
  -27   29    5      0.85      0.00
  -26   29    5      1.08      0.00
  -25   29    5     -1.41      0.00
  -24   29    5      8.44      0.00
  -23   29    5      0.17      0.00
  -22   29    5      0.82      0.00
  -21   29    5     -3.58      0.00
  -20   29    5     -0.14      0.00
  -19   29    5      2.76      0.00
  -18   29    5      4.64      0.00
  -17   29    5     -0.25      0.00
  -16   29    5     -1.43      0.00
  -15   29    5     -4.91      0.00
  -14   29    5      4.49      0.00
  -13   29    5      0.39      0.00
  -12   29    5      3.50      0.00
  -11   29    5      1.73      0.00
  -10   29    5      4.66      0.00
   -9   29    5     -1.87      0.00
   -8   29    5     -2.90      0.00
   -7   29    5     -4.07      0.00
   -6   29    5      6.27      0.00
   -5   29    5      6.64      0.00
   -4   29    5      2.42      0.00
   -3   29    5      0.21      0.00
   -2   29    5      0.05      0.00
   -1   29    5     -5.06      0.00
    0   29    5      1.49      0.00
  -29   30    5      0.02      0.00
  -28   30    5      2.65      0.00
  -27   30    5      0.56      0.00
  -26   30    5      4.89      0.00
  -25   30    5     -2.84      0.00
  -24   30    5      3.90      0.00
  -23   30    5     -0.09      0.00
  -22   30    5     -0.31      0.00
  -21   30    5      2.23      0.00
  -20   30    5      6.02      0.00
  -19   30    5      2.88      0.00
  -18   30    5     -5.19      0.00
  -17   30    5      1.02      0.00
  -16   30    5      3.47      0.00
  -15   30    5      8.16      0.00
  -14   30    5      2.21      0.00
  -13   30    5      0.92      0.00
  -12   30    5      0.79      0.00
  -11   30    5      2.93      0.00
  -10   30    5      3.46      0.00
   -9   30    5      2.47      0.00
   -8   30    5      2.90      0.00
   -7   30    5      1.08      0.00
   -6   30    5     -3.50      0.00
   -5   30    5     -1.16      0.00
   -4   30    5      0.99      0.00
   -3   30    5      1.20      0.00
   -2   30    5      6.35      0.00
   -1   30    5     -2.59      0.00
    0   30    5     -0.46      0.00
  -29   31    5      2.69      0.00
  -28   31    5      0.03      0.00
  -27   31    5      1.49      0.00
  -26   31    5     -3.38      0.00
  -25   31    5      2.89      0.00
  -24   31    5     -3.02      0.00
  -23   31    5      0.12      0.00
  -22   31    5      2.83      0.00
  -21   31    5      6.34      0.00
  -20   31    5     -3.34      0.00
  -19   31    5     -2.65      0.00
  -18   31    5      0.68      0.00
  -17   31    5      7.00      0.00
  -16   31    5     -1.73      0.00
  -15   31    5      6.04      0.00
  -14   31    5      2.32      0.00
  -13   31    5      6.10      0.00
  -12   31    5      1.11      0.00
  -11   31    5     -1.45      0.00
  -10   31    5      1.48      0.00
   -9   31    5      1.03      0.00
   -8   31    5      0.02      0.00
   -7   31    5     -2.13      0.00
   -6   31    5      2.54      0.00
   -5   31    5      0.51      0.00
   -4   31    5     -2.68      0.00
   -3   31    5      0.01      0.00
   -2   31    5      0.72      0.00
  -28   32    5     -5.21      0.00
  -27   32    5      0.58      0.00
  -26   32    5     -1.56      0.00
  -25   32    5      0.36      0.00
  -24   32    5     -5.05      0.00
  -23   32    5      5.20      0.00
  -22   32    5      0.07      0.00
  -21   32    5      0.60      0.00
  -20   32    5     -0.12      0.00
  -19   32    5      1.12      0.00
  -18   32    5     -0.27      0.00
  -17   32    5     -1.17      0.00
  -16   32    5      1.64      0.00
  -15   32    5      1.92      0.00
  -14   32    5      3.39      0.00
  -13   32    5      0.54      0.00
  -12   32    5     -1.39      0.00
  -11   32    5      0.89      0.00
  -10   32    5      3.06      0.00
   -9   32    5      2.11      0.00
   -8   32    5     -2.40      0.00
   -7   32    5     -2.00      0.00
   -6   32    5     -4.88      0.00
   -5   32    5      3.47      0.00
   -4   32    5      4.10      0.00
  -26   33    5     -1.28      0.00
  -25   33    5      1.60      0.00
  -24   33    5      2.96      0.00
  -23   33    5     -0.14      0.00
  -22   33    5     -0.34      0.00
  -21   33    5      0.98      0.00
  -20   33    5      2.90      0.00
  -19   33    5      0.10      0.00
  -18   33    5     -1.03      0.00
  -17   33    5     -3.95      0.00
  -16   33    5      0.28      0.00
  -15   33    5     -1.81      0.00
  -14   33    5      3.60      0.00
  -13   33    5      2.69      0.00
  -12   33    5     -3.29      0.00
  -11   33    5     -1.49      0.00
  -10   33    5      2.38      0.00
   -9   33    5      9.57      0.00
   -8   33    5      0.61      0.00
   -7   33    5     -1.45      0.00
  -24   34    5      5.99      0.00
  -23   34    5      0.46      0.00
  -22   34    5      3.83      0.00
  -21   34    5     -1.24      0.00
  -20   34    5     -1.64      0.00
  -19   34    5      0.63      0.00
  -18   34    5      0.17      0.00
  -17   34    5     -2.83      0.00
  -16   34    5     -3.63      0.00
  -15   34    5     -0.41      0.00
  -14   34    5      3.68      0.00
  -13   34    5     -1.00      0.00
  -12   34    5      1.31      0.00
  -11   34    5      5.28      0.00
  -10   34    5      3.32      0.00
  -19   35    5     -0.28      0.00
  -18   35    5     -2.89      0.00
  -17   35    5     -3.41      0.00
  -16   35    5     -1.05      0.00
    0    0    6    103.22      0.00
    0    1    6     -4.78      0.00
   -1    2    6      3.86      0.00
    0    2    6    -15.75      0.00
   -2    3    6    -12.72      0.00
   -1    3    6     22.86      0.00
    0    3    6    -24.78      0.00
   -3    4    6     21.06      0.00
   -2    4    6      0.43      0.00
   -1    4    6      7.84      0.00
    0    4    6    -18.64      0.00
   -4    5    6     -2.81      0.00
   -3    5    6     -2.73      0.00
   -2    5    6     17.83      0.00
   -1    5    6     -6.27      0.00
    0    5    6      9.63      0.00
   -5    6    6    -14.29      0.00
   -4    6    6     -5.54      0.00
   -3    6    6    -10.59      0.00
   -2    6    6     14.12      0.00
   -1    6    6     -6.23      0.00
    0    6    6     25.97      0.00
   -6    7    6      6.03      0.00
   -5    7    6     -2.93      0.00
   -4    7    6     -4.33      0.00
   -3    7    6    -14.02      0.00
   -2    7    6      2.00      0.00
   -1    7    6      3.64      0.00
    0    7    6     20.28      0.00
   -7    8    6      8.88      0.00
   -6    8    6      6.71      0.00
   -5    8    6      1.99      0.00
   -4    8    6      8.61      0.00
   -3    8    6     -0.92      0.00
   -2    8    6    -10.60      0.00
   -1    8    6      2.65      0.00
    0    8    6    -14.40      0.00
   -8    9    6      8.91      0.00
   -7    9    6     -7.76      0.00
   -6    9    6     -5.26      0.00
   -5    9    6     10.09      0.00
   -4    9    6      3.83      0.00
   -3    9    6      8.72      0.00
   -2    9    6    -19.81      0.00
   -1    9    6      1.63      0.00
    0    9    6     -6.57      0.00
   -9   10    6      4.81      0.00
   -8   10    6     -0.58      0.00
   -7   10    6     -1.00      0.00
   -6   10    6     -4.40      0.00
   -5   10    6      8.73      0.00
   -4   10    6      2.01      0.00
   -3   10    6      4.42      0.00
   -2   10    6     -3.26      0.00
   -1   10    6      0.13      0.00
    0   10    6     -2.40      0.00
  -10   11    6      2.39      0.00
   -9   11    6      6.39      0.00
   -8   11    6      0.44      0.00
   -7   11    6    -11.54      0.00
   -6   11    6     -4.24      0.00
   -5   11    6     10.33      0.00
   -4   11    6     15.78      0.00
   -3   11    6      9.84      0.00
   -2   11    6      3.54      0.00
   -1   11    6    -17.54      0.00
    0   11    6      3.19      0.00
  -11   12    6     -4.55      0.00
  -10   12    6     12.08      0.00
   -9   12    6      5.51      0.00
   -8   12    6     -0.59      0.00
   -7   12    6     -0.16      0.00
   -6   12    6     -3.39      0.00
   -5   12    6      3.54      0.00
   -4   12    6      8.45      0.00
   -3   12    6     -5.24      0.00
   -2   12    6     11.26      0.00
   -1   12    6     -9.28      0.00
    0   12    6      0.90      0.00
  -12   13    6     -1.52      0.00
  -11   13    6     12.08      0.00
  -10   13    6      5.76      0.00
   -9   13    6      2.17      0.00
   -8   13    6     -1.25      0.00
   -7   13    6      0.07      0.00
   -6   13    6      0.39      0.00
   -5   13    6     -7.55      0.00
   -4   13    6      1.62      0.00
   -3   13    6      2.63      0.00
   -2   13    6     -1.08      0.00
   -1   13    6     -1.33      0.00
    0   13    6     -2.75      0.00
  -13   14    6     -1.10      0.00
  -12   14    6     -8.29      0.00
  -11   14    6     -1.57      0.00
  -10   14    6      2.11      0.00
   -9   14    6      4.77      0.00
   -8   14    6      7.31      0.00
   -7   14    6     -8.45      0.00
   -6   14    6     -6.11      0.00
   -5   14    6     -0.73      0.00
   -4   14    6      4.14      0.00
   -3   14    6      7.45      0.00
   -2   14    6     -0.75      0.00
   -1   14    6      3.44      0.00
    0   14    6     -8.36      0.00
  -14   15    6      2.01      0.00
  -13   15    6      2.37      0.00
  -12   15    6      0.05      0.00
  -11   15    6    -10.24      0.00
  -10   15    6    -13.26      0.00
   -9   15    6      0.10      0.00
   -8   15    6      8.21      0.00
   -7   15    6      7.92      0.00
   -6   15    6      6.12      0.00
   -5   15    6     -4.06      0.00
   -4   15    6    -10.24      0.00
   -3   15    6      7.57      0.00
   -2   15    6     -0.44      0.00
   -1   15    6     18.25      0.00
    0   15    6     -7.72      0.00
  -15   16    6     -9.94      0.00
  -14   16    6     -0.26      0.00
  -13   16    6      4.58      0.00
  -12   16    6      1.44      0.00
  -11   16    6     -4.91      0.00
  -10   16    6     -4.94      0.00
   -9   16    6      1.82      0.00
   -8   16    6      1.98      0.00
   -7   16    6      5.14      0.00
   -6   16    6     -0.29      0.00
   -5   16    6      7.75      0.00
   -4   16    6     -7.00      0.00
   -3   16    6     -3.41      0.00
   -2   16    6     -0.57      0.00
   -1   16    6     -0.47      0.00
    0   16    6      2.39      0.00
  -16   17    6    -12.11      0.00
  -15   17    6     -7.14      0.00
  -14   17    6     12.10      0.00
  -13   17    6      8.76      0.00
  -12   17    6      1.99      0.00
  -11   17    6     -8.74      0.00
  -10   17    6      1.80      0.00
   -9   17    6      3.62      0.00
   -8   17    6     -1.90      0.00
   -7   17    6      0.28      0.00
   -6   17    6      0.35      0.00
   -5   17    6     -4.54      0.00
   -4   17    6      2.94      0.00
   -3   17    6     -3.74      0.00
   -2   17    6      6.66      0.00
   -1   17    6    -10.67      0.00
    0   17    6     -4.37      0.00
  -17   18    6     -2.45      0.00
  -16   18    6     -2.24      0.00
  -15   18    6     -1.55      0.00
  -14   18    6      2.01      0.00
  -13   18    6      0.86      0.00
  -12   18    6      2.46      0.00
  -11   18    6      4.22      0.00
  -10   18    6     -0.07      0.00
   -9   18    6    -10.87      0.00
   -8   18    6      1.51      0.00
   -7   18    6      4.78      0.00
   -6   18    6      5.45      0.00
   -5   18    6     -7.38      0.00
   -4   18    6     -0.55      0.00
   -3   18    6     -2.78      0.00
   -2   18    6      4.94      0.00
   -1   18    6     -1.52      0.00
    0   18    6      5.67      0.00
  -18   19    6      3.61      0.00
  -17   19    6      2.94      0.00
  -16   19    6     -5.47      0.00
  -15   19    6      2.73      0.00
  -14   19    6     -8.52      0.00
  -13   19    6     -3.43      0.00
  -12   19    6      1.53      0.00
  -11   19    6      8.87      0.00
  -10   19    6     -0.39      0.00
   -9   19    6     -2.74      0.00
   -8   19    6     -1.56      0.00
   -7   19    6      3.28      0.00
   -6   19    6      4.93      0.00
   -5   19    6     -4.52      0.00
   -4   19    6      1.26      0.00
   -3   19    6     -4.55      0.00
   -2   19    6      2.48      0.00
   -1   19    6      5.36      0.00
    0   19    6      3.52      0.00
  -19   20    6     11.32      0.00
  -18   20    6      0.47      0.00
  -17   20    6      1.48      0.00
  -16   20    6     -6.94      0.00
  -15   20    6     -5.11      0.00
  -14   20    6     -6.43      0.00
  -13   20    6      2.72      0.00
  -12   20    6      4.03      0.00
  -11   20    6      8.54      0.00
  -10   20    6     -2.47      0.00
   -9   20    6     -0.32      0.00
   -8   20    6      1.48      0.00
   -7   20    6      1.14      0.00
   -6   20    6     -4.04      0.00
   -5   20    6     -1.92      0.00
   -4   20    6     -0.84      0.00
   -3   20    6      7.83      0.00
   -2   20    6     -6.89      0.00
   -1   20    6      4.08      0.00
    0   20    6     -3.17      0.00
  -20   21    6     -1.63      0.00
  -19   21    6     -6.21      0.00
  -18   21    6     -0.49      0.00
  -17   21    6      4.34      0.00
  -16   21    6      3.27      0.00
  -15   21    6     -3.93      0.00
  -14   21    6     -5.09      0.00
  -13   21    6      0.88      0.00
  -12   21    6      8.61      0.00
  -11   21    6      2.94      0.00
  -10   21    6      0.82      0.00
   -9   21    6      2.89      0.00
   -8   21    6     -5.22      0.00
   -7   21    6     -1.17      0.00
   -6   21    6     -8.37      0.00
   -5   21    6     11.07      0.00
   -4   21    6     -1.59      0.00
   -3   21    6     -1.27      0.00
   -2   21    6     -7.56      0.00
   -1   21    6     -3.95      0.00
    0   21    6      0.82      0.00
  -21   22    6     -3.25      0.00
  -20   22    6     -0.71      0.00
  -19   22    6     -2.46      0.00
  -18   22    6      4.73      0.00
  -17   22    6      1.93      0.00
  -16   22    6      0.91      0.00
  -15   22    6     -7.12      0.00
  -14   22    6      3.86      0.00
  -13   22    6      2.23      0.00
  -12   22    6      1.37      0.00
  -11   22    6     -0.36      0.00
  -10   22    6      2.67      0.00
   -9   22    6      4.14      0.00
   -8   22    6      2.93      0.00
   -7   22    6     -2.15      0.00
   -6   22    6     -1.02      0.00
   -5   22    6      0.19      0.00
   -4   22    6     -3.53      0.00
   -3   22    6     -3.56      0.00
   -2   22    6     -1.95      0.00
   -1   22    6      2.23      0.00
    0   22    6      1.96      0.00
  -22   23    6     -3.66      0.00
  -21   23    6     -1.50      0.00
  -20   23    6     -2.72      0.00
  -19   23    6     -1.34      0.00
  -18   23    6      9.12      0.00
  -17   23    6      0.05      0.00
  -16   23    6     -0.78      0.00
  -15   23    6     -7.91      0.00
  -14   23    6     -5.06      0.00
  -13   23    6     -0.70      0.00
  -12   23    6      8.33      0.00
  -11   23    6      2.42      0.00
  -10   23    6      5.48      0.00
   -9   23    6     -1.53      0.00
   -8   23    6      5.18      0.00
   -7   23    6     -1.77      0.00
   -6   23    6     -0.21      0.00
   -5   23    6     -3.85      0.00
   -4   23    6     -1.15      0.00
   -3   23    6     -2.74      0.00
   -2   23    6      7.01      0.00
   -1   23    6     -2.03      0.00
    0   23    6      5.60      0.00
  -23   24    6      0.36      0.00
  -22   24    6      5.65      0.00
  -21   24    6      4.31      0.00
  -20   24    6     -2.89      0.00
  -19   24    6     -3.37      0.00
  -18   24    6     -2.69      0.00
  -17   24    6     -0.35      0.00
  -16   24    6      2.00      0.00
  -15   24    6     -0.56      0.00
  -14   24    6     -0.80      0.00
  -13   24    6     -5.36      0.00
  -12   24    6      0.08      0.00
  -11   24    6      3.79      0.00
  -10   24    6      4.06      0.00
   -9   24    6      1.71      0.00
   -8   24    6     -3.41      0.00
   -7   24    6     -4.85      0.00
   -6   24    6      2.73      0.00
   -5   24    6     -6.43      0.00
   -4   24    6      5.17      0.00
   -3   24    6     -3.88      0.00
   -2   24    6      3.24      0.00
   -1   24    6      3.98      0.00
    0   24    6     -3.85      0.00
  -24   25    6      0.39      0.00
  -23   25    6     -2.89      0.00
  -22   25    6     -0.95      0.00
  -21   25    6     -0.45      0.00
  -20   25    6      0.54      0.00
  -19   25    6      5.60      0.00
  -18   25    6     -3.64      0.00
  -17   25    6     -4.63      0.00
  -16   25    6     -2.67      0.00
  -15   25    6     10.05      0.00
  -14   25    6      3.70      0.00
  -13   25    6      2.40      0.00
  -12   25    6     -7.94      0.00
  -11   25    6     -7.80      0.00
  -10   25    6     -5.91      0.00
   -9   25    6      0.46      0.00
   -8   25    6      4.54      0.00
   -7   25    6      3.38      0.00
   -6   25    6     -2.52      0.00
   -5   25    6     -5.29      0.00
   -4   25    6     -5.94      0.00
   -3   25    6      4.15      0.00
   -2   25    6      1.48      0.00
   -1   25    6     -0.32      0.00
    0   25    6     -2.89      0.00
  -25   26    6     -0.10      0.00
  -24   26    6      0.04      0.00
  -23   26    6      0.88      0.00
  -22   26    6     -0.42      0.00
  -21   26    6     -5.89      0.00
  -20   26    6     -1.20      0.00
  -19   26    6      4.42      0.00
  -18   26    6     -0.28      0.00
  -17   26    6     11.17      0.00
  -16   26    6     -0.54      0.00
  -15   26    6     -1.26      0.00
  -14   26    6     -3.69      0.00
  -13   26    6      5.90      0.00
  -12   26    6     -2.27      0.00
  -11   26    6     -6.17      0.00
  -10   26    6     -6.37      0.00
   -9   26    6      3.41      0.00
   -8   26    6      1.82      0.00
   -7   26    6      4.88      0.00
   -6   26    6     -4.39      0.00
   -5   26    6      0.90      0.00
   -4   26    6      0.03      0.00
   -3   26    6      0.85      0.00
   -2   26    6     -1.99      0.00
   -1   26    6      2.62      0.00
    0   26    6     -0.95      0.00
  -26   27    6     -2.14      0.00
  -25   27    6     -0.04      0.00
  -24   27    6     -0.43      0.00
  -23   27    6      1.62      0.00
  -22   27    6     -1.38      0.00
  -21   27    6      1.10      0.00
  -20   27    6     -0.74      0.00
  -19   27    6     -1.20      0.00
  -18   27    6      1.78      0.00
  -17   27    6      1.77      0.00
  -16   27    6      1.54      0.00
  -15   27    6      3.79      0.00
  -14   27    6      2.16      0.00
  -13   27    6     -0.84      0.00
  -12   27    6     -4.59      0.00
  -11   27    6      0.75      0.00
  -10   27    6      3.64      0.00
   -9   27    6      4.45      0.00
   -8   27    6      3.73      0.00
   -7   27    6     -3.96      0.00
   -6   27    6      0.56      0.00
   -5   27    6      6.04      0.00
   -4   27    6     -0.45      0.00
   -3   27    6      4.03      0.00
   -2   27    6     -2.33      0.00
   -1   27    6      0.05      0.00
    0   27    6      4.60      0.00
  -27   28    6      4.25      0.00
  -26   28    6      3.10      0.00
  -25   28    6      3.32      0.00
  -24   28    6     -0.62      0.00
  -23   28    6     -2.80      0.00
  -22   28    6     -2.54      0.00
  -21   28    6      3.19      0.00
  -20   28    6      4.95      0.00
  -19   28    6     -7.64      0.00
  -18   28    6     -4.80      0.00
  -17   28    6     -2.95      0.00
  -16   28    6      6.97      0.00
  -15   28    6      2.30      0.00
  -14   28    6      7.46      0.00
  -13   28    6     -0.31      0.00
  -12   28    6      1.03      0.00
  -11   28    6     -4.27      0.00
  -10   28    6      2.81      0.00
   -9   28    6      2.42      0.00
   -8   28    6      0.62      0.00
   -7   28    6      2.43      0.00
   -6   28    6      0.61      0.00
   -5   28    6      4.41      0.00
   -4   28    6      2.24      0.00
   -3   28    6     -2.72      0.00
   -2   28    6     -2.76      0.00
   -1   28    6      0.21      0.00
    0   28    6      7.08      0.00
  -28   29    6      3.73      0.00
  -27   29    6     -3.93      0.00
  -26   29    6      4.06      0.00
  -25   29    6      4.10      0.00
  -24   29    6      6.97      0.00
  -23   29    6     -1.95      0.00
  -22   29    6     -0.71      0.00
  -21   29    6     -2.62      0.00
  -20   29    6     -3.76      0.00
  -19   29    6     -2.70      0.00
  -18   29    6      6.12      0.00
  -17   29    6     -1.17      0.00
  -16   29    6      0.89      0.00
  -15   29    6     -0.71      0.00
  -14   29    6      4.70      0.00
  -13   29    6     -2.36      0.00
  -12   29    6     -0.03      0.00
  -11   29    6      0.84      0.00
  -10   29    6      0.25      0.00
   -9   29    6     -0.34      0.00
   -8   29    6     -1.84      0.00
   -7   29    6      0.12      0.00
   -6   29    6      2.90      0.00
   -5   29    6     -4.17      0.00
   -4   29    6      0.58      0.00
   -3   29    6     -4.97      0.00
   -2   29    6      2.72      0.00
   -1   29    6     -1.90      0.00
    0   29    6      0.96      0.00
  -28   30    6      0.38      0.00
  -27   30    6     -0.19      0.00
  -26   30    6      3.85      0.00
  -25   30    6      1.79      0.00
  -24   30    6      3.80      0.00
  -23   30    6      2.77      0.00
  -22   30    6      2.03      0.00
  -21   30    6     -5.00      0.00
  -20   30    6     -0.24      0.00
  -19   30    6      5.22      0.00
  -18   30    6      3.18      0.00
  -17   30    6      0.74      0.00
  -16   30    6     -1.03      0.00
  -15   30    6      0.46      0.00
  -14   30    6     -4.22      0.00
  -13   30    6     -1.62      0.00
  -12   30    6     -0.39      0.00
  -11   30    6      3.10      0.00
  -10   30    6      5.24      0.00
   -9   30    6     -3.06      0.00
   -8   30    6      0.74      0.00
   -7   30    6      0.64      0.00
   -6   30    6     -1.54      0.00
   -5   30    6     -7.71      0.00
   -4   30    6     -4.98      0.00
   -3   30    6     -3.70      0.00
   -2   30    6     -2.49      0.00
  -27   31    6      3.71      0.00
  -26   31    6      2.92      0.00
  -25   31    6      5.98      0.00
  -24   31    6      0.51      0.00
  -23   31    6      2.40      0.00
  -22   31    6      1.80      0.00
  -21   31    6      2.38      0.00
  -20   31    6      0.36      0.00
  -19   31    6      3.34      0.00
  -18   31    6      0.96      0.00
  -17   31    6      1.80      0.00
  -16   31    6     -3.68      0.00
  -15   31    6      1.16      0.00
  -14   31    6     -1.61      0.00
  -13   31    6      3.05      0.00
  -12   31    6      1.14      0.00
  -11   31    6      5.84      0.00
  -10   31    6      2.55      0.00
   -9   31    6      3.49      0.00
   -8   31    6      1.88      0.00
   -7   31    6      0.28      0.00
   -6   31    6     -3.64      0.00
   -5   31    6     -3.38      0.00
   -4   31    6     -6.88      0.00
  -26   32    6     -2.11      0.00
  -25   32    6      4.74      0.00
  -24   32    6      1.42      0.00
  -23   32    6      5.76      0.00
  -22   32    6     -2.30      0.00
  -21   32    6      1.03      0.00
  -20   32    6      0.99      0.00
  -19   32    6      3.98      0.00
  -18   32    6     -0.02      0.00
  -17   32    6     -1.57      0.00
  -16   32    6     -1.73      0.00
  -15   32    6      2.05      0.00
  -14   32    6      0.37      0.00
  -13   32    6      3.25      0.00
  -12   32    6      1.88      0.00
  -11   32    6      8.04      0.00
  -10   32    6      3.12      0.00
   -9   32    6      6.64      0.00
   -8   32    6      5.91      0.00
   -7   32    6     -4.28      0.00
  -23   33    6     -0.20      0.00
  -22   33    6     -0.45      0.00
  -21   33    6      2.59      0.00
  -20   33    6      0.42      0.00
  -19   33    6     -1.65      0.00
  -18   33    6      0.94      0.00
  -17   33    6      1.83      0.00
  -16   33    6      2.61      0.00
  -15   33    6     -6.72      0.00
  -14   33    6     -4.41      0.00
  -13   33    6      0.05      0.00
  -12   33    6      8.23      0.00
  -11   33    6      3.04      0.00
  -10   33    6      5.16      0.00
  -17   34    6     -2.65      0.00
    0    0    7    -20.68      0.00
    0    1    7    -19.03      0.00
   -1    2    7      6.10      0.00
    0    2    7     10.46      0.00
   -2    3    7     -2.08      0.00
   -1    3    7     20.76      0.00
    0    3    7      6.98      0.00
   -3    4    7      3.45      0.00
   -2    4    7    -22.46      0.00
   -1    4    7    -10.76      0.00
    0    4    7      9.24      0.00
   -4    5    7      0.47      0.00
   -3    5    7    -29.60      0.00
   -2    5    7     -0.33      0.00
   -1    5    7      9.34      0.00
    0    5    7      2.38      0.00
   -5    6    7     -8.93      0.00
   -4    6    7      6.06      0.00
   -3    6    7     -0.45      0.00
   -2    6    7     -0.48      0.00
   -1    6    7     -2.01      0.00
    0    6    7     -8.81      0.00
   -6    7    7     -7.22      0.00
   -5    7    7     -3.75      0.00
   -4    7    7      7.27      0.00
   -3    7    7      8.68      0.00
   -2    7    7      9.21      0.00
   -1    7    7    -16.79      0.00
    0    7    7    -13.78      0.00
   -7    8    7     -1.67      0.00
   -6    8    7     11.46      0.00
   -5    8    7     -0.66      0.00
   -4    8    7     -1.80      0.00
   -3    8    7      8.23      0.00
   -2    8    7     -6.69      0.00
   -1    8    7     -0.31      0.00
    0    8    7     -2.71      0.00
   -8    9    7      7.84      0.00
   -7    9    7      3.12      0.00
   -6    9    7    -11.92      0.00
   -5    9    7      8.29      0.00
   -4    9    7     -2.75      0.00
   -3    9    7      6.63      0.00
   -2    9    7     -5.60      0.00
   -1    9    7     -5.74      0.00
    0    9    7      5.91      0.00
   -9   10    7      9.74      0.00
   -8   10    7     -5.72      0.00
   -7   10    7      4.36      0.00
   -6   10    7     -0.20      0.00
   -5   10    7     -0.96      0.00
   -4   10    7      1.91      0.00
   -3   10    7    -11.74      0.00
   -2   10    7     -0.01      0.00
   -1   10    7      7.41      0.00
    0   10    7     -0.04      0.00
  -10   11    7     -3.02      0.00
   -9   11    7      0.61      0.00
   -8   11    7      0.22      0.00
   -7   11    7     -0.76      0.00
   -6   11    7      0.54      0.00
   -5   11    7     -0.52      0.00
   -4   11    7     -1.25      0.00
   -3   11    7     -3.85      0.00
   -2   11    7      1.52      0.00
   -1   11    7     -2.81      0.00
    0   11    7     -5.29      0.00
  -11   12    7     -9.77      0.00
  -10   12    7     -6.68      0.00
   -9   12    7      3.90      0.00
   -8   12    7     -0.61      0.00
   -7   12    7      6.33      0.00
   -6   12    7      1.73      0.00
   -5   12    7     -7.71      0.00
   -4   12    7     -1.82      0.00
   -3   12    7     -4.14      0.00
   -2   12    7      5.29      0.00
   -1   12    7     -7.80      0.00
    0   12    7     -5.46      0.00
  -12   13    7     -3.41      0.00
  -11   13    7      2.34      0.00
  -10   13    7      1.30      0.00
   -9   13    7     -6.30      0.00
   -8   13    7      6.85      0.00
   -7   13    7     -1.46      0.00
   -6   13    7      5.16      0.00
   -5   13    7     -5.96      0.00
   -4   13    7     -3.80      0.00
   -3   13    7      4.72      0.00
   -2   13    7     -6.65      0.00
   -1   13    7     -7.81      0.00
    0   13    7      5.68      0.00
  -13   14    7      8.22      0.00
  -12   14    7      8.33      0.00
  -11   14    7     -0.72      0.00
  -10   14    7      5.63      0.00
   -9   14    7     -3.04      0.00
   -8   14    7      3.82      0.00
   -7   14    7     -1.22      0.00
   -6   14    7    -10.90      0.00
   -5   14    7      2.33      0.00
   -4   14    7      1.84      0.00
   -3   14    7      8.83      0.00
   -2   14    7      0.33      0.00
   -1   14    7     -2.96      0.00
    0   14    7     -1.07      0.00
  -14   15    7      4.47      0.00
  -13   15    7      7.62      0.00
  -12   15    7      0.78      0.00
  -11   15    7      2.21      0.00
  -10   15    7     -4.29      0.00
   -9   15    7      1.75      0.00
   -8   15    7      1.09      0.00
   -7   15    7      3.60      0.00
   -6   15    7     -2.71      0.00
   -5   15    7     -1.54      0.00
   -4   15    7      0.83      0.00
   -3   15    7      7.09      0.00
   -2   15    7      1.24      0.00
   -1   15    7      4.79      0.00
    0   15    7     -6.40      0.00
  -15   16    7     -4.52      0.00
  -14   16    7     -4.05      0.00
  -13   16    7     -5.76      0.00
  -12   16    7     -0.42      0.00
  -11   16    7      0.10      0.00
  -10   16    7      5.13      0.00
   -9   16    7      2.46      0.00
   -8   16    7      0.53      0.00
   -7   16    7      0.62      0.00
   -6   16    7     -1.32      0.00
   -5   16    7     10.47      0.00
   -4   16    7      2.40      0.00
   -3   16    7     -3.49      0.00
   -2   16    7     -7.44      0.00
   -1   16    7     -3.30      0.00
    0   16    7     -1.49      0.00
  -16   17    7     -2.34      0.00
  -15   17    7     -7.97      0.00
  -14   17    7      0.18      0.00
  -13   17    7     -8.12      0.00
  -12   17    7      3.09      0.00
  -11   17    7      1.05      0.00
  -10   17    7     -0.25      0.00
   -9   17    7      7.58      0.00
   -8   17    7      1.78      0.00
   -7   17    7      0.76      0.00
   -6   17    7     -0.28      0.00
   -5   17    7     -5.56      0.00
   -4   17    7      0.53      0.00
   -3   17    7     -1.95      0.00
   -2   17    7      1.71      0.00
   -1   17    7     -2.10      0.00
    0   17    7     -5.69      0.00
  -17   18    7     -2.29      0.00
  -16   18    7      0.76      0.00
  -15   18    7     -1.07      0.00
  -14   18    7     -3.60      0.00
  -13   18    7      7.35      0.00
  -12   18    7      1.36      0.00
  -11   18    7      2.11      0.00
  -10   18    7     -3.65      0.00
   -9   18    7     -5.22      0.00
   -8   18    7      5.96      0.00
   -7   18    7     -4.74      0.00
   -6   18    7      1.64      0.00
   -5   18    7    -12.27      0.00
   -4   18    7     -1.81      0.00
   -3   18    7      2.91      0.00
   -2   18    7      5.65      0.00
   -1   18    7      0.91      0.00
    0   18    7      1.13      0.00
  -18   19    7     -5.05      0.00
  -17   19    7      6.69      0.00
  -16   19    7      2.30      0.00
  -15   19    7      6.82      0.00
  -14   19    7     -0.33      0.00
  -13   19    7     -0.05      0.00
  -12   19    7     -0.76      0.00
  -11   19    7     -1.22      0.00
  -10   19    7     -1.01      0.00
   -9   19    7     -2.44      0.00
   -8   19    7     -3.14      0.00
   -7   19    7     -5.34      0.00
   -6   19    7      0.57      0.00
   -5   19    7     -1.05      0.00
   -4   19    7      3.10      0.00
   -3   19    7     -1.08      0.00
   -2   19    7      3.44      0.00
   -1   19    7      0.04      0.00
    0   19    7     -3.27      0.00
  -19   20    7      5.33      0.00
  -18   20    7      1.70      0.00
  -17   20    7      1.73      0.00
  -16   20    7     -1.45      0.00
  -15   20    7     -2.90      0.00
  -14   20    7      0.79      0.00
  -13   20    7      3.60      0.00
  -12   20    7     -6.41      0.00
  -11   20    7     -1.49      0.00
  -10   20    7     -2.76      0.00
   -9   20    7      5.14      0.00
   -8   20    7      0.50      0.00
   -7   20    7      1.04      0.00
   -6   20    7     -1.51      0.00
   -5   20    7      0.18      0.00
   -4   20    7     -1.73      0.00
   -3   20    7      5.18      0.00
   -2   20    7      1.14      0.00
   -1   20    7      0.29      0.00
    0   20    7     -1.93      0.00
  -20   21    7     -3.73      0.00
  -19   21    7     -3.69      0.00
  -18   21    7      3.86      0.00
  -17   21    7      6.76      0.00
  -16   21    7     -3.24      0.00
  -15   21    7     -3.78      0.00
  -14   21    7     -8.37      0.00
  -13   21    7     -2.68      0.00
  -12   21    7      4.14      0.00
  -11   21    7      0.03      0.00
  -10   21    7      4.87      0.00
   -9   21    7      4.68      0.00
   -8   21    7     -1.50      0.00
   -7   21    7      3.69      0.00
   -6   21    7     -8.40      0.00
   -5   21    7      3.28      0.00
   -4   21    7     -1.06      0.00
   -3   21    7      0.38      0.00
   -2   21    7      3.99      0.00
   -1   21    7      0.78      0.00
    0   21    7      0.95      0.00
  -21   22    7     -0.14      0.00
  -20   22    7      0.57      0.00
  -19   22    7      0.37      0.00
  -18   22    7      0.76      0.00
  -17   22    7     -2.84      0.00
  -16   22    7      0.77      0.00
  -15   22    7     -5.38      0.00
  -14   22    7      1.40      0.00
  -13   22    7     -3.90      0.00
  -12   22    7      0.45      0.00
  -11   22    7      1.57      0.00
  -10   22    7      3.67      0.00
   -9   22    7      3.68      0.00
   -8   22    7     -3.78      0.00
   -7   22    7     -4.33      0.00
   -6   22    7     -2.60      0.00
   -5   22    7     -0.02      0.00
   -4   22    7      2.07      0.00
   -3   22    7      3.09      0.00
   -2   22    7     -2.07      0.00
   -1   22    7      1.31      0.00
    0   22    7     -1.47      0.00
  -22   23    7     -2.69      0.00
  -21   23    7     -4.76      0.00
  -20   23    7      2.13      0.00
  -19   23    7     -1.80      0.00
  -18   23    7      6.23      0.00
  -17   23    7     -4.32      0.00
  -16   23    7      2.13      0.00
  -15   23    7     -2.46      0.00
  -14   23    7     -3.47      0.00
  -13   23    7     -0.89      0.00
  -12   23    7     -0.41      0.00
  -11   23    7     -0.25      0.00
  -10   23    7      2.35      0.00
   -9   23    7     -6.25      0.00
   -8   23    7     -1.65      0.00
   -7   23    7     -0.89      0.00
   -6   23    7      1.65      0.00
   -5   23    7     -2.15      0.00
   -4   23    7     -0.32      0.00
   -3   23    7     -1.11      0.00
   -2   23    7     -1.28      0.00
   -1   23    7     -3.37      0.00
    0   23    7      0.96      0.00
  -23   24    7      3.87      0.00
  -22   24    7      5.79      0.00
  -21   24    7     -2.18      0.00
  -20   24    7     -5.59      0.00
  -19   24    7     -4.57      0.00
  -18   24    7     -2.50      0.00
  -17   24    7      6.80      0.00
  -16   24    7      5.19      0.00
  -15   24    7     -4.17      0.00
  -14   24    7     -1.35      0.00
  -13   24    7     -7.98      0.00
  -12   24    7     -1.81      0.00
  -11   24    7      3.49      0.00
  -10   24    7     -0.04      0.00
   -9   24    7     -0.21      0.00
   -8   24    7      0.07      0.00
   -7   24    7     -3.07      0.00
   -6   24    7      0.48      0.00
   -5   24    7     -5.09      0.00
   -4   24    7     -1.01      0.00
   -3   24    7     -2.83      0.00
   -2   24    7     -2.48      0.00
   -1   24    7     -2.64      0.00
    0   24    7     -2.23      0.00
  -24   25    7      0.58      0.00
  -23   25    7     -3.15      0.00
  -22   25    7     -4.40      0.00
  -21   25    7      1.78      0.00
  -20   25    7     -2.06      0.00
  -19   25    7      3.35      0.00
  -18   25    7     -1.72      0.00
  -17   25    7     -3.46      0.00
  -16   25    7     -2.76      0.00
  -15   25    7      3.99      0.00
  -14   25    7      0.39      0.00
  -13   25    7     -2.73      0.00
  -12   25    7     -6.16      0.00
  -11   25    7     -0.86      0.00
  -10   25    7      3.44      0.00
   -9   25    7      4.87      0.00
   -8   25    7      1.99      0.00
   -7   25    7     -3.28      0.00
   -6   25    7     -7.57      0.00
   -5   25    7     -6.10      0.00
   -4   25    7     -2.05      0.00
   -3   25    7      2.39      0.00
   -2   25    7      2.41      0.00
   -1   25    7    -11.31      0.00
    0   25    7     -4.81      0.00
  -25   26    7     -1.24      0.00
  -24   26    7      4.77      0.00
  -23   26    7      3.21      0.00
  -22   26    7      1.65      0.00
  -21   26    7     -5.80      0.00
  -20   26    7     -6.68      0.00
  -19   26    7      1.98      0.00
  -18   26    7      0.84      0.00
  -17   26    7      8.81      0.00
  -16   26    7     -6.82      0.00
  -15   26    7     -1.25      0.00
  -14   26    7     -1.38      0.00
  -13   26    7     -1.17      0.00
  -12   26    7     -1.41      0.00
  -11   26    7     -2.77      0.00
  -10   26    7     -0.76      0.00
   -9   26    7      4.28      0.00
   -8   26    7      3.57      0.00
   -7   26    7      1.09      0.00
   -6   26    7     -6.39      0.00
   -5   26    7     -4.63      0.00
   -4   26    7     -4.53      0.00
   -3   26    7     -1.39      0.00
   -2   26    7     -2.26      0.00
   -1   26    7      6.14      0.00
    0   26    7     -3.90      0.00
  -26   27    7     -4.52      0.00
  -25   27    7     -1.98      0.00
  -24   27    7     -2.39      0.00
  -23   27    7      3.02      0.00
  -22   27    7      3.84      0.00
  -21   27    7      0.88      0.00
  -20   27    7     -9.24      0.00
  -19   27    7     -2.29      0.00
  -18   27    7      4.54      0.00
  -17   27    7      3.19      0.00
  -16   27    7      2.68      0.00
  -15   27    7      3.53      0.00
  -14   27    7     -4.25      0.00
  -13   27    7     -0.94      0.00
  -12   27    7     -3.88      0.00
  -11   27    7     -3.85      0.00
  -10   27    7      3.97      0.00
   -9   27    7      5.45      0.00
   -8   27    7      3.66      0.00
   -7   27    7      1.87      0.00
   -6   27    7     -3.78      0.00
   -5   27    7     -0.82      0.00
   -4   27    7     -5.70      0.00
   -3   27    7      0.85      0.00
   -2   27    7      4.55      0.00
   -1   27    7      1.57      0.00
    0   27    7      3.39      0.00
  -27   28    7      2.73      0.00
  -26   28    7      1.13      0.00
  -25   28    7      4.02      0.00
  -24   28    7     -8.25      0.00
  -23   28    7     -3.65      0.00
  -22   28    7     -6.12      0.00
  -21   28    7     -5.31      0.00
  -20   28    7      8.12      0.00
  -19   28    7      4.20      0.00
  -18   28    7      1.18      0.00
  -17   28    7     -1.41      0.00
  -16   28    7      1.88      0.00
  -15   28    7      2.94      0.00
  -14   28    7      4.32      0.00
  -13   28    7      0.46      0.00
  -12   28    7      0.03      0.00
  -11   28    7     -0.27      0.00
  -10   28    7      3.87      0.00
   -9   28    7      3.05      0.00
   -8   28    7      4.63      0.00
   -7   28    7      1.32      0.00
   -6   28    7     -0.51      0.00
   -5   28    7     -4.61      0.00
   -4   28    7      7.40      0.00
   -3   28    7      5.05      0.00
   -2   28    7      1.74      0.00
   -1   28    7      0.45      0.00
    0   28    7     -1.51      0.00
  -27   29    7      1.77      0.00
  -26   29    7     -3.23      0.00
  -25   29    7     -9.66      0.00
  -24   29    7     -4.29      0.00
  -23   29    7     -5.31      0.00
  -22   29    7     -1.45      0.00
  -21   29    7     -0.95      0.00
  -20   29    7      5.02      0.00
  -19   29    7      3.40      0.00
  -18   29    7      4.85      0.00
  -17   29    7     -5.23      0.00
  -16   29    7      0.07      0.00
  -15   29    7     -1.10      0.00
  -14   29    7      6.01      0.00
  -13   29    7      5.53      0.00
  -12   29    7      5.03      0.00
  -11   29    7      1.05      0.00
  -10   29    7     -1.03      0.00
   -9   29    7     -0.62      0.00
   -8   29    7      5.19      0.00
   -7   29    7      1.37      0.00
   -6   29    7      1.97      0.00
   -5   29    7      2.04      0.00
   -4   29    7     -2.57      0.00
   -3   29    7      3.59      0.00
   -2   29    7      4.07      0.00
  -26   30    7     -5.32      0.00
  -25   30    7    -10.99      0.00
  -24   30    7     -3.87      0.00
  -23   30    7     -2.30      0.00
  -22   30    7      4.22      0.00
  -21   30    7      3.32      0.00
  -20   30    7      7.51      0.00
  -19   30    7     -4.18      0.00
  -18   30    7     -7.67      0.00
  -17   30    7     -6.09      0.00
  -16   30    7     -1.68      0.00
  -15   30    7      3.44      0.00
  -14   30    7      2.01      0.00
  -13   30    7      2.04      0.00
  -12   30    7      0.97      0.00
  -11   30    7      2.61      0.00
  -10   30    7     -3.04      0.00
   -9   30    7      1.39      0.00
   -8   30    7     -0.34      0.00
   -7   30    7      1.85      0.00
   -6   30    7      1.51      0.00
   -5   30    7     -2.13      0.00
   -4   30    7     -0.17      0.00
  -24   31    7     -0.10      0.00
  -23   31    7      3.54      0.00
  -22   31    7      5.90      0.00
  -21   31    7      3.87      0.00
  -20   31    7     -7.07      0.00
  -19   31    7     -7.47      0.00
  -18   31    7     -8.12      0.00
  -17   31    7     -5.91      0.00
  -16   31    7     -5.70      0.00
  -15   31    7     -0.24      0.00
  -14   31    7     -0.73      0.00
  -13   31    7      5.73      0.00
  -12   31    7     -0.02      0.00
  -11   31    7     -1.62      0.00
  -10   31    7     -2.02      0.00
   -9   31    7     -1.15      0.00
   -8   31    7      1.63      0.00
   -7   31    7     -3.63      0.00
  -21   32    7     -0.46      0.00
  -20   32    7     -9.36      0.00
  -19   32    7     -8.29      0.00
  -18   32    7     -4.99      0.00
  -17   32    7     -2.49      0.00
  -16   32    7     -3.73      0.00
  -15   32    7     -4.64      0.00
  -14   32    7      2.20      0.00
  -13   32    7      4.84      0.00
  -12   32    7      2.16      0.00
  -11   32    7     -2.54      0.00
    0    0    8     37.94      0.00
    0    1    8     -3.49      0.00
   -1    2    8     -2.95      0.00
    0    2    8    -14.27      0.00
   -2    3    8     -3.60      0.00
   -1    3    8     -9.98      0.00
    0    3    8    -13.01      0.00
   -3    4    8     18.48      0.00
   -2    4    8      9.77      0.00
   -1    4    8      9.57      0.00
    0    4    8     -9.02      0.00
   -4    5    8    -11.65      0.00
   -3    5    8     13.55      0.00
   -2    5    8     11.28      0.00
   -1    5    8     -7.75      0.00
    0    5    8      5.29      0.00
   -5    6    8    -11.22      0.00
   -4    6    8      2.99      0.00
   -3    6    8      0.47      0.00
   -2    6    8     -6.35      0.00
   -1    6    8     -8.16      0.00
    0    6    8      0.83      0.00
   -6    7    8     -6.15      0.00
   -5    7    8     -9.27      0.00
   -4    7    8     -5.72      0.00
   -3    7    8     -5.45      0.00
   -2    7    8      2.50      0.00
   -1    7    8      1.61      0.00
    0    7    8      1.14      0.00
   -7    8    8      2.72      0.00
   -6    8    8      1.69      0.00
   -5    8    8     -8.98      0.00
   -4    8    8      5.08      0.00
   -3    8    8     -6.10      0.00
   -2    8    8      3.97      0.00
   -1    8    8     16.08      0.00
    0    8    8     -3.14      0.00
   -8    9    8      3.87      0.00
   -7    9    8     -7.55      0.00
   -6    9    8      6.08      0.00
   -5    9    8      6.04      0.00
   -4    9    8      1.77      0.00
   -3    9    8      2.60      0.00
   -2    9    8     -2.64      0.00
   -1    9    8      3.57      0.00
    0    9    8      1.58      0.00
   -9   10    8      0.19      0.00
   -8   10    8     -3.09      0.00
   -7   10    8     10.15      0.00
   -6   10    8      2.32      0.00
   -5   10    8      0.77      0.00
   -4   10    8     -4.39      0.00
   -3   10    8      0.81      0.00
   -2   10    8     -0.57      0.00
   -1   10    8      0.66      0.00
    0   10    8     -4.18      0.00
  -10   11    8     -7.47      0.00
   -9   11    8     -2.29      0.00
   -8   11    8     -1.02      0.00
   -7   11    8      3.04      0.00
   -6   11    8      0.00      0.00
   -5   11    8      1.50      0.00
   -4   11    8     -5.37      0.00
   -3   11    8      0.03      0.00
   -2   11    8     -1.64      0.00
   -1   11    8     -4.97      0.00
    0   11    8      8.33      0.00
  -11   12    8     -0.37      0.00
  -10   12    8      1.03      0.00
   -9   12    8     -6.72      0.00
   -8   12    8      1.41      0.00
   -7   12    8      8.62      0.00
   -6   12    8     -2.90      0.00
   -5   12    8      2.96      0.00
   -4   12    8      1.14      0.00
   -3   12    8     -7.27      0.00
   -2   12    8      3.65      0.00
   -1   12    8      2.00      0.00
    0   12    8      9.90      0.00
  -12   13    8      5.15      0.00
  -11   13    8      0.87      0.00
  -10   13    8     -1.93      0.00
   -9   13    8      0.20      0.00
   -8   13    8      2.70      0.00
   -7   13    8      4.14      0.00
   -6   13    8      6.02      0.00
   -5   13    8      2.15      0.00
   -4   13    8      5.26      0.00
   -3   13    8     -0.57      0.00
   -2   13    8      2.38      0.00
   -1   13    8      1.69      0.00
    0   13    8     -2.84      0.00
  -13   14    8     -1.45      0.00
  -12   14    8     -7.28      0.00
  -11   14    8     -4.06      0.00
  -10   14    8      3.93      0.00
   -9   14    8      1.95      0.00
   -8   14    8      2.57      0.00
   -7   14    8     -3.90      0.00
   -6   14    8      6.89      0.00
   -5   14    8      6.52      0.00
   -4   14    8      5.62      0.00
   -3   14    8     -2.60      0.00
   -2   14    8     -3.84      0.00
   -1   14    8     -2.65      0.00
    0   14    8     -4.51      0.00
  -14   15    8     -2.59      0.00
  -13   15    8     -4.31      0.00
  -12   15    8     -0.40      0.00
  -11   15    8     -1.68      0.00
  -10   15    8     -2.31      0.00
   -9   15    8     -0.18      0.00
   -8   15    8     -1.65      0.00
   -7   15    8     -1.02      0.00
   -6   15    8      6.08      0.00
   -5   15    8      2.25      0.00
   -4   15    8     -4.22      0.00
   -3   15    8     -4.68      0.00
   -2   15    8     -6.44      0.00
   -1   15    8      4.46      0.00
    0   15    8     -3.40      0.00
  -15   16    8      0.21      0.00
  -14   16    8     -0.78      0.00
  -13   16    8     -0.01      0.00
  -12   16    8     -4.72      0.00
  -11   16    8      0.34      0.00
  -10   16    8      4.11      0.00
   -9   16    8      0.71      0.00
   -8   16    8     -6.63      0.00
   -7   16    8     -5.36      0.00
   -6   16    8     -1.66      0.00
   -5   16    8      7.23      0.00
   -4   16    8     -5.31      0.00
   -3   16    8      1.11      0.00
   -2   16    8     -5.60      0.00
   -1   16    8     -3.42      0.00
    0   16    8      7.59      0.00
  -16   17    8     -1.94      0.00
  -15   17    8      3.00      0.00
  -14   17    8      6.37      0.00
  -13   17    8      4.15      0.00
  -12   17    8      3.72      0.00
  -11   17    8     -2.02      0.00
  -10   17    8     -1.56      0.00
   -9   17    8     -2.41      0.00
   -8   17    8     -1.51      0.00
   -7   17    8     -0.85      0.00
   -6   17    8     -5.91      0.00
   -5   17    8      3.09      0.00
   -4   17    8      3.67      0.00
   -3   17    8      3.01      0.00
   -2   17    8      1.56      0.00
   -1   17    8     -2.54      0.00
    0   17    8      0.33      0.00
  -17   18    8      2.65      0.00
  -16   18    8      7.78      0.00
  -15   18    8     -1.49      0.00
  -14   18    8     -2.13      0.00
  -13   18    8      3.18      0.00
  -12   18    8      2.45      0.00
  -11   18    8      4.01      0.00
  -10   18    8     -1.33      0.00
   -9   18    8     -5.08      0.00
   -8   18    8     -0.83      0.00
   -7   18    8      2.46      0.00
   -6   18    8      5.50      0.00
   -5   18    8     -1.23      0.00
   -4   18    8      0.30      0.00
   -3   18    8      3.62      0.00
   -2   18    8     -1.41      0.00
   -1   18    8      0.85      0.00
    0   18    8      2.80      0.00
  -18   19    8     -0.26      0.00
  -17   19    8     -2.13      0.00
  -16   19    8     -0.64      0.00
  -15   19    8      9.11      0.00
  -14   19    8      0.40      0.00
  -13   19    8     -4.85      0.00
  -12   19    8     -6.85      0.00
  -11   19    8      3.40      0.00
  -10   19    8      2.14      0.00
   -9   19    8      0.24      0.00
   -8   19    8      1.27      0.00
   -7   19    8      1.62      0.00
   -6   19    8      2.20      0.00
   -5   19    8     -4.52      0.00
   -4   19    8      6.15      0.00
   -3   19    8     -4.88      0.00
   -2   19    8      1.61      0.00
   -1   19    8      0.32      0.00
    0   19    8     -4.73      0.00
  -19   20    8      7.14      0.00
  -18   20    8     -2.90      0.00
  -17   20    8     -0.99      0.00
  -16   20    8     -3.75      0.00
  -15   20    8     -1.72      0.00
  -14   20    8      3.50      0.00
  -13   20    8      2.27      0.00
  -12   20    8     -3.65      0.00
  -11   20    8     -5.96      0.00
  -10   20    8     -2.80      0.00
   -9   20    8      5.10      0.00
   -8   20    8      3.78      0.00
   -7   20    8     -5.84      0.00
   -6   20    8     -4.52      0.00
   -5   20    8     -7.20      0.00
   -4   20    8      4.75      0.00
   -3   20    8      5.59      0.00
   -2   20    8      1.14      0.00
   -1   20    8     -0.17      0.00
    0   20    8     -6.64      0.00
  -20   21    8     -5.57      0.00
  -19   21    8     -2.66      0.00
  -18   21    8      0.33      0.00
  -17   21    8      3.51      0.00
  -16   21    8     -0.49      0.00
  -15   21    8      0.63      0.00
  -14   21    8     -1.11      0.00
  -13   21    8     -4.49      0.00
  -12   21    8      1.38      0.00
  -11   21    8     -1.70      0.00
  -10   21    8      0.09      0.00
   -9   21    8     -1.02      0.00
   -8   21    8     -3.27      0.00
   -7   21    8     -3.22      0.00
   -6   21    8    -10.12      0.00
   -5   21    8      3.35      0.00
   -4   21    8      4.07      0.00
   -3   21    8      2.43      0.00
   -2   21    8      2.80      0.00
   -1   21    8     -6.74      0.00
    0   21    8     -2.98      0.00
  -21   22    8     -2.74      0.00
  -20   22    8      5.35      0.00
  -19   22    8      0.93      0.00
  -18   22    8     -3.01      0.00
  -17   22    8     -2.80      0.00
  -16   22    8     -0.81      0.00
  -15   22    8     -0.73      0.00
  -14   22    8      2.43      0.00
  -13   22    8     -2.19      0.00
  -12   22    8     -0.83      0.00
  -11   22    8     -0.11      0.00
  -10   22    8      0.40      0.00
   -9   22    8      5.91      0.00
   -8   22    8      0.87      0.00
   -7   22    8     -6.41      0.00
   -6   22    8     -4.42      0.00
   -5   22    8      2.50      0.00
   -4   22    8      1.00      0.00
   -3   22    8      7.38      0.00
   -2   22    8     -2.55      0.00
   -1   22    8     -1.76      0.00
    0   22    8     -2.59      0.00
  -22   23    8     -2.82      0.00
  -21   23    8     -2.16      0.00
  -20   23    8     -1.02      0.00
  -19   23    8     -3.56      0.00
  -18   23    8      5.74      0.00
  -17   23    8     -6.28      0.00
  -16   23    8     -1.50      0.00
  -15   23    8     -2.48      0.00
  -14   23    8     -0.63      0.00
  -13   23    8      3.93      0.00
  -12   23    8      0.51      0.00
  -11   23    8      1.77      0.00
  -10   23    8      6.63      0.00
   -9   23    8      3.99      0.00
   -8   23    8      1.38      0.00
   -7   23    8     -0.32      0.00
   -6   23    8     -4.18      0.00
   -5   23    8      1.82      0.00
   -4   23    8      1.65      0.00
   -3   23    8      4.30      0.00
   -2   23    8      1.39      0.00
   -1   23    8     -4.38      0.00
    0   23    8      2.63      0.00
  -23   24    8     -0.94      0.00
  -22   24    8      1.67      0.00
  -21   24    8      0.45      0.00
  -20   24    8     -3.37      0.00
  -19   24    8     -5.89      0.00
  -18   24    8     -2.71      0.00
  -17   24    8     -0.71      0.00
  -16   24    8      4.55      0.00
  -15   24    8     -0.33      0.00
  -14   24    8      0.30      0.00
  -13   24    8     -0.59      0.00
  -12   24    8      2.73      0.00
  -11   24    8      5.40      0.00
  -10   24    8     -1.26      0.00
   -9   24    8      1.86      0.00
   -8   24    8     -0.93      0.00
   -7   24    8     -0.71      0.00
   -6   24    8      4.84      0.00
   -5   24    8      0.66      0.00
   -4   24    8      6.25      0.00
   -3   24    8     -6.83      0.00
   -2   24    8     -5.98      0.00
   -1   24    8      0.26      0.00
    0   24    8     -3.69      0.00
  -24   25    8     -0.49      0.00
  -23   25    8     -6.91      0.00
  -22   25    8     -3.04      0.00
  -21   25    8      2.72      0.00
  -20   25    8     -2.76      0.00
  -19   25    8      3.07      0.00
  -18   25    8     -1.95      0.00
  -17   25    8     -1.07      0.00
  -16   25    8      3.62      0.00
  -15   25    8      4.36      0.00
  -14   25    8     -1.52      0.00
  -13   25    8     -3.07      0.00
  -12   25    8     -5.55      0.00
  -11   25    8     -2.57      0.00
  -10   25    8      4.27      0.00
   -9   25    8     -0.67      0.00
   -8   25    8     -0.98      0.00
   -7   25    8      1.78      0.00
   -6   25    8     -0.67      0.00
   -5   25    8     -0.03      0.00
   -4   25    8     -2.54      0.00
   -3   25    8     -1.78      0.00
   -2   25    8     -2.47      0.00
   -1   25    8     -8.66      0.00
    0   25    8     -4.97      0.00
  -25   26    8     -1.91      0.00
  -24   26    8      0.33      0.00
  -23   26    8      3.08      0.00
  -22   26    8      2.98      0.00
  -21   26    8     -2.57      0.00
  -20   26    8     -0.25      0.00
  -19   26    8      3.38      0.00
  -18   26    8     -1.84      0.00
  -17   26    8     10.50      0.00
  -16   26    8     -2.52      0.00
  -15   26    8     -3.53      0.00
  -14   26    8     -6.14      0.00
  -13   26    8     -7.28      0.00
  -12   26    8      0.10      0.00
  -11   26    8     -1.07      0.00
  -10   26    8     -1.92      0.00
   -9   26    8      2.61      0.00
   -8   26    8      1.02      0.00
   -7   26    8      0.38      0.00
   -6   26    8     -5.45      0.00
   -5   26    8     -3.85      0.00
   -4   26    8     -0.04      0.00
   -3   26    8     -2.28      0.00
   -2   26    8     -0.63      0.00
   -1   26    8      2.03      0.00
    0   26    8     -2.54      0.00
  -26   27    8     -3.64      0.00
  -25   27    8      1.25      0.00
  -24   27    8      0.84      0.00
  -23   27    8      3.47      0.00
  -22   27    8      6.58      0.00
  -21   27    8      4.85      0.00
  -20   27    8     -1.63      0.00
  -19   27    8     -1.82      0.00
  -18   27    8     -2.00      0.00
  -17   27    8      0.92      0.00
  -16   27    8     -4.37      0.00
  -15   27    8     -3.73      0.00
  -14   27    8     -4.79      0.00
  -13   27    8      2.35      0.00
  -12   27    8      3.08      0.00
  -11   27    8     -1.91      0.00
  -10   27    8      0.18      0.00
   -9   27    8     -2.36      0.00
   -8   27    8      1.75      0.00
   -7   27    8     -7.10      0.00
   -6   27    8     -0.88      0.00
   -5   27    8      5.51      0.00
   -4   27    8      1.97      0.00
   -3   27    8      8.41      0.00
   -2   27    8     -3.34      0.00
   -1   27    8     -5.37      0.00
  -25   28    8      6.52      0.00
  -24   28    8      0.04      0.00
  -23   28    8      2.20      0.00
  -22   28    8      0.71      0.00
  -21   28    8      1.26      0.00
  -20   28    8      3.75      0.00
  -19   28    8     -6.60      0.00
  -18   28    8     -5.81      0.00
  -17   28    8     -2.96      0.00
  -16   28    8     -1.66      0.00
  -15   28    8     -0.05      0.00
  -14   28    8      4.11      0.00
  -13   28    8      2.16      0.00
  -12   28    8      5.57      0.00
  -11   28    8     -0.71      0.00
  -10   28    8     -1.87      0.00
   -9   28    8     -3.08      0.00
   -8   28    8     -3.13      0.00
   -7   28    8     -1.50      0.00
   -6   28    8     -2.28      0.00
   -5   28    8      5.59      0.00
   -4   28    8     13.09      0.00
   -3   28    8      8.02      0.00
  -24   29    8      6.16      0.00
  -23   29    8     -0.70      0.00
  -22   29    8     -1.30      0.00
  -21   29    8     -0.62      0.00
  -20   29    8     -2.39      0.00
  -19   29    8     -3.91      0.00
  -18   29    8      1.68      0.00
  -17   29    8     -3.48      0.00
  -16   29    8      5.65      0.00
  -15   29    8      2.07      0.00
  -14   29    8      2.88      0.00
  -13   29    8      5.59      0.00
  -12   29    8     -3.37      0.00
  -11   29    8     -3.62      0.00
  -10   29    8     -5.07      0.00
   -9   29    8     -0.57      0.00
   -8   29    8      0.41      0.00
   -7   29    8     -3.90      0.00
   -6   29    8      1.31      0.00
   -5   29    8      3.03      0.00
  -21   30    8      1.58      0.00
  -20   30    8      5.72      0.00
  -19   30    8     -0.86      0.00
  -18   30    8     -0.89      0.00
  -17   30    8     -2.40      0.00
  -16   30    8      2.00      0.00
  -15   30    8      8.03      0.00
  -14   30    8      6.15      0.00
  -13   30    8      0.06      0.00
  -12   30    8    -12.42      0.00
  -11   30    8    -11.57      0.00
  -10   30    8     -2.42      0.00
   -9   30    8     -0.17      0.00
  -16   31    8      1.03      0.00
  -15   31    8      2.49      0.00
    0    0    9    -12.72      0.00
    0    1    9     -0.14      0.00
   -1    2    9      4.60      0.00
    0    2    9      5.84      0.00
   -2    3    9      1.21      0.00
   -1    3    9     -2.86      0.00
    0    3    9      2.92      0.00
   -3    4    9      1.66      0.00
   -2    4    9     -6.64      0.00
   -1    4    9     -9.08      0.00
    0    4    9     -0.27      0.00
   -4    5    9     -4.45      0.00
   -3    5    9     -9.75      0.00
   -2    5    9     -6.20      0.00
   -1    5    9     -1.69      0.00
    0    5    9      2.69      0.00
   -5    6    9     -2.24      0.00
   -4    6    9      8.72      0.00
   -3    6    9      1.39      0.00
   -2    6    9     -9.90      0.00
   -1    6    9     -2.03      0.00
    0    6    9    -10.37      0.00
   -6    7    9      1.16      0.00
   -5    7    9     -8.05      0.00
   -4    7    9     -2.08      0.00
   -3    7    9      5.25      0.00
   -2    7    9      6.78      0.00
   -1    7    9     -1.86      0.00
    0    7    9     -5.78      0.00
   -7    8    9     -3.14      0.00
   -6    8    9      5.21      0.00
   -5    8    9     -6.20      0.00
   -4    8    9     -5.20      0.00
   -3    8    9     -1.54      0.00
   -2    8    9      7.22      0.00
   -1    8    9      9.32      0.00
    0    8    9     -0.46      0.00
   -8    9    9     -2.48      0.00
   -7    9    9     -1.41      0.00
   -6    9    9     -3.37      0.00
   -5    9    9     -0.98      0.00
   -4    9    9     -6.02      0.00
   -3    9    9      7.27      0.00
   -2    9    9      6.13      0.00
   -1    9    9     -7.64      0.00
    0    9    9     -0.60      0.00
   -9   10    9     -3.14      0.00
   -8   10    9     -0.49      0.00
   -7   10    9     11.64      0.00
   -6   10    9     -1.79      0.00
   -5   10    9     -1.45      0.00
   -4   10    9     -0.70      0.00
   -3   10    9     -5.70      0.00
   -2   10    9      3.61      0.00
   -1   10    9      0.46      0.00
    0   10    9     -7.00      0.00
  -10   11    9     -6.36      0.00
   -9   11    9      5.58      0.00
   -8   11    9      1.32      0.00
   -7   11    9      2.39      0.00
   -6   11    9      0.93      0.00
   -5   11    9      0.83      0.00
   -4   11    9     -2.12      0.00
   -3   11    9      0.36      0.00
   -2   11    9     -3.79      0.00
   -1   11    9     -4.23      0.00
    0   11    9     -3.76      0.00
  -11   12    9      2.90      0.00
  -10   12    9      1.81      0.00
   -9   12    9      2.51      0.00
   -8   12    9     -3.11      0.00
   -7   12    9      0.23      0.00
   -6   12    9     -1.55      0.00
   -5   12    9     -0.30      0.00
   -4   12    9      3.73      0.00
   -3   12    9     -1.37      0.00
   -2   12    9     -6.41      0.00
   -1   12    9     -0.07      0.00
    0   12    9      0.84      0.00
  -12   13    9      2.65      0.00
  -11   13    9      0.71      0.00
  -10   13    9      0.69      0.00
   -9   13    9     -2.86      0.00
   -8   13    9      0.53      0.00
   -7   13    9     -7.71      0.00
   -6   13    9      4.89      0.00
   -5   13    9      0.57      0.00
   -4   13    9     -1.23      0.00
   -3   13    9      1.56      0.00
   -2   13    9     -3.49      0.00
   -1   13    9     -0.15      0.00
    0   13    9      2.12      0.00
  -13   14    9      5.34      0.00
  -12   14    9      0.14      0.00
  -11   14    9     -2.43      0.00
  -10   14    9      3.33      0.00
   -9   14    9     -8.06      0.00
   -8   14    9     -1.63      0.00
   -7   14    9      0.01      0.00
   -6   14    9      1.42      0.00
   -5   14    9     -2.06      0.00
   -4   14    9     -1.93      0.00
   -3   14    9     -2.01      0.00
   -2   14    9     -0.27      0.00
   -1   14    9     -0.14      0.00
    0   14    9      5.65      0.00
  -14   15    9     -3.83      0.00
  -13   15    9     -4.79      0.00
  -12   15    9      2.78      0.00
  -11   15    9      6.98      0.00
  -10   15    9     -0.36      0.00
   -9   15    9     -3.71      0.00
   -8   15    9     -0.83      0.00
   -7   15    9      0.46      0.00
   -6   15    9     -0.15      0.00
   -5   15    9     -1.73      0.00
   -4   15    9     -1.27      0.00
   -3   15    9     -8.08      0.00
   -2   15    9      1.65      0.00
   -1   15    9      0.25      0.00
    0   15    9     -1.06      0.00
  -15   16    9     -0.25      0.00
  -14   16    9     -7.59      0.00
  -13   16    9     -6.84      0.00
  -12   16    9     -1.63      0.00
  -11   16    9     -0.06      0.00
  -10   16    9      8.59      0.00
   -9   16    9      5.89      0.00
   -8   16    9     -3.74      0.00
   -7   16    9      1.09      0.00
   -6   16    9     -1.82      0.00
   -5   16    9      5.75      0.00
   -4   16    9      1.04      0.00
   -3   16    9     -0.06      0.00
   -2   16    9     -5.14      0.00
   -1   16    9     -3.68      0.00
    0   16    9      4.61      0.00
  -16   17    9     -1.35      0.00
  -15   17    9     -1.71      0.00
  -14   17    9     -2.20      0.00
  -13   17    9     -2.50      0.00
  -12   17    9      3.88      0.00
  -11   17    9      4.15      0.00
  -10   17    9     -2.98      0.00
   -9   17    9      3.55      0.00
   -8   17    9      3.32      0.00
   -7   17    9      9.21      0.00
   -6   17    9      0.23      0.00
   -5   17    9      6.86      0.00
   -4   17    9      2.24      0.00
   -3   17    9     -2.14      0.00
   -2   17    9      1.16      0.00
   -1   17    9      4.32      0.00
    0   17    9     -0.12      0.00
  -17   18    9      3.02      0.00
  -16   18    9      4.92      0.00
  -15   18    9     -3.81      0.00
  -14   18    9     -7.05      0.00
  -13   18    9      6.69      0.00
  -12   18    9      2.61      0.00
  -11   18    9      5.31      0.00
  -10   18    9      0.50      0.00
   -9   18    9     -0.51      0.00
   -8   18    9      2.00      0.00
   -7   18    9      1.35      0.00
   -6   18    9     11.41      0.00
   -5   18    9      3.93      0.00
   -4   18    9     -2.09      0.00
   -3   18    9      2.88      0.00
   -2   18    9     -3.48      0.00
   -1   18    9      4.03      0.00
    0   18    9      3.57      0.00
  -18   19    9      2.02      0.00
  -17   19    9      1.92      0.00
  -16   19    9      1.23      0.00
  -15   19    9      3.65      0.00
  -14   19    9      3.96      0.00
  -13   19    9     -1.89      0.00
  -12   19    9     -2.62      0.00
  -11   19    9      4.52      0.00
  -10   19    9      1.20      0.00
   -9   19    9     -4.51      0.00
   -8   19    9     -2.04      0.00
   -7   19    9     -3.37      0.00
   -6   19    9      5.40      0.00
   -5   19    9      3.04      0.00
   -4   19    9      1.06      0.00
   -3   19    9     -3.48      0.00
   -2   19    9      0.47      0.00
   -1   19    9     -1.62      0.00
    0   19    9     -3.10      0.00
  -19   20    9      7.56      0.00
  -18   20    9     -0.39      0.00
  -17   20    9     -3.31      0.00
  -16   20    9     -2.90      0.00
  -15   20    9     -2.35      0.00
  -14   20    9      7.18      0.00
  -13   20    9      7.31      0.00
  -12   20    9     -0.01      0.00
  -11   20    9     -8.00      0.00
  -10   20    9     -6.68      0.00
   -9   20    9     -0.53      0.00
   -8   20    9     -1.44      0.00
   -7   20    9     -6.57      0.00
   -6   20    9      2.19      0.00
   -5   20    9     -5.84      0.00
   -4   20    9     -1.37      0.00
   -3   20    9      0.08      0.00
   -2   20    9     -0.77      0.00
   -1   20    9     -0.86      0.00
    0   20    9      2.28      0.00
  -20   21    9     -2.56      0.00
  -19   21    9     -1.83      0.00
  -18   21    9     -0.63      0.00
  -17   21    9      4.58      0.00
  -16   21    9     -1.80      0.00
  -15   21    9     -1.68      0.00
  -14   21    9     -1.23      0.00
  -13   21    9     -1.15      0.00
  -12   21    9      5.88      0.00
  -11   21    9     -2.64      0.00
  -10   21    9      0.94      0.00
   -9   21    9     -5.25      0.00
   -8   21    9     -4.37      0.00
   -7   21    9     -0.65      0.00
   -6   21    9     -8.86      0.00
   -5   21    9     -0.80      0.00
   -4   21    9     -0.60      0.00
   -3   21    9     -2.25      0.00
   -2   21    9      0.05      0.00
   -1   21    9     -1.00      0.00
    0   21    9      7.84      0.00
  -21   22    9      3.35      0.00
  -20   22    9      3.14      0.00
  -19   22    9     -0.30      0.00
  -18   22    9     -4.30      0.00
  -17   22    9     -2.52      0.00
  -16   22    9      2.12      0.00
  -15   22    9      1.10      0.00
  -14   22    9      0.32      0.00
  -13   22    9     -0.94      0.00
  -12   22    9      1.00      0.00
  -11   22    9      0.60      0.00
  -10   22    9      2.36      0.00
   -9   22    9      2.97      0.00
   -8   22    9     -6.60      0.00
   -7   22    9     -4.08      0.00
   -6   22    9     -7.26      0.00
   -5   22    9      1.43      0.00
   -4   22    9      5.23      0.00
   -3   22    9      1.31      0.00
   -2   22    9     -3.24      0.00
   -1   22    9      4.01      0.00
    0   22    9      1.52      0.00
  -22   23    9     -2.46      0.00
  -21   23    9     -4.63      0.00
  -20   23    9      2.75      0.00
  -19   23    9     -0.27      0.00
  -18   23    9      4.62      0.00
  -17   23    9     -4.50      0.00
  -16   23    9     -4.53      0.00
  -15   23    9     -0.93      0.00
  -14   23    9      1.02      0.00
  -13   23    9      6.49      0.00
  -12   23    9     -0.92      0.00
  -11   23    9      2.08      0.00
  -10   23    9      1.45      0.00
   -9   23    9     -3.87      0.00
   -8   23    9     -3.63      0.00
   -7   23    9     -3.97      0.00
   -6   23    9      0.39      0.00
   -5   23    9      5.19      0.00
   -4   23    9      1.26      0.00
   -3   23    9     -1.56      0.00
   -2   23    9     -0.51      0.00
   -1   23    9      1.38      0.00
    0   23    9      1.94      0.00
  -23   24    9     -0.56      0.00
  -22   24    9     -1.65      0.00
  -21   24    9     -3.77      0.00
  -20   24    9     -1.71      0.00
  -19   24    9     -2.93      0.00
  -18   24    9      1.11      0.00
  -17   24    9      5.70      0.00
  -16   24    9      2.96      0.00
  -15   24    9     -4.97      0.00
  -14   24    9     -5.04      0.00
  -13   24    9     -1.87      0.00
  -12   24    9      5.89      0.00
  -11   24    9      7.16      0.00
  -10   24    9     -2.56      0.00
   -9   24    9     -4.16      0.00
   -8   24    9     -6.36      0.00
   -7   24    9     -4.77      0.00
   -6   24    9      3.64      0.00
   -5   24    9      0.52      0.00
   -4   24    9      0.31      0.00
   -3   24    9     -3.77      0.00
   -2   24    9      1.23      0.00
   -1   24    9      2.96      0.00
    0   24    9     -1.77      0.00
  -24   25    9     -1.55      0.00
  -23   25    9     -8.65      0.00
  -22   25    9     -7.50      0.00
  -21   25    9      0.53      0.00
  -20   25    9     -0.23      0.00
  -19   25    9      5.90      0.00
  -18   25    9      4.49      0.00
  -17   25    9      3.83      0.00
  -16   25    9      0.36      0.00
  -15   25    9     -1.74      0.00
  -14   25    9     -1.82      0.00
  -13   25    9     -2.33      0.00
  -12   25    9     -1.38      0.00
  -11   25    9      5.44      0.00
  -10   25    9      3.14      0.00
   -9   25    9     -2.03      0.00
   -8   25    9     -8.54      0.00
   -7   25    9    -10.21      0.00
   -6   25    9     -1.90      0.00
   -5   25    9     -2.28      0.00
   -4   25    9     -2.39      0.00
   -3   25    9      3.39      0.00
   -2   25    9      6.00      0.00
   -1   25    9     -0.99      0.00
    0   25    9      1.57      0.00
  -24   26    9      0.81      0.00
  -23   26    9     -0.17      0.00
  -22   26    9      1.18      0.00
  -21   26    9     -0.68      0.00
  -20   26    9     -1.67      0.00
  -19   26    9      7.28      0.00
  -18   26    9      6.74      0.00
  -17   26    9      9.13      0.00
  -16   26    9     -0.32      0.00
  -15   26    9     -0.22      0.00
  -14   26    9     -1.70      0.00
  -13   26    9     -3.90      0.00
  -12   26    9     -0.29      0.00
  -11   26    9      2.03      0.00
  -10   26    9      4.66      0.00
   -9   26    9     -1.52      0.00
   -8   26    9     -9.52      0.00
   -7   26    9     -7.88      0.00
   -6   26    9     -8.35      0.00
   -5   26    9     -1.19      0.00
   -4   26    9     -0.80      0.00
   -3   26    9      1.53      0.00
   -2   26    9      1.56      0.00
  -22   27    9      7.42      0.00
  -21   27    9      3.77      0.00
  -20   27    9     -1.58      0.00
  -19   27    9      2.53      0.00
  -18   27    9      7.45      0.00
  -17   27    9      5.63      0.00
  -16   27    9      3.45      0.00
  -15   27    9     -0.75      0.00
  -14   27    9     -3.17      0.00
  -13   27    9      0.56      0.00
  -12   27    9      0.95      0.00
  -11   27    9      1.57      0.00
  -10   27    9      1.68      0.00
   -9   27    9     -4.47      0.00
   -8   27    9     -6.93      0.00
   -7   27    9     -4.36      0.00
   -6   27    9     -3.39      0.00
   -5   27    9      1.10      0.00
  -20   28    9      4.40      0.00
  -19   28    9      0.79      0.00
  -18   28    9      3.11      0.00
  -17   28    9      3.21      0.00
  -16   28    9      4.60      0.00
  -15   28    9      1.86      0.00
  -14   28    9     -5.17      0.00
  -13   28    9     -5.51      0.00
  -12   28    9      3.90      0.00
  -11   28    9      5.90      0.00
  -10   28    9      4.29      0.00
   -9   28    9     -8.14      0.00
   -8   28    9     -7.13      0.00
  -16   29    9      4.41      0.00
  -15   29    9     -0.24      0.00
  -14   29    9     -2.10      0.00
  -13   29    9     -6.41      0.00
    0    0   10     24.26      0.00
    0    1   10      3.38      0.00
   -1    2   10      1.97      0.00
    0    2   10     -4.36      0.00
   -2    3   10      0.05      0.00
   -1    3   10     -4.57      0.00
    0    3   10     -4.62      0.00
   -3    4   10      4.68      0.00
   -2    4   10      5.13      0.00
   -1    4   10      7.22      0.00
    0    4   10     -4.59      0.00
   -4    5   10     -4.78      0.00
   -3    5   10      6.29      0.00
   -2    5   10      1.24      0.00
   -1    5   10     -3.13      0.00
    0    5   10      7.27      0.00
   -5    6   10     -1.04      0.00
   -4    6   10      6.95      0.00
   -3    6   10      2.36      0.00
   -2    6   10     -1.07      0.00
   -1    6   10     -3.02      0.00
    0    6   10     -4.76      0.00
   -6    7   10      2.70      0.00
   -5    7   10     -0.97      0.00
   -4    7   10      0.65      0.00
   -3    7   10      2.64      0.00
   -2    7   10     -0.50      0.00
   -1    7   10     -5.27      0.00
    0    7   10      0.95      0.00
   -7    8   10      5.04      0.00
   -6    8   10      2.31      0.00
   -5    8   10      2.38      0.00
   -4    8   10     10.59      0.00
   -3    8   10     -4.30      0.00
   -2    8   10      1.46      0.00
   -1    8   10      2.77      0.00
    0    8   10     -3.94      0.00
   -8    9   10      4.30      0.00
   -7    9   10     -6.65      0.00
   -6    9   10      0.66      0.00
   -5    9   10      0.80      0.00
   -4    9   10      4.66      0.00
   -3    9   10     10.46      0.00
   -2    9   10     -0.08      0.00
   -1    9   10     -3.47      0.00
    0    9   10      6.21      0.00
   -9   10   10      0.95      0.00
   -8   10   10      3.79      0.00
   -7   10   10      1.58      0.00
   -6   10   10     -9.98      0.00
   -5   10   10     -1.82      0.00
   -4   10   10      4.97      0.00
   -3   10   10      5.10      0.00
   -2   10   10      4.58      0.00
   -1   10   10      4.65      0.00
    0   10   10     -0.41      0.00
  -10   11   10     -9.20      0.00
   -9   11   10      3.40      0.00
   -8   11   10      2.16      0.00
   -7   11   10     -6.65      0.00
   -6   11   10     -3.83      0.00
   -5   11   10      1.05      0.00
   -4   11   10     -0.26      0.00
   -3   11   10      8.69      0.00
   -2   11   10      0.34      0.00
   -1   11   10     -2.97      0.00
    0   11   10     -1.71      0.00
  -11   12   10     -3.98      0.00
  -10   12   10      3.67      0.00
   -9   12   10      1.77      0.00
   -8   12   10      3.61      0.00
   -7   12   10      3.76      0.00
   -6   12   10     -7.46      0.00
   -5   12   10      3.13      0.00
   -4   12   10      1.77      0.00
   -3   12   10     -2.68      0.00
   -2   12   10     -1.62      0.00
   -1   12   10     -0.54      0.00
    0   12   10     -5.06      0.00
  -12   13   10     -3.52      0.00
  -11   13   10      0.15      0.00
  -10   13   10      4.04      0.00
   -9   13   10     11.16      0.00
   -8   13   10      3.75      0.00
   -7   13   10     -0.83      0.00
   -6   13   10      2.53      0.00
   -5   13   10     -3.12      0.00
   -4   13   10     -4.36      0.00
   -3   13   10     -3.04      0.00
   -2   13   10      2.66      0.00
   -1   13   10     -1.50      0.00
    0   13   10     -8.18      0.00
  -13   14   10      1.65      0.00
  -12   14   10     -0.08      0.00
  -11   14   10      1.84      0.00
  -10   14   10      7.35      0.00
   -9   14   10     -0.15      0.00
   -8   14   10     -0.73      0.00
   -7   14   10     -0.39      0.00
   -6   14   10      5.23      0.00
   -5   14   10     -3.98      0.00
   -4   14   10     -2.16      0.00
   -3   14   10     -4.43      0.00
   -2   14   10     -2.64      0.00
   -1   14   10      1.54      0.00
    0   14   10      1.32      0.00
  -14   15   10      0.93      0.00
  -13   15   10     -1.37      0.00
  -12   15   10      5.30      0.00
  -11   15   10      0.72      0.00
  -10   15   10     -3.75      0.00
   -9   15   10     -3.02      0.00
   -8   15   10     -0.08      0.00
   -7   15   10      3.29      0.00
   -6   15   10      7.24      0.00
   -5   15   10     -0.60      0.00
   -4   15   10     -2.56      0.00
   -3   15   10     -5.12      0.00
   -2   15   10      1.53      0.00
   -1   15   10      2.84      0.00
    0   15   10     -1.68      0.00
  -15   16   10      1.41      0.00
  -14   16   10     -3.36      0.00
  -13   16   10     -3.53      0.00
  -12   16   10     -5.81      0.00
  -11   16   10     -3.59      0.00
  -10   16   10      1.35      0.00
   -9   16   10      2.96      0.00
   -8   16   10      3.13      0.00
   -7   16   10      2.86      0.00
   -6   16   10      2.21      0.00
   -5   16   10      2.48      0.00
   -4   16   10      0.53      0.00
   -3   16   10      2.34      0.00
   -2   16   10     -1.45      0.00
   -1   16   10      0.35      0.00
    0   16   10      7.65      0.00
  -16   17   10     -5.66      0.00
  -15   17   10     -1.67      0.00
  -14   17   10     -2.30      0.00
  -13   17   10      1.69      0.00
  -12   17   10      1.21      0.00
  -11   17   10     -1.62      0.00
  -10   17   10     -1.00      0.00
   -9   17   10      4.12      0.00
   -8   17   10      7.73      0.00
   -7   17   10      4.82      0.00
   -6   17   10     -6.77      0.00
   -5   17   10      2.95      0.00
   -4   17   10     -1.65      0.00
   -3   17   10      0.28      0.00
   -2   17   10      4.60      0.00
   -1   17   10      5.30      0.00
    0   17   10      2.82      0.00
  -17   18   10      0.89      0.00
  -16   18   10     -1.62      0.00
  -15   18   10     -4.57      0.00
  -14   18   10     -8.81      0.00
  -13   18   10      3.12      0.00
  -12   18   10      4.59      0.00
  -11   18   10      7.87      0.00
  -10   18   10      2.28      0.00
   -9   18   10      1.70      0.00
   -8   18   10     -1.34      0.00
   -7   18   10      2.24      0.00
   -6   18   10      1.69      0.00
   -5   18   10     -2.23      0.00
   -4   18   10     -3.90      0.00
   -3   18   10      1.59      0.00
   -2   18   10     -1.94      0.00
   -1   18   10      0.39      0.00
    0   18   10      4.92      0.00
  -18   19   10      0.12      0.00
  -17   19   10     -3.08      0.00
  -16   19   10      4.00      0.00
  -15   19   10      3.56      0.00
  -14   19   10     -1.24      0.00
  -13   19   10     -1.40      0.00
  -12   19   10     -2.28      0.00
  -11   19   10      5.03      0.00
  -10   19   10      3.22      0.00
   -9   19   10     -2.68      0.00
   -8   19   10     -0.41      0.00
   -7   19   10      1.26      0.00
   -6   19   10      3.36      0.00
   -5   19   10     -4.14      0.00
   -4   19   10     -1.06      0.00
   -3   19   10     -6.90      0.00
   -2   19   10      0.47      0.00
   -1   19   10     -0.53      0.00
    0   19   10     -5.81      0.00
  -19   20   10      0.57      0.00
  -18   20   10      0.46      0.00
  -17   20   10     -2.44      0.00
  -16   20   10     -0.94      0.00
  -15   20   10     -7.16      0.00
  -14   20   10      4.35      0.00
  -13   20   10      3.45      0.00
  -12   20   10      2.78      0.00
  -11   20   10     -4.02      0.00
  -10   20   10     -4.68      0.00
   -9   20   10     -2.01      0.00
   -8   20   10      1.20      0.00
   -7   20   10      1.20      0.00
   -6   20   10      0.81      0.00
   -5   20   10     -4.79      0.00
   -4   20   10     -1.19      0.00
   -3   20   10     -0.69      0.00
   -2   20   10     -1.04      0.00
   -1   20   10     -0.79      0.00
    0   20   10     -4.43      0.00
  -20   21   10     -6.43      0.00
  -19   21   10      0.05      0.00
  -18   21   10     -1.66      0.00
  -17   21   10      0.48      0.00
  -16   21   10     -3.19      0.00
  -15   21   10     -5.92      0.00
  -14   21   10     -0.46      0.00
  -13   21   10     -4.65      0.00
  -12   21   10      2.44      0.00
  -11   21   10     -0.29      0.00
  -10   21   10     -2.76      0.00
   -9   21   10     -2.22      0.00
   -8   21   10     -1.90      0.00
   -7   21   10      1.02      0.00
   -6   21   10     -1.18      0.00
   -5   21   10      5.18      0.00
   -4   21   10      1.35      0.00
   -3   21   10     -2.27      0.00
   -2   21   10     -0.36      0.00
   -1   21   10     -3.39      0.00
    0   21   10     -3.77      0.00
  -21   22   10     -4.86      0.00
  -20   22   10     -2.28      0.00
  -19   22   10     -1.56      0.00
  -18   22   10     -5.10      0.00
  -17   22   10     -0.55      0.00
  -16   22   10     -3.80      0.00
  -15   22   10      0.57      0.00
  -14   22   10      0.10      0.00
  -13   22   10     -4.24      0.00
  -12   22   10     -0.66      0.00
  -11   22   10     -1.19      0.00
  -10   22   10     -1.24      0.00
   -9   22   10     -1.07      0.00
   -8   22   10     -0.71      0.00
   -7   22   10      0.53      0.00
   -6   22   10      3.82      0.00
   -5   22   10      6.26      0.00
   -4   22   10     -0.87      0.00
   -3   22   10      0.52      0.00
   -2   22   10     -5.89      0.00
   -1   22   10     -3.51      0.00
    0   22   10     -3.18      0.00
  -22   23   10      0.02      0.00
  -21   23   10     -4.19      0.00
  -20   23   10     -1.83      0.00
  -19   23   10     -2.63      0.00
  -18   23   10     -0.89      0.00
  -17   23   10     -4.04      0.00
  -16   23   10     -3.31      0.00
  -15   23   10      3.99      0.00
  -14   23   10      0.64      0.00
  -13   23   10      2.35      0.00
  -12   23   10     -0.80      0.00
  -11   23   10     -0.77      0.00
  -10   23   10      2.47      0.00
   -9   23   10      0.00      0.00
   -8   23   10     -1.70      0.00
   -7   23   10     -2.34      0.00
   -6   23   10     -0.09      0.00
   -5   23   10      0.36      0.00
   -4   23   10     -2.51      0.00
   -3   23   10      0.27      0.00
   -2   23   10     -2.11      0.00
   -1   23   10     -3.67      0.00
    0   23   10      0.71      0.00
  -22   24   10      0.01      0.00
  -21   24   10     -0.71      0.00
  -20   24   10     -1.18      0.00
  -19   24   10     -1.03      0.00
  -18   24   10      0.19      0.00
  -17   24   10     -1.28      0.00
  -16   24   10      0.81      0.00
  -15   24   10      0.49      0.00
  -14   24   10     -2.75      0.00
  -13   24   10      3.36      0.00
  -12   24   10      2.52      0.00
  -11   24   10      3.57      0.00
  -10   24   10     -0.39      0.00
   -9   24   10     -5.30      0.00
   -8   24   10     -1.55      0.00
   -7   24   10     -2.78      0.00
   -6   24   10     -1.81      0.00
   -5   24   10     -7.50      0.00
   -4   24   10     -0.88      0.00
   -3   24   10     -2.58      0.00
   -2   24   10      1.49      0.00
  -20   25   10     -1.23      0.00
  -19   25   10     -0.93      0.00
  -18   25   10     -2.83      0.00
  -17   25   10     -2.06      0.00
  -16   25   10      3.81      0.00
  -15   25   10      4.41      0.00
  -14   25   10     -0.59      0.00
  -13   25   10     -2.99      0.00
  -12   25   10     -4.11      0.00
  -11   25   10     -1.01      0.00
  -10   25   10      1.13      0.00
   -9   25   10     -1.46      0.00
   -8   25   10     -2.20      0.00
   -7   25   10     -3.34      0.00
   -6   25   10     -5.18      0.00
   -5   25   10     -1.74      0.00
  -18   26   10     -3.81      0.00
  -17   26   10     -1.58      0.00
  -16   26   10     -1.56      0.00
  -15   26   10      1.58      0.00
  -14   26   10      3.89      0.00
  -13   26   10      0.27      0.00
  -12   26   10     -5.41      0.00
  -11   26   10     -6.06      0.00
  -10   26   10     -4.86      0.00
   -9   26   10      5.75      0.00
   -8   26   10      1.81      0.00
    0    0   11     -6.50      0.00
    0    1   11     -2.67      0.00
   -1    2   11     -0.57      0.00
    0    2   11     -1.12      0.00
   -2    3   11     -1.27      0.00
   -1    3   11     -3.10      0.00
    0    3   11      0.89      0.00
   -3    4   11     -1.90      0.00
   -2    4   11     -4.14      0.00
   -1    4   11     -3.86      0.00
    0    4   11      1.47      0.00
   -4    5   11      1.62      0.00
   -3    5   11     -4.08      0.00
   -2    5   11     -3.95      0.00
   -1    5   11     -0.77      0.00
    0    5   11      8.08      0.00
   -5    6   11      4.83      0.00
   -4    6   11     12.80      0.00
   -3    6   11      3.66      0.00
   -2    6   11     -2.05      0.00
   -1    6   11      3.57      0.00
    0    6   11     -6.62      0.00
   -6    7   11      1.73      0.00
   -5    7   11     -0.83      0.00
   -4    7   11      0.00      0.00
   -3    7   11      8.05      0.00
   -2    7   11      4.05      0.00
   -1    7   11     -2.22      0.00
    0    7   11     -3.45      0.00
   -7    8   11     -0.68      0.00
   -6    8   11      1.32      0.00
   -5    8   11     -0.71      0.00
   -4    8   11     -0.39      0.00
   -3    8   11     -3.48      0.00
   -2    8   11      2.78      0.00
   -1    8   11      6.08      0.00
    0    8   11     -1.57      0.00
   -8    9   11     -3.00      0.00
   -7    9   11     -7.33      0.00
   -6    9   11     -0.46      0.00
   -5    9   11     -0.45      0.00
   -4    9   11     -4.73      0.00
   -3    9   11      6.07      0.00
   -2    9   11      7.22      0.00
   -1    9   11     -0.35      0.00
    0    9   11      1.85      0.00
   -9   10   11     -5.62      0.00
   -8   10   11     -1.93      0.00
   -7   10   11      2.92      0.00
   -6   10   11     -3.25      0.00
   -5   10   11      0.03      0.00
   -4   10   11      1.89      0.00
   -3   10   11     -1.54      0.00
   -2   10   11      9.13      0.00
   -1   10   11      4.72      0.00
    0   10   11     -2.54      0.00
  -10   11   11     -4.54      0.00
   -9   11   11      3.94      0.00
   -8   11   11      0.33      0.00
   -7   11   11     -0.66      0.00
   -6   11   11      0.98      0.00
   -5   11   11     -1.20      0.00
   -4   11   11      2.27      0.00
   -3   11   11      4.80      0.00
   -2   11   11     -0.93      0.00
   -1   11   11     -8.59      0.00
    0   11   11     -6.16      0.00
  -11   12   11      0.54      0.00
  -10   12   11     -1.30      0.00
   -9   12   11      3.22      0.00
   -8   12   11      2.42      0.00
   -7   12   11      4.29      0.00
   -6   12   11     -2.75      0.00
   -5   12   11     -0.64      0.00
   -4   12   11      2.88      0.00
   -3   12   11     -0.33      0.00
   -2   12   11     -6.13      0.00
   -1   12   11     -8.65      0.00
    0   12   11     -4.96      0.00
  -12   13   11     -2.20      0.00
  -11   13   11      1.63      0.00
  -10   13   11     -0.31      0.00
   -9   13   11      2.74      0.00
   -8   13   11      0.70      0.00
   -7   13   11     -0.86      0.00
   -6   13   11      1.49      0.00
   -5   13   11     -0.63      0.00
   -4   13   11      0.25      0.00
   -3   13   11      6.54      0.00
   -2   13   11     -5.39      0.00
   -1   13   11     -3.54      0.00
    0   13   11      0.63      0.00
  -13   14   11      0.85      0.00
  -12   14   11     -0.10      0.00
  -11   14   11     -1.88      0.00
  -10   14   11     -0.94      0.00
   -9   14   11     -2.96      0.00
   -8   14   11      5.25      0.00
   -7   14   11     -0.73      0.00
   -6   14   11     -2.37      0.00
   -5   14   11      3.47      0.00
   -4   14   11      5.60      0.00
   -3   14   11      4.73      0.00
   -2   14   11     -0.18      0.00
   -1   14   11      2.40      0.00
    0   14   11      3.36      0.00
  -14   15   11     -2.15      0.00
  -13   15   11     -1.66      0.00
  -12   15   11      2.82      0.00
  -11   15   11     -6.15      0.00
  -10   15   11     -3.07      0.00
   -9   15   11     -2.88      0.00
   -8   15   11      3.01      0.00
   -7   15   11      3.45      0.00
   -6   15   11      5.18      0.00
   -5   15   11      0.94      0.00
   -4   15   11      2.98      0.00
   -3   15   11      1.25      0.00
   -2   15   11      4.70      0.00
   -1   15   11      2.14      0.00
    0   15   11     -7.71      0.00
  -15   16   11      1.91      0.00
  -14   16   11      2.74      0.00
  -13   16   11     -3.00      0.00
  -12   16   11     -1.09      0.00
  -11   16   11     -8.63      0.00
  -10   16   11     -4.64      0.00
   -9   16   11     -0.13      0.00
   -8   16   11      3.21      0.00
   -7   16   11      4.86      0.00
   -6   16   11      0.05      0.00
   -5   16   11      1.68      0.00
   -4   16   11      1.17      0.00
   -3   16   11      1.18      0.00
   -2   16   11     -0.83      0.00
   -1   16   11     -0.30      0.00
    0   16   11     -3.28      0.00
  -16   17   11     -4.14      0.00
  -15   17   11      1.30      0.00
  -14   17   11      0.58      0.00
  -13   17   11      6.65      0.00
  -12   17   11     -0.76      0.00
  -11   17   11     -7.37      0.00
  -10   17   11     -5.09      0.00
   -9   17   11      2.94      0.00
   -8   17   11     -0.14      0.00
   -7   17   11      3.70      0.00
   -6   17   11     -0.56      0.00
   -5   17   11     -0.78      0.00
   -4   17   11      0.16      0.00
   -3   17   11     -3.01      0.00
   -2   17   11      3.49      0.00
   -1   17   11     -1.55      0.00
    0   17   11     -3.89      0.00
  -17   18   11     -2.29      0.00
  -16   18   11     -5.79      0.00
  -15   18   11      0.75      0.00
  -14   18   11     -1.58      0.00
  -13   18   11      1.62      0.00
  -12   18   11     -7.84      0.00
  -11   18   11      2.35      0.00
  -10   18   11     -1.14      0.00
   -9   18   11     -0.15      0.00
   -8   18   11      3.51      0.00
   -7   18   11     -0.01      0.00
   -6   18   11      2.20      0.00
   -5   18   11     -1.88      0.00
   -4   18   11      0.43      0.00
   -3   18   11      3.22      0.00
   -2   18   11     -1.93      0.00
   -1   18   11     -5.18      0.00
    0   18   11      0.59      0.00
  -18   19   11     -3.25      0.00
  -17   19   11     -4.63      0.00
  -16   19   11      1.64      0.00
  -15   19   11     -1.21      0.00
  -14   19   11     -4.92      0.00
  -13   19   11     -2.73      0.00
  -12   19   11     -4.97      0.00
  -11   19   11      3.83      0.00
  -10   19   11      2.20      0.00
   -9   19   11     -0.60      0.00
   -8   19   11     -3.41      0.00
   -7   19   11     -2.58      0.00
   -6   19   11      3.30      0.00
   -5   19   11      4.94      0.00
   -4   19   11      3.12      0.00
   -3   19   11     -1.19      0.00
   -2   19   11      1.16      0.00
   -1   19   11     -3.10      0.00
    0   19   11     -8.13      0.00
  -19   20   11     -8.42      0.00
  -18   20   11     -3.97      0.00
  -17   20   11     -4.96      0.00
  -16   20   11     -2.60      0.00
  -15   20   11     -6.05      0.00
  -14   20   11      2.92      0.00
  -13   20   11     -1.54      0.00
  -12   20   11      2.86      0.00
  -11   20   11      4.25      0.00
  -10   20   11     -0.21      0.00
   -9   20   11     -1.06      0.00
   -8   20   11     -3.82      0.00
   -7   20   11     -6.60      0.00
   -6   20   11      0.25      0.00
   -5   20   11      1.06      0.00
   -4   20   11      3.53      0.00
   -3   20   11      3.57      0.00
   -2   20   11     -1.36      0.00
   -1   20   11     -7.46      0.00
    0   20   11     -7.61      0.00
  -20   21   11    -10.03      0.00
  -19   21   11     -0.84      0.00
  -18   21   11      1.19      0.00
  -17   21   11      1.47      0.00
  -16   21   11      1.64      0.00
  -15   21   11     -5.73      0.00
  -14   21   11     -3.07      0.00
  -13   21   11     -0.09      0.00
  -12   21   11     10.12      0.00
  -11   21   11     -3.18      0.00
  -10   21   11      0.43      0.00
   -9   21   11     -0.38      0.00
   -8   21   11     -2.81      0.00
   -7   21   11     -1.05      0.00
   -6   21   11     -6.95      0.00
   -5   21   11      0.88      0.00
   -4   21   11     -0.04      0.00
   -3   21   11     -1.17      0.00
   -2   21   11     -5.83      0.00
   -1   21   11     -4.96      0.00
  -19   22   11      1.03      0.00
  -18   22   11      1.70      0.00
  -17   22   11      7.36      0.00
  -16   22   11     -0.31      0.00
  -15   22   11     -1.45      0.00
  -14   22   11      2.91      0.00
  -13   22   11      0.40      0.00
  -12   22   11     -2.90      0.00
  -11   22   11     -8.03      0.00
  -10   22   11     -2.54      0.00
   -9   22   11      4.28      0.00
   -8   22   11      2.29      0.00
   -7   22   11      1.05      0.00
   -6   22   11     -8.46      0.00
   -5   22   11     -3.14      0.00
   -4   22   11     -0.60      0.00
   -3   22   11      1.46      0.00
  -17   23   11     -2.57      0.00
  -16   23   11     -4.53      0.00
  -15   23   11      2.02      0.00
  -14   23   11      1.01      0.00
  -13   23   11      2.57      0.00
  -12   23   11     -8.00      0.00
  -11   23   11     -8.48      0.00
  -10   23   11      1.24      0.00
   -9   23   11      4.29      0.00
   -8   23   11      2.65      0.00
   -7   23   11     -5.16      0.00
    0    0   12     22.68      0.00
    0    1   12      2.79      0.00
   -1    2   12      1.75      0.00
    0    2   12     -6.32      0.00
   -2    3   12     -0.35      0.00
   -1    3   12     -3.19      0.00
    0    3   12     -3.33      0.00
   -3    4   12      0.99      0.00
   -2    4   12      5.45      0.00
   -1    4   12      4.81      0.00
    0    4   12     -2.19      0.00
   -4    5   12     -7.78      0.00
   -3    5   12      1.39      0.00
   -2    5   12      3.97      0.00
   -1    5   12     -0.87      0.00
    0    5   12      5.44      0.00
   -5    6   12     -4.53      0.00
   -4    6   12      0.21      0.00
   -3    6   12     -0.70      0.00
   -2    6   12     -1.25      0.00
   -1    6   12      2.57      0.00
    0    6   12      0.97      0.00
   -6    7   12     -0.63      0.00
   -5    7   12     -5.13      0.00
   -4    7   12     -3.71      0.00
   -3    7   12     -0.03      0.00
   -2    7   12     -1.49      0.00
   -1    7   12      2.53      0.00
    0    7   12      1.57      0.00
   -7    8   12      6.22      0.00
   -6    8   12     -3.96      0.00
   -5    8   12     -3.61      0.00
   -4    8   12      1.23      0.00
   -3    8   12     -3.76      0.00
   -2    8   12     -2.20      0.00
   -1    8   12      4.77      0.00
    0    8   12      3.43      0.00
   -8    9   12      3.97      0.00
   -7    9   12     -3.61      0.00
   -6    9   12      1.05      0.00
   -5    9   12      3.96      0.00
   -4    9   12      1.24      0.00
   -3    9   12     -1.84      0.00
   -2    9   12     -1.84      0.00
   -1    9   12      2.12      0.00
    0    9   12      4.25      0.00
   -9   10   12      5.81      0.00
   -8   10   12      0.27      0.00
   -7   10   12     -4.66      0.00
   -6   10   12      0.59      0.00
   -5   10   12      4.02      0.00
   -4   10   12      2.21      0.00
   -3   10   12     -0.82      0.00
   -2   10   12      2.28      0.00
   -1   10   12      1.54      0.00
    0   10   12      6.28      0.00
  -10   11   12      2.79      0.00
   -9   11   12      7.74      0.00
   -8   11   12      5.05      0.00
   -7   11   12      0.62      0.00
   -6   11   12     -1.91      0.00
   -5   11   12     -4.41      0.00
   -4   11   12      1.50      0.00
   -3   11   12      2.52      0.00
   -2   11   12      1.79      0.00
   -1   11   12     -1.13      0.00
    0   11   12      1.90      0.00
  -11   12   12      3.17      0.00
  -10   12   12      1.58      0.00
   -9   12   12      3.41      0.00
   -8   12   12      2.95      0.00
   -7   12   12      1.51      0.00
   -6   12   12     -5.03      0.00
   -5   12   12     -0.44      0.00
   -4   12   12     -1.87      0.00
   -3   12   12     -0.78      0.00
   -2   12   12      1.23      0.00
   -1   12   12     -3.78      0.00
    0   12   12      1.30      0.00
  -12   13   12      2.04      0.00
  -11   13   12      1.80      0.00
  -10   13   12      2.08      0.00
   -9   13   12     -1.37      0.00
   -8   13   12     -6.90      0.00
   -7   13   12     -2.14      0.00
   -6   13   12     -3.48      0.00
   -5   13   12     -0.80      0.00
   -4   13   12      1.23      0.00
   -3   13   12     -0.70      0.00
   -2   13   12     -2.18      0.00
   -1   13   12      0.04      0.00
    0   13   12      5.19      0.00
  -13   14   12      3.63      0.00
  -12   14   12      4.37      0.00
  -11   14   12     -1.15      0.00
  -10   14   12     -4.34      0.00
   -9   14   12     -3.86      0.00
   -8   14   12     -1.62      0.00
   -7   14   12     -6.59      0.00
   -6   14   12     -0.58      0.00
   -5   14   12      5.83      0.00
   -4   14   12     -0.14      0.00
   -3   14   12     -0.84      0.00
   -2   14   12     -3.67      0.00
   -1   14   12      5.69      0.00
    0   14   12      5.28      0.00
  -14   15   12      2.41      0.00
  -13   15   12      3.47      0.00
  -12   15   12     -0.58      0.00
  -11   15   12     -8.09      0.00
  -10   15   12      0.51      0.00
   -9   15   12      0.28      0.00
   -8   15   12     -3.73      0.00
   -7   15   12      0.72      0.00
   -6   15   12      7.45      0.00
   -5   15   12      4.10      0.00
   -4   15   12     -0.05      0.00
   -3   15   12      0.38      0.00
   -2   15   12     -0.32      0.00
   -1   15   12      3.21      0.00
    0   15   12     -5.35      0.00
  -15   16   12     -0.91      0.00
  -14   16   12      3.02      0.00
  -13   16   12     -4.20      0.00
  -12   16   12     -1.63      0.00
  -11   16   12      2.17      0.00
  -10   16   12     -0.70      0.00
   -9   16   12     -2.45      0.00
   -8   16   12      0.51      0.00
   -7   16   12     -1.91      0.00
   -6   16   12      5.38      0.00
   -5   16   12      5.89      0.00
   -4   16   12      3.78      0.00
   -3   16   12     -0.76      0.00
   -2   16   12     -4.77      0.00
   -1   16   12     -1.15      0.00
    0   16   12     -2.03      0.00
  -16   17   12     -2.02      0.00
  -15   17   12     -1.37      0.00
  -14   17   12     -3.38      0.00
  -13   17   12      4.98      0.00
  -12   17   12      1.81      0.00
  -11   17   12     -0.97      0.00
  -10   17   12      0.31      0.00
   -9   17   12     -4.13      0.00
   -8   17   12     -4.83      0.00
   -7   17   12     -0.09      0.00
   -6   17   12      1.08      0.00
   -5   17   12      2.28      0.00
   -4   17   12     -0.21      0.00
   -3   17   12     -3.09      0.00
   -2   17   12      1.20      0.00
   -1   17   12     -1.08      0.00
    0   17   12      0.83      0.00
  -17   18   12      8.51      0.00
  -16   18   12     -0.69      0.00
  -15   18   12      3.53      0.00
  -14   18   12     -6.06      0.00
  -13   18   12     -6.52      0.00
  -12   18   12     -2.76      0.00
  -11   18   12      6.29      0.00
  -10   18   12     -1.32      0.00
   -9   18   12     -3.44      0.00
   -8   18   12     -3.15      0.00
   -7   18   12     -1.91      0.00
   -6   18   12     -2.12      0.00
   -5   18   12     -3.50      0.00
   -4   18   12      2.54      0.00
   -3   18   12      1.66      0.00
   -2   18   12      0.03      0.00
   -1   18   12     -1.84      0.00
  -15   19   12      1.29      0.00
  -14   19   12    -10.20      0.00
  -13   19   12     -3.49      0.00
  -12   19   12      0.25      0.00
  -11   19   12      1.70      0.00
  -10   19   12      0.94      0.00
   -9   19   12     -1.87      0.00
   -8   19   12     -1.93      0.00
   -7   19   12      0.01      0.00
   -6   19   12      1.39      0.00
   -5   19   12     -1.76      0.00
   -4   19   12     -0.47      0.00
  -12   20   12      4.51      0.00
  -11   20   12      6.08      0.00
  -10   20   12      1.63      0.00
   -9   20   12      0.08      0.00
   -8   20   12     -1.63      0.00
    0    0   13     -7.74      0.00
    0    1   13     -8.25      0.00
   -1    2   13     -1.88      0.00
    0    2   13     -0.99      0.00
   -2    3   13     -1.28      0.00
   -1    3   13      4.47      0.00
    0    3   13     -1.50      0.00
   -3    4   13      0.00      0.00
   -2    4   13     -4.44      0.00
   -1    4   13     -3.90      0.00
    0    4   13      3.96      0.00
   -4    5   13      4.72      0.00
   -3    5   13     -2.65      0.00
   -2    5   13      3.78      0.00
   -1    5   13      3.57      0.00
    0    5   13      3.50      0.00
   -5    6   13      4.65      0.00
   -4    6   13      8.69      0.00
   -3    6   13      6.72      0.00
   -2    6   13      0.61      0.00
   -1    6   13      0.78      0.00
    0    6   13     -0.14      0.00
   -6    7   13     -3.59      0.00
   -5    7   13      3.94      0.00
   -4    7   13      5.64      0.00
   -3    7   13      3.85      0.00
   -2    7   13      0.19      0.00
   -1    7   13     -6.39      0.00
    0    7   13     -8.87      0.00
   -7    8   13     -5.06      0.00
   -6    8   13     -1.12      0.00
   -5    8   13     -5.01      0.00
   -4    8   13     -4.46      0.00
   -3    8   13     -0.71      0.00
   -2    8   13     -2.62      0.00
   -1    8   13     -4.03      0.00
    0    8   13     -6.81      0.00
   -8    9   13     -6.36      0.00
   -7    9   13     -4.03      0.00
   -6    9   13     -2.71      0.00
   -5    9   13     -0.82      0.00
   -4    9   13     -4.38      0.00
   -3    9   13     -4.27      0.00
   -2    9   13     -2.51      0.00
   -1    9   13      1.04      0.00
    0    9   13     -3.59      0.00
   -9   10   13     -1.64      0.00
   -8   10   13     -6.27      0.00
   -7   10   13     -4.15      0.00
   -6   10   13     -0.78      0.00
   -5   10   13      1.20      0.00
   -4   10   13     -0.75      0.00
   -3   10   13     -1.23      0.00
   -2   10   13      1.47      0.00
   -1   10   13     -0.27      0.00
    0   10   13      2.56      0.00
  -10   11   13      2.18      0.00
   -9   11   13      0.24      0.00
   -8   11   13      1.08      0.00
   -7   11   13      0.48      0.00
   -6   11   13     -4.18      0.00
   -5   11   13     -2.52      0.00
   -4   11   13      4.92      0.00
   -3   11   13     -1.42      0.00
   -2   11   13     -0.94      0.00
   -1   11   13     -0.13      0.00
    0   11   13      1.05      0.00
  -11   12   13      1.89      0.00
  -10   12   13     -5.21      0.00
   -9   12   13     -0.75      0.00
   -8   12   13      0.70      0.00
   -7   12   13     -0.38      0.00
   -6   12   13     -0.42      0.00
   -5   12   13      0.51      0.00
   -4   12   13     -2.07      0.00
   -3   12   13     -1.78      0.00
   -2   12   13     -1.64      0.00
   -1   12   13     -3.42      0.00
    0   12   13      6.85      0.00
  -12   13   13      2.19      0.00
  -11   13   13      1.09      0.00
  -10   13   13      0.89      0.00
   -9   13   13     -1.41      0.00
   -8   13   13     -2.72      0.00
   -7   13   13      0.12      0.00
   -6   13   13     -2.12      0.00
   -5   13   13     -2.36      0.00
   -4   13   13      0.86      0.00
   -3   13   13      2.50      0.00
   -2   13   13     -0.72      0.00
   -1   13   13      1.51      0.00
    0   13   13      4.05      0.00
  -12   14   13      2.75      0.00
  -11   14   13      1.82      0.00
  -10   14   13      0.37      0.00
   -9   14   13     -0.44      0.00
   -8   14   13      2.19      0.00
   -7   14   13     -5.51      0.00
   -6   14   13      0.49      0.00
   -5   14   13      5.48      0.00
   -4   14   13      0.54      0.00
   -3   14   13      3.26      0.00
   -2   14   13     -0.25      0.00
  -10   15   13      3.09      0.00
   -9   15   13     -2.55      0.00
   -8   15   13     -1.36      0.00
   -7   15   13      4.29      0.00
   -6   15   13      3.34      0.00
   -5   15   13      0.67      0.00
    0    0   14      8.09      0.00
    0    1   14    -17.58      0.00
   -1    2   14     -9.88      0.00
    0    2   14    -13.52      0.00
   -2    3   14     -3.96      0.00
   -1    3   14      1.41      0.00
    0    3   14     -5.13      0.00
   -3    4   14      7.55      0.00
   -2    4   14      2.55      0.00
   -1    4   14      1.12      0.00
    0    4   14      0.75      0.00
   -4    5   14      0.98      0.00
   -3    5   14      2.66      0.00
   -2    5   14      4.25      0.00
   -1    5   14      1.62      0.00
    0    5   14      0.10      0.00
   -5    6   14    -10.85      0.00
   -4    6   14     -3.53      0.00
   -3    6   14      0.48      0.00
   -2    6   14      3.36      0.00
   -1    6   14     -3.73      0.00
    0    6   14     -3.33      0.00
   -4    7   14      1.74      0.00
   -3    7   14     -1.15      0.00
    0    1    0    413.78      0.00
   -1    2    0    196.57      0.00
    0    2    0     -4.50      0.00
   -2    3    0    -86.39      0.00
   -1    3    0    112.45      0.00
  -32   33    0      5.47      0.00
   -1   33    0     -8.51      0.00
  -31   34    0      4.67      0.00
   -3   34    0      3.52      0.00
  -25   37    0      4.73      0.00
  -24   37    0      0.15      0.00
  -13   37    0      2.79      0.00
  -12   37    0      2.20      0.00
    0    0    1    109.09      0.00
    0    1    1    -61.76      0.00
  -32   33    1      3.30      0.00
   -1   33    1     -5.35      0.00
  -31   34    1      0.47      0.00
   -3   34    1     -0.99      0.00
  -29   35    1     -1.40      0.00
   -6   35    1      7.00      0.00
  -27   36    1     -1.86      0.00
   -9   36    1     -1.80      0.00
  -24   37    1      1.28      0.00
  -13   37    1      1.60      0.00
  -30   34    2      0.79      0.00
   -4   34    2     -2.48      0.00
  -29   35    2      4.27      0.00
   -6   35    2      0.74      0.00
  -26   36    2      0.01      0.00
  -10   36    2     -3.14      0.00
  -23   37    2     -0.09      0.00
  -22   37    2      0.70      0.00
  -15   37    2     -5.29      0.00
  -14   37    2     -0.17      0.00
    0   32    3     -1.31      0.00
  -29   34    3      5.77      0.00
   -5   34    3     -2.60      0.00
  -27   35    3      9.58      0.00
   -8   35    3     -3.53      0.00
  -25   36    3      1.08      0.00
  -24   36    3     -4.68      0.00
  -12   36    3     -9.49      0.00
  -11   36    3     -6.28      0.00
  -29   33    4    -11.48      0.00
   -4   33    4      1.25      0.00
  -28   34    4     -5.48      0.00
   -6   34    4      3.71      0.00
  -25   35    4      2.96      0.00
  -10   35    4      0.85      0.00
  -22   36    4     -0.55      0.00
  -21   36    4     -2.78      0.00
  -20   36    4      0.18      0.00
  -19   36    4     -0.63      0.00
  -18   36    4      2.45      0.00
  -17   36    4      0.10      0.00
  -16   36    4      0.07      0.00
  -15   36    4     -2.28      0.00
  -14   36    4      2.34      0.00
  -30   31    5     -4.18      0.00
   -1   31    5      1.96      0.00
  -29   32    5      2.23      0.00
   -3   32    5      3.25      0.00
  -27   33    5     -1.34      0.00
   -6   33    5     -3.66      0.00
  -25   34    5     -1.01      0.00
   -9   34    5     -0.21      0.00
  -22   35    5     -0.29      0.00
  -21   35    5      1.28      0.00
  -20   35    5      3.36      0.00
  -15   35    5      2.49      0.00
  -14   35    5     -0.26      0.00
  -13   35    5      0.04      0.00
  -29   30    6      0.47      0.00
   -1   30    6      2.68      0.00
  -28   31    6     -4.01      0.00
   -3   31    6     -4.12      0.00
   -6   32    6     -4.51      0.00
  -24   33    6      0.49      0.00
   -9   33    6      5.50      0.00
  -21   34    6     -1.38      0.00
  -20   34    6     -0.27      0.00
  -19   34    6     -0.85      0.00
  -18   34    6      0.31      0.00
  -16   34    6     -1.93      0.00
  -15   34    6     -4.98      0.00
  -14   34    6      0.07      0.00
  -13   34    6     -2.89      0.00
  -28   29    7      2.55      0.00
   -1   29    7     -1.86      0.00
  -25   31    7     -3.84      0.00
   -6   31    7     -0.32      0.00
  -23   32    7      7.61      0.00
  -22   32    7      1.05      0.00
  -10   32    7     -0.07      0.00
   -9   32    7      1.11      0.00
  -17   33    7     -1.37      0.00
  -16   33    7      3.48      0.00
    0   27    8      3.97      0.00
  -26   28    8      1.88      0.00
   -2   28    8     -1.83      0.00
  -23   30    8     -1.85      0.00
  -22   30    8      1.38      0.00
   -8   30    8     -0.48      0.00
   -7   30    8      1.88      0.00
  -19   31    8      0.16      0.00
  -18   31    8     -0.44      0.00
  -17   31    8     -0.88      0.00
  -14   31    8      0.74      0.00
  -13   31    8     -3.59      0.00
  -12   31    8     -9.38      0.00
  -25   26    9     -3.75      0.00
   -1   26    9      7.35      0.00
  -23   27    9      2.40      0.00
   -4   27    9     -4.06      0.00
  -21   28    9     -2.74      0.00
   -7   28    9     -2.42      0.00
  -19   29    9     -1.34      0.00
  -18   29    9      1.12      0.00
  -17   29    9      0.99      0.00
  -12   29    9     -0.41      0.00
  -11   29    9      3.09      0.00
  -10   29    9      1.41      0.00
  -21   25   10      2.08      0.00
   -4   25   10      1.33      0.00
  -19   26   10     -0.33      0.00
   -7   26   10      0.97      0.00
  -15   27   10     -2.75      0.00
  -14   27   10      0.79      0.00
  -13   27   10      2.86      0.00
  -12   27   10     -0.06      0.00
    0   21   11     -4.60      0.00
  -18   23   11      0.34      0.00
   -6   23   11     -4.63      0.00
   -5   23   11     -1.07      0.00
  -15   24   11      0.58      0.00
  -14   24   11     -0.02      0.00
  -13   24   11     -4.37      0.00
  -12   24   11     -6.66      0.00
  -11   24   11      0.37      0.00
  -10   24   11      3.44      0.00
   -9   24   11      1.36      0.00
    0   18   12      6.24      0.00
  -16   19   12      9.75      0.00
   -3   19   12     -3.05      0.00
  -14   20   12      0.29      0.00
  -13   20   12     -1.28      0.00
   -7   20   12      1.96      0.00
   -6   20   12      0.42      0.00
  -13   14   13      1.73      0.00
   -1   14   13      1.38      0.00
  -12   15   13      2.30      0.00
  -11   15   13      0.50      0.00
   -4   15   13      1.02      0.00
   -3   15   13      0.84      0.00
   -9   16   13      1.49      0.00
   -8   16   13      3.62      0.00
   -7   16   13      3.25      0.00
   -6    7   14     -7.65      0.00
   -5    7   14     -6.53      0.00
   -2    7   14      0.30      0.00
   -1    7   14     -0.49      0.00
    0    7   14     -4.49      0.00
   -6    8   14     -3.59      0.00
   -5    8   14     -1.10      0.00
   -4    8   14      1.61      0.00
   -3    8   14      4.00      0.00
   -2    8   14      3.40      0.00
    0    0    0      0.00      0.00
# SQUEEZE RESULTS (Version =  50315)
# Note: Data are Listed for all Voids in the P1 Unit Cell
# i.e. Centre of Gravity, Solvent Accessible Volume,
# Recovered number of Electrons in the Void and
# Details about the Squeezed Material
loop_
  _platon_squeeze_void_nr
  _platon_squeeze_void_average_x
  _platon_squeeze_void_average_y
  _platon_squeeze_void_average_z
  _platon_squeeze_void_volume
  _platon_squeeze_void_count_electrons
  _platon_squeeze_void_content
   1  0.000  0.000 -0.019      2164       807 ' '
   2  0.179  0.697  0.000       127        52 ' '
   3  0.202  0.575  0.500        35         9 ' '
   4  0.303  0.482  0.000       126        52 ' '
   5  0.333  0.667  0.000         7        -1 ' '
   6  0.373  0.798  0.500        36         9 ' '
   7  0.425  0.627  0.500        36         9 ' '
   8  0.482  0.179  0.000       126        52 ' '
   9  0.518  0.821  0.000       126        52 ' '
  10  0.575  0.373  0.500        35         9 ' '
  11  0.627  0.202  0.500        36         9 ' '
  12  0.697  0.518  0.000       125        52 ' '
  13  0.667  0.333  0.000         7        -1 ' '
  14  0.821  0.303  0.000       128        52 ' '
  15  0.798  0.425  0.500        36         9 ' '
# Missing Reflections Below sin(th)/lambda = 0.25
loop_
  _platon_missing_refln_index_h
  _platon_missing_refln_index_k
  _platon_missing_refln_index_l
  _platon_missing_refln_theta
    0    1    0     0.784
   -1    2    0     1.358
    0    2    0     1.568
   -2    3    0     2.075
   -1    3    0     2.075
    0    0    1     1.786
    0    1    1     1.951
_platon_squeeze_void_probe_radius                  1.20
_platon_squeeze_details
)
TITL jxf111    P 6/m        R = 0.13
CELL   29.9830   29.9830   11.3990     90.00     90.00    120.00
SPGR P6/m
# Solvent Accessible Volume =    3205.8
# Electrons Found in S.A.V. =    1160.4
# Note: Atoms in Void as Cxxx and Qxxx all others
C101 0.622 0.445 0.000 !       8.51 eA-3
C102 0.664 0.484-0.002 !       5.22 eA-3
C103 0.830 0.305 0.002 !       4.64 eA-3
C104 0.823 0.258-0.004 !       4.17 eA-3
C105 0.828 0.078 0.230 !       4.13 eA-3
C106 0.110 0.266 0.504 !       4.12 eA-3
C107 0.210 0.172 0.182 !       3.91 eA-3
C108 1.000 1.001 0.172 !       3.67 eA-3
Q109 0.676 0.023 0.498 !       3.65 eA-3
C110 0.142 0.320 0.496 !       3.60 eA-3
C111 0.816 0.430 0.498 !       3.47 eA-3
Q112 0.184 0.422-0.003 !       3.34 eA-3
Q113 0.414 0.326 0.403 !       3.02 eA-3
Q114 0.313 0.468 0.158 !       2.79 eA-3
Q115 0.406 0.422-0.001 !       2.78 eA-3
C116 0.164 0.266 0.500 !       2.58 eA-3
C117 0.165 1.000 0.210 !       2.53 eA-3
Q118 0.827 0.391 0.505 !       2.49 eA-3
Q119 0.859 0.188 0.505 !       2.49 eA-3
C120 0.243 0.187 0.118 !       2.33 eA-3
C121 1.000 1.000 0.328 !       2.11 eA-3
Q122 0.414 0.375 0.496 !       1.91 eA-3
C123 1.000 1.003 0.047 !       1.84 eA-3
C124 0.985 0.837 0.337 !       1.83 eA-3
Q125 0.297 0.445 0.493 !       1.81 eA-3
C126 0.821 0.047-0.006 !       1.72 eA-3
C127 0.036 0.023-0.001 !       1.70 eA-3
Q128 0.472 0.398 0.504 !       1.68 eA-3
C129 0.267 0.203 0.498 !       1.65 eA-3
Q130 0.354 0.070-0.002 !       1.65 eA-3
Q131 0.404 0.397 0.423 !       1.65 eA-3
Q132 0.485 0.367 0.006 !       1.57 eA-3
Q133 0.432 1.000 0.508 !       1.57 eA-3
Q134 0.348 0.289 0.002 !       1.52 eA-3
C135 0.856 0.836 0.276 !       1.43 eA-3
Q136 0.346 0.219 0.494 !       1.42 eA-3
C137 0.833 0.016-0.002 !       1.40 eA-3
C138 0.999 0.158 0.048 !       1.38 eA-3
C139 0.961 0.953 0.056 !       1.38 eA-3
C140 0.134 0.155 0.131 !       1.36 eA-3
Q141 0.308 0.031-0.008 !       1.35 eA-3
C142 0.866 0.070-0.005 !       1.27 eA-3
C143 0.270 0.153 0.360 !       1.27 eA-3
C144 0.015 0.976 0.189 !       1.26 eA-3
Q145 0.900 0.352 0.504 !       1.24 eA-3
C146 0.989 0.023 0.283 !       1.21 eA-3
C147 0.010 0.047 0.240 !       1.21 eA-3
Q148 0.874 0.250 0.498 !       1.20 eA-3
C149 0.691 0.469 0.004 !       1.19 eA-3
C150 0.508 0.141 0.005 !       1.18 eA-3
Q151 0.431 0.094 0.002 !       1.18 eA-3
C152 0.219 0.414 0.004 !       1.17 eA-3
C153 0.726 0.538 0.132 !       1.16 eA-3
C154 0.139 0.164 0.004 !       1.16 eA-3
C155 0.996 0.897 0.328 !       1.15 eA-3
Q156 0.583 0.313 0.343 !       1.15 eA-3
Q157 0.375 0.960 0.340 !       1.14 eA-3
C158 0.144 0.135 0.272 !       1.14 eA-3
C159 0.422 0.149 0.113 !       1.14 eA-3
Q160 0.218 0.219 0.004 !       1.12 eA-3
C161 0.933 0.813 0.098 !       1.12 eA-3
C162 0.068 0.047-0.004 !       1.11 eA-3
C163 0.120 0.939 0.085 !       1.10 eA-3
C164 0.031 0.993 0.327 !       1.09 eA-3
C165 0.262 0.398-0.005 !       1.09 eA-3
Q166 0.126 0.695 0.248 !       1.09 eA-3
C167 0.166 0.063-0.005 !       1.08 eA-3
Q168 0.969 0.400 0.077 !       1.07 eA-3
C169 0.195 0.190 0.042 !       1.07 eA-3
C170 0.202 0.977 0.301 !       1.06 eA-3
C171 0.024 0.883 0.026 !       1.05 eA-3
C172 0.448 0.227-0.010 !       1.04 eA-3
C173 0.050 0.995 0.315 !       1.04 eA-3
C174 0.689 0.571 0.120 !       1.01 eA-3
Q175 0.717 0.587 0.182 !       1.01 eA-3
Q176 0.069 0.773 0.254 !       1.01 eA-3
C177 0.011 0.131 0.394 !       0.99 eA-3
Q178 0.695 0.242-0.006 !       0.99 eA-3
C179 0.865 0.305-0.001 !       0.98 eA-3
Q180 0.946 0.463 0.260 !       0.97 eA-3
Q181 0.930 0.432 0.265 !       0.96 eA-3
Q182 0.861 0.305 0.356 !       0.96 eA-3
C183 0.070 0.016 0.002 !       0.95 eA-3
Q184 0.752 0.055-0.002 !       0.94 eA-3
C185 0.125 0.137 0.198 !       0.94 eA-3
C186 0.087 0.219 0.493 !       0.93 eA-3
Q187 0.088 0.297-0.011 !       0.93 eA-3
C188 0.930 0.954 0.385 !       0.92 eA-3
Q189 0.856 0.367 0.141 !       0.92 eA-3
Q190 0.242 0.836 0.264 !       0.91 eA-3
C191 0.937 0.977 0.378 !       0.91 eA-3
C192 0.824 0.876 0.941 !       0.91 eA-3
Q193 0.477 0.094 0.006 !       0.90 eA-3
Q194 0.501 0.187 0.502 !       0.90 eA-3
Q195 0.942 0.656 0.057 !       0.90 eA-3
C196 0.102 0.953 0.036 !       0.90 eA-3
Q197 0.539 0.437 0.501 !       0.89 eA-3
Q198 0.979 0.398 0.500 !       0.89 eA-3
C199 0.012 0.156 0.009 !       0.88 eA-3
)
;
_shelx_shelxl_version_number     2014/7
_olex2_submission_special_instructions 'No special instructions were received'
loop_
_space_group_symop_operation_xyz
'x, y, z'
'x-y, x, z'
'-y, x-y, z'
'-x, -y, z'
'-x+y, -x, z'
'y, -x+y, z'
'-x, -y, -z'
'-x+y, -x, -z'
'y, -x+y, -z'
'x, y, -z'
'x-y, x, -z'
'-y, x-y, -z'
loop_
_atom_site_label
_atom_site_type_symbol
_atom_site_fract_x
_atom_site_fract_y
_atom_site_fract_z
_atom_site_U_iso_or_equiv
_atom_site_adp_type
_atom_site_occupancy
_atom_site_site_symmetry_order
_atom_site_calc_flag
_atom_site_refinement_flags_posn
_atom_site_refinement_flags_adp
_atom_site_refinement_flags_occupancy
_atom_site_disorder_assembly
_atom_site_disorder_group
Pd1 Pd 0.47704(3) 0.36429(3) 1.0000 0.0249(2) Uani 1 2 d S T P A .
Pd2 Pd 0.35027(3) 0.29513(3) 1.0000 0.0288(3) Uani 1 2 d S T P . .
N5 N 0.5102(2) 0.4228(2) 0.8831(6) 0.0364(14) Uani 1 1 d . U . . .
N3 N 0.3035(2) 0.3030(2) 1.1163(6) 0.0357(15) Uani 1 1 d . . . . .
N2 N 0.3912(2) 0.2837(2) 0.8765(6) 0.0312(13) Uani 1 1 d . . . . .
N1 N 0.4440(2) 0.3083(2) 0.8797(5) 0.0276(13) Uani 1 1 d . . . . .
N4 N 0.6667 0.3333 0.7260(9) 0.027(2) Uani 1 3 d S T P . .
C7 C 0.3742(3) 0.2468(3) 0.7962(7) 0.0361(17) Uani 1 1 d . . . . .
H7 H 0.3399 0.2248 0.7767 0.043 Uiso 1 1 calc R . . . .
C8 C 0.4161(3) 0.2468(3) 0.7461(8) 0.0409(19) Uani 1 1 d . . . . .
H8 H 0.4154 0.2248 0.6877 0.049 Uiso 1 1 calc R . . . .
C9 C 0.4595(3) 0.2861(3) 0.8003(7) 0.0313(16) Uani 1 1 d . . . . .
C10 C 0.5136(3) 0.3004(3) 0.7811(7) 0.0288(15) Uani 1 1 d . . . . .
C11 C 0.5255(3) 0.2732(4) 0.7017(11) 0.071(4) Uani 1 1 d . . . . .
H11 H 0.4991 0.2472 0.6583 0.085 Uiso 1 1 calc R . . . .
C12 C 0.5748(3) 0.2831(4) 0.6845(10) 0.059(3) Uani 1 1 d . . . . .
H12 H 0.5811 0.2630 0.6325 0.071 Uiso 1 1 calc R . . . .
C13 C 0.6156(2) 0.3232(2) 0.7448(6) 0.0234(14) Uani 1 1 d . . . . .
C14 C 0.6044(3) 0.3508(4) 0.8202(9) 0.060(3) Uani 1 1 d . . . . .
H14 H 0.6309 0.3778 0.8613 0.071 Uiso 1 1 calc R . . . .
C15 C 0.5543(3) 0.3397(4) 0.8376(9) 0.063(3) Uani 1 1 d . . . . .
H15 H 0.5481 0.3599 0.8898 0.075 Uiso 1 1 calc R . . . .
C20 C 0.5177(11) 0.4185(9) 0.7647(17) 0.043(5) Uani 0.53(5) 1 d . U . A 1
H20 H 0.5015 0.3858 0.7311 0.052 Uiso 0.53(5) 1 calc R . . A 1
C16 C 0.5394(3) 0.4702(3) 0.9384(7) 0.0348(17) Uani 1 1 d D . . . .
C17 C 0.5670(4) 0.5160(3) 0.8776(9) 0.058(2) Uani 1 1 d D U . . .
C18 C 0.5745(13) 0.5082(10) 0.754(2) 0.069(7) Uani 0.53(5) 1 d . U . A 1
H18 H 0.5985 0.5371 0.7122 0.083 Uiso 0.53(5) 1 calc R . . A 1
C21 C 0.5965(3) 0.5619(3) 0.9406(10) 0.062(3) Uani 1 1 d . . . . .
H21 H 0.6162 0.5926 0.9003 0.074 Uiso 1 1 calc R . . . .
C4 C 0.2670(4) 0.3067(5) 1.2986(11) 0.074(3) Uani 1 1 d . . . . .
H4 H 0.2701 0.3094 1.3798 0.089 Uiso 1 1 calc R . . . .
C5 C 0.3060(4) 0.3064(4) 1.2295(8) 0.051(2) Uani 1 1 d . . . . .
H5 H 0.3347 0.3088 1.2671 0.062 Uiso 1 1 calc R . . . .
C1 C 0.2620(3) 0.3014(3) 1.0619(8) 0.0426(19) Uani 1 1 d . . . . .
C2 C 0.2217(4) 0.3007(4) 1.1251(10) 0.054(2) Uani 1 1 d . . . . .
C6 C 0.1793(4) 0.2964(4) 1.0573(11) 0.071(3) Uani 1 1 d . . . . .
H6 H 0.1507 0.2934 1.0966 0.085 Uiso 1 1 calc R . . . .
C3 C 0.2254(5) 0.3031(5) 1.2446(11) 0.078(4) Uani 1 1 d . . . . .
H3 H 0.1990 0.3021 1.2891 0.094 Uiso 1 1 calc R . . . .
C19 C 0.5492(15) 0.4621(10) 0.692(2) 0.081(10) Uani 0.53(5) 1 d . U . A 1
H19 H 0.5525 0.4597 0.6109 0.097 Uiso 0.53(5) 1 calc R . . A 1
P1 P 0.7029(6) 0.5595(6) 0.5000 0.199(5) Uani 1 2 d DS TU P . .
F3 F 0.7083(7) 0.5671(8) 0.3543(15) 0.253(7) Uani 1 1 d D U . . .
F4 F 0.7584(10) 0.5676(10) 0.5000 0.213(7) Uani 1 2 d DS TU P . .
F1 F 0.6737(11) 0.4910(8) 0.5000 0.272(9) Uani 1 2 d DS TU P . .
F2 F 0.6397(8) 0.5401(8) 0.462(3) 0.273(12) Uani 0.5 1 d D U . . .
F5 F 0.7172(12) 0.6136(10) 0.5000 0.278(9) Uani 1 2 d DS TU P . .
P2 P 0.58969(18) 0.63207(18) 0.5000 0.0702(12) Uani 1 2 d S TU P . .
F6 F 0.6156(6) 0.6876(6) 0.5000 0.172(5) Uani 1 2 d DS TU P . .
F7 F 0.5503(7) 0.5689(6) 0.5000 0.155(5) Uani 1 2 d S TU P . .
F8 F 0.6424(7) 0.6356(8) 0.5000 0.190(6) Uani 1 2 d DS TU P . .
F9 F 0.5907(3) 0.6241(4) 0.3698(8) 0.143(4) Uani 1 1 d . U . . .
F10 F 0.5357(5) 0.6237(7) 0.5000 0.136(4) Uani 1 2 d DS TU P . .
C18A C 0.5597(10) 0.5183(8) 0.7614(14) 0.051(6) Uani 0.47(5) 1 d D U . A 2
H18A H 0.5753 0.5488 0.7187 0.061 Uiso 0.47(5) 1 calc R . . A 2
C19A C 0.5269(9) 0.4713(7) 0.713(2) 0.046(6) Uani 0.47(5) 1 d D U . A 2
H19A H 0.5210 0.4698 0.6326 0.055 Uiso 0.47(5) 1 calc R . . A 2
C20A C 0.5011(10) 0.4240(8) 0.7785(19) 0.028(4) Uani 0.47(5) 1 d . U . A 2
H20A H 0.4773 0.3938 0.7411 0.034 Uiso 0.47(5) 1 calc R . . A 2
loop_
_atom_site_aniso_label
_atom_site_aniso_U_11
_atom_site_aniso_U_22
_atom_site_aniso_U_33
_atom_site_aniso_U_23
_atom_site_aniso_U_13
_atom_site_aniso_U_12
Pd1 0.0226(4) 0.0204(4) 0.0320(4) 0.000 0.000 0.0110(3)
Pd2 0.0202(4) 0.0275(4) 0.0386(5) 0.000 0.000 0.0120(3)
N5 0.036(3) 0.028(3) 0.041(3) 0.005(3) -0.007(3) 0.014(3)
N3 0.027(3) 0.033(3) 0.043(4) -0.001(3) 0.001(3) 0.012(3)
N2 0.018(3) 0.033(3) 0.038(3) -0.002(3) 0.001(3) 0.010(2)
N1 0.022(3) 0.024(3) 0.035(3) 0.000(3) -0.001(2) 0.010(2)
N4 0.020(3) 0.020(3) 0.040(6) 0.000 0.000 0.0099(14)
C7 0.020(3) 0.034(4) 0.046(5) -0.008(4) -0.004(3) 0.008(3)
C8 0.031(4) 0.038(4) 0.052(5) -0.014(4) -0.004(4) 0.016(3)
C9 0.023(3) 0.032(4) 0.038(4) -0.005(3) -0.001(3) 0.013(3)
C10 0.024(3) 0.025(3) 0.037(4) -0.004(3) -0.004(3) 0.012(3)
C11 0.028(4) 0.073(7) 0.107(9) -0.064(7) -0.017(5) 0.023(4)
C12 0.032(4) 0.066(6) 0.082(7) -0.048(6) -0.012(5) 0.026(4)
C13 0.021(3) 0.017(3) 0.033(4) 0.001(3) 0.002(3) 0.011(3)
C14 0.023(4) 0.074(6) 0.069(7) -0.046(6) -0.010(4) 0.015(4)
C15 0.032(4) 0.081(7) 0.067(6) -0.053(6) -0.007(4) 0.021(5)
C20 0.053(12) 0.043(8) 0.042(6) 0.005(5) -0.006(6) 0.029(8)
C16 0.033(4) 0.026(4) 0.047(4) 0.005(3) -0.008(3) 0.016(3)
C17 0.059(6) 0.036(4) 0.070(5) 0.017(4) -0.013(4) 0.017(4)
C18 0.090(16) 0.044(8) 0.067(7) 0.020(6) -0.014(7) 0.027(9)
C21 0.043(5) 0.021(4) 0.112(9) 0.016(4) -0.009(5) 0.009(4)
C4 0.069(7) 0.116(10) 0.057(7) -0.013(7) 0.008(6) 0.060(7)
C5 0.048(5) 0.067(6) 0.047(5) -0.008(5) 0.000(4) 0.035(5)
C1 0.031(4) 0.044(4) 0.059(5) -0.001(4) 0.002(4) 0.022(4)
C2 0.044(5) 0.066(6) 0.068(7) 0.001(5) 0.011(5) 0.040(5)
C6 0.039(5) 0.085(7) 0.105(9) 0.001(6) 0.007(5) 0.043(5)
C3 0.069(7) 0.102(9) 0.088(9) -0.006(7) 0.019(7) 0.060(7)
C19 0.098(19) 0.056(8) 0.064(8) 0.014(6) 0.002(8) 0.021(9)
P1 0.318(13) 0.271(11) 0.134(7) 0.000 0.000 0.241(11)
F3 0.345(17) 0.342(17) 0.169(9) 0.018(8) 0.003(8) 0.245(15)
F4 0.318(15) 0.270(17) 0.156(13) 0.000 0.000 0.226(14)
F1 0.40(2) 0.280(13) 0.24(2) 0.000 0.000 0.242(14)
F2 0.336(15) 0.35(2) 0.24(3) 0.029(15) 0.004(10) 0.250(15)
F5 0.40(2) 0.293(14) 0.260(19) 0.000 0.000 0.260(15)
P2 0.076(3) 0.070(3) 0.041(2) 0.000 0.000 0.019(2)
F6 0.209(12) 0.098(6) 0.134(11) 0.000 0.000 0.020(6)
F7 0.169(10) 0.111(7) 0.129(10) 0.000 0.000 0.027(6)
F8 0.152(8) 0.286(15) 0.124(11) 0.000 0.000 0.105(9)
F9 0.110(6) 0.138(7) 0.084(5) -0.028(4) 0.017(4) -0.011(5)
F10 0.117(7) 0.188(11) 0.082(8) 0.000 0.000 0.059(7)
C18A 0.063(12) 0.029(7) 0.064(7) 0.016(5) -0.012(7) 0.027(7)
C19A 0.054(11) 0.036(7) 0.048(7) 0.019(5) -0.001(7) 0.023(6)
C20A 0.031(9) 0.027(7) 0.039(6) 0.007(5) 0.001(5) 0.025(6)
loop_
_atom_type_symbol
_atom_type_description
_atom_type_scat_dispersion_real
_atom_type_scat_dispersion_imag
_atom_type_scat_source
C C 0.0030 0.0020 'International Tables Vol C Tables 4.2.6.8 and 6.1.1.4'
H H 0.0000 0.0000 'International Tables Vol C Tables 4.2.6.8 and 6.1.1.4'
F F 0.0170 0.0100 'International Tables Vol C Tables 4.2.6.8 and 6.1.1.4'
N N 0.0060 0.0030 'International Tables Vol C Tables 4.2.6.8 and 6.1.1.4'
P P 0.1020 0.0940 'International Tables Vol C Tables 4.2.6.8 and 6.1.1.4'
Pd Pd -0.9990 1.0070 'International Tables Vol C Tables 4.2.6.8 and 6.1.1.4'
loop_
_geom_angle_atom_site_label_1
_geom_angle_atom_site_label_2
_geom_angle_atom_site_label_3
_geom_angle
_geom_angle_site_symmetry_1
_geom_angle_site_symmetry_3
N5 Pd1 Pd2 117.19(18) 10_557 .
N5 Pd1 Pd2 117.19(18) . .
N5 Pd1 N5 82.3(4) 10_557 .
N1 Pd1 Pd2 62.71(16) 10_557 .
N1 Pd1 Pd2 62.71(16) . .
N1 Pd1 N5 177.7(3) . 10_557
N1 Pd1 N5 177.7(3) 10_557 .
N1 Pd1 N5 95.7(3) 10_557 10_557
N1 Pd1 N5 95.7(3) . .
N1 Pd1 N1 86.3(3) . 10_557
N3 Pd2 Pd1 125.00(18) 10_557 .
N3 Pd2 Pd1 125.00(18) . .
N3 Pd2 N3 81.7(4) . 10_557
N2 Pd2 Pd1 59.76(17) 10_557 .
N2 Pd2 Pd1 59.76(17) . .
N2 Pd2 N3 94.5(3) 10_557 .
N2 Pd2 N3 175.1(2) 10_557 10_557
N2 Pd2 N3 94.5(3) . 10_557
N2 Pd2 N3 175.1(2) . .
N2 Pd2 N2 89.1(4) 10_557 .
C20 N5 Pd1 126.3(10) . .
C20 N5 C16 119.2(11) . .
C16 N5 Pd1 111.9(5) . .
C20A N5 Pd1 130.1(10) . .
C20A N5 C16 116.5(11) . .
C5 N3 Pd2 130.2(6) . .
C5 N3 C1 118.0(7) . .
C1 N3 Pd2 111.6(5) . .
N1 N2 Pd2 121.9(5) . .
C7 N2 Pd2 128.0(5) . .
C7 N2 N1 108.9(6) . .
N2 N1 Pd1 115.0(4) . .
C9 N1 Pd1 137.0(5) . .
C9 N1 N2 108.0(6) . .
C13 N4 C13 117.8(3) 3_655 .
C13 N4 C13 117.8(3) 5_665 .
C13 N4 C13 117.8(3) 3_655 5_665
N2 C7 H7 125.7 . .
N2 C7 C8 108.5(6) . .
C8 C7 H7 125.7 . .
C7 C8 H8 126.8 . .
C7 C8 C9 106.4(7) . .
C9 C8 H8 126.8 . .
N1 C9 C8 108.2(6) . .
N1 C9 C10 124.2(6) . .
C8 C9 C10 127.5(7) . .
C11 C10 C9 119.9(7) . .
C15 C10 C9 124.1(7) . .
C15 C10 C11 116.0(7) . .
C10 C11 H11 118.8 . .
C12 C11 C10 122.5(8) . .
C12 C11 H11 118.8 . .
C11 C12 H12 119.9 . .
C11 C12 C13 120.2(8) . .
C13 C12 H12 119.9 . .
C12 C13 N4 119.9(6) . .
C14 C13 N4 122.5(7) . .
C14 C13 C12 117.6(7) . .
C13 C14 H14 119.4 . .
C13 C14 C15 121.3(8) . .
C15 C14 H14 119.4 . .
C10 C15 C14 122.3(8) . .
C10 C15 H15 118.8 . .
C14 C15 H15 118.8 . .
N5 C20 H20 118.5 . .
N5 C20 C19 123.0(18) . .
C19 C20 H20 118.5 . .
N5 C16 C16 116.9(4) . 10_557
C17 C16 N5 123.1(8) . .
C17 C16 C16 120.1(5) . 10_557
C16 C17 C18 112.9(13) . .
C16 C17 C21 119.2(9) . .
C21 C17 C18 125.2(13) . .
C18A C17 C16 120.7(11) . .
C18A C17 C21 119.3(11) . .
C17 C18 H18 116.7 . .
C19 C18 C17 127(2) . .
C19 C18 H18 116.7 . .
C17 C21 H21 119.6 . .
C21 C21 C17 120.7(6) 10_557 .
C21 C21 H21 119.6 10_557 .
C5 C4 H4 120.6 . .
C3 C4 H4 120.6 . .
C3 C4 C5 118.8(11) . .
N3 C5 C4 122.7(9) . .
N3 C5 H5 118.6 . .
C4 C5 H5 118.6 . .
N3 C1 C1 116.9(5) . 10_557
N3 C1 C2 122.1(8) . .
C2 C1 C1 121.0(6) . 10_557
C1 C2 C6 116.4(9) . .
C3 C2 C1 117.7(9) . .
C3 C2 C6 125.9(9) . .
C2 C6 H6 118.7 . .
C6 C6 C2 122.5(6) 10_557 .
C6 C6 H6 118.7 10_557 .
C4 C3 C2 120.6(10) . .
C4 C3 H3 119.7 . .
C2 C3 H3 119.7 . .
C20 C19 H19 123.4 . .
C18 C19 C20 113(2) . .
C18 C19 H19 123.4 . .
F3 P1 F3 166.1(18) . 10_556
F3 P1 F1 96.6(9) 10_556 .
F3 P1 F1 96.6(9) . .
F3 P1 F2 107.8(17) 10_556 .
F3 P1 F2 79.3(9) 10_556 10_556
F3 P1 F2 107.8(17) . 10_556
F3 P1 F2 79.3(9) . .
F4 P1 F3 87.5(8) . 10_556
F4 P1 F3 87.5(8) . .
F4 P1 F1 92.9(13) . .
F4 P1 F2 162.8(12) . 10_556
F4 P1 F2 162.8(12) . .
F2 P1 F1 77.8(11) . .
F2 P1 F1 77.8(11) 10_556 .
F2 P1 F2 29(2) . 10_556
F5 P1 F3 83.9(8) . .
F5 P1 F3 83.9(8) . 10_556
F5 P1 F4 97.5(19) . .
F5 P1 F1 170(2) . .
F5 P1 F2 92.1(11) . .
F5 P1 F2 92.1(11) . 10_556
F2 F2 P1 75.7(12) 10_556 .
F6 P2 F7 169.7(11) . .
F6 P2 F8 88.8(8) . .
F6 P2 F9 98.1(4) . 10_556
F6 P2 F9 98.1(4) . .
F6 P2 F10 96.1(9) . .
F8 P2 F7 101.5(11) . .
F9 P2 F7 83.0(4) . .
F9 P2 F7 83.0(4) 10_556 .
F9 P2 F8 84.8(5) 10_556 .
F9 P2 F8 84.8(5) . .
F9 P2 F9 160.5(11) . 10_556
F9 P2 F10 94.5(5) 10_556 .
F9 P2 F10 94.5(5) . .
F10 P2 F7 73.6(10) . .
F10 P2 F8 175.1(11) . .
C17 C18A H18A 123.4 . .
C17 C18A C19A 113.2(16) . .
C19A C18A H18A 123.4 . .
C18A C19A H19A 118.0 . .
C18A C19A C20A 124.1(19) . .
C20A C19A H19A 118.0 . .
N5 C20A C19A 120.9(18) . .
N5 C20A H20A 119.5 . .
C19A C20A H20A 119.5 . .
loop_
_geom_bond_atom_site_label_1
_geom_bond_atom_site_label_2
_geom_bond_distance
_geom_bond_site_symmetry_2
Pd1 Pd2 3.2963(11) .
Pd1 N5 2.024(6) 10_557
Pd1 N5 2.024(6) .
Pd1 N1 2.004(6) .
Pd1 N1 2.004(6) 10_557
Pd2 N3 2.027(6) 10_557
Pd2 N3 2.027(6) .
Pd2 N2 2.006(6) .
Pd2 N2 2.006(6) 10_557
N5 C20 1.39(2) .
N5 C16 1.392(10) .
N5 C20A 1.23(2) .
N3 C5 1.294(11) .
N3 C1 1.370(10) .
N2 N1 1.374(8) .
N2 C7 1.325(10) .
N1 C9 1.337(9) .
N4 C13 1.421(6) 3_655
N4 C13 1.421(6) .
N4 C13 1.421(6) 5_665
C7 H7 0.9300 .
C7 C8 1.380(11) .
C8 H8 0.9300 .
C8 C9 1.389(10) .
C9 C10 1.473(9) .
C10 C11 1.379(11) .
C10 C15 1.362(11) .
C11 H11 0.9300 .
C11 C12 1.367(12) .
C12 H12 0.9300 .
C12 C13 1.393(10) .
C13 C14 1.347(11) .
C14 H14 0.9300 .
C14 C15 1.382(12) .
C15 H15 0.9300 .
C20 H20 0.9300 .
C20 C19 1.44(3) .
C16 C16 1.406(16) 10_557
C16 C17 1.383(11) .
C17 C18 1.47(3) .
C17 C21 1.405(13) .
C17 C18A 1.350(15) .
C18 H18 0.9300 .
C18 C19 1.39(3) .
C21 C21 1.35(2) 10_557
C21 H21 0.9300 .
C4 H4 0.9300 .
C4 C5 1.414(13) .
C4 C3 1.345(16) .
C5 H5 0.9300 .
C1 C1 1.412(18) 10_557
C1 C2 1.398(11) .
C2 C6 1.437(14) .
C2 C3 1.366(15) .
C6 C6 1.31(2) 10_557
C6 H6 0.9300 .
C3 H3 0.9300 .
C19 H19 0.9300 .
P1 F3 1.674(18) .
P1 F3 1.674(18) 10_556
P1 F4 1.56(3) .
P1 F1 1.785(17) .
P1 F2 1.736(18) .
P1 F2 1.736(18) 10_556
P1 F5 1.46(3) .
F2 F2 0.86(7) 10_556
P2 F6 1.444(16) .
P2 F7 1.657(15) .
P2 F8 1.530(18) .
P2 F9 1.506(8) 10_556
P2 F9 1.506(8) .
P2 F10 1.507(16) .
C18A H18A 0.9300 .
C18A C19A 1.368(17) .
C19A H19A 0.9300 .
C19A C20A 1.44(2) .
C20A H20A 0.9300 .
loop_
_geom_torsion_atom_site_label_1
_geom_torsion_atom_site_label_2
_geom_torsion_atom_site_label_3
_geom_torsion_atom_site_label_4
_geom_torsion
_geom_torsion_site_symmetry_1
_geom_torsion_site_symmetry_4
Pd1 N5 C20 C19 -168.8(17) . .
Pd1 N5 C16 C16 -2.7(5) . 10_557
Pd1 N5 C16 C17 178.1(7) . .
Pd1 N5 C20A C19A 175.2(12) . .
Pd1 N1 C9 C8 177.3(6) . .
Pd1 N1 C9 C10 0.2(12) . .
Pd2 N3 C5 C4 -173.6(8) . .
Pd2 N3 C1 C1 -7.8(5) . 10_557
Pd2 N3 C1 C2 173.3(7) . .
Pd2 N2 N1 Pd1 -9.6(7) . .
Pd2 N2 N1 C9 168.5(5) . .
Pd2 N2 C7 C8 -167.4(6) . .
N5 C20 C19 C18 5(3) . .
N5 C16 C17 C18 -16(2) . .
N5 C16 C17 C21 -178.5(8) . .
N5 C16 C17 C18A 12(2) . .
N3 C1 C2 C6 -176.9(9) . .
N3 C1 C2 C3 1.7(15) . .
N2 N1 C9 C8 -0.2(8) . .
N2 N1 C9 C10 -177.3(7) . .
N2 C7 C8 C9 -0.5(10) . .
N1 N2 C7 C8 0.4(9) . .
N1 C9 C10 C11 176.3(9) . .
N1 C9 C10 C15 -3.7(13) . .
N4 C13 C14 C15 -179.4(10) . .
C7 N2 N1 Pd1 -178.3(5) . .
C7 N2 N1 C9 -0.1(8) . .
C7 C8 C9 N1 0.4(10) . .
C7 C8 C9 C10 177.4(8) . .
C8 C9 C10 C11 -0.3(14) . .
C8 C9 C10 C15 179.7(10) . .
C9 C10 C11 C12 -176.7(11) . .
C9 C10 C15 C14 177.6(10) . .
C10 C11 C12 C13 -2.6(19) . .
C11 C10 C15 C14 -2.4(17) . .
C11 C12 C13 N4 -179.7(10) . .
C11 C12 C13 C14 0.7(16) . .
C12 C13 C14 C15 0.2(16) . .
C13 N4 C13 C12 -56.1(14) 3_655 .
C13 N4 C13 C12 153.1(8) 5_665 .
C13 N4 C13 C14 -27.3(14) 5_665 .
C13 N4 C13 C14 123.4(8) 3_655 .
C13 C14 C15 C10 0.7(19) . .
C15 C10 C11 C12 3.3(17) . .
C20 N5 C16 C16 -165.5(16) . 10_557
C20 N5 C16 C17 15.3(19) . .
C16 N5 C20 C19 -9(3) . .
C16 N5 C20A C19A 11(2) . .
C16 C16 C17 C18 164.5(17) 10_557 .
C16 C16 C17 C21 2.3(11) 10_557 .
C16 C16 C17 C18A -167.0(18) 10_557 .
C16 C17 C18 C19 13(3) . .
C16 C17 C21 C21 -2.3(11) . 10_557
C16 C17 C18A C19A -6(3) . .
C17 C18 C19 C20 -7(4) . .
C17 C18A C19A C20A 2(3) . .
C18 C17 C21 C21 -162(2) . 10_557
C21 C17 C18 C19 174(2) . .
C21 C17 C18A C19A -174.9(15) . .
C5 N3 C1 C1 175.6(6) . 10_557
C5 N3 C1 C2 -3.4(13) . .
C5 C4 C3 C2 -2(2) . .
C1 N3 C5 C4 2.3(15) . .
C1 C1 C2 C6 4.2(11) 10_557 .
C1 C1 C2 C3 -177.2(8) 10_557 .
C1 C2 C6 C6 -4.3(11) . 10_557
C1 C2 C3 C4 1.0(19) . .
C6 C2 C3 C4 179.5(12) . .
C3 C4 C5 N3 0.3(18) . .
C3 C2 C6 C6 177.2(9) . 10_557
F3 P1 F2 F2 -173.9(9) . 10_556
F3 P1 F2 F2 -6.3(9) 10_556 10_556
F4 P1 F2 F2 146(5) . 10_556
F1 P1 F2 F2 86.8(4) . 10_556
F5 P1 F2 F2 -90.5(3) . 10_556
C18A C17 C21 C21 167.1(17) . 10_557
C18A C19A C20A N5 -5(3) . .
C20A N5 C16 C16 164.7(15) . 10_557
C20A N5 C16 C17 -14.5(18) . .
