#------------------------------------------------------------------------------
#$Date: 2017-05-06 01:10:37 +0300 (Sat, 06 May 2017) $
#$Revision: 196450 $
#$URL: file:///home/coder/svn-repositories/cod/cif/7/04/24/7042418.cif $
#------------------------------------------------------------------------------
#
# This file is available in the Crystallography Open Database (COD),
# http://www.crystallography.net/
#
# All data on this site have been placed in the public domain by the
# contributors.
#
data_7042418
loop_
_publ_author_name
'Han, Yongqiang'
'Yan, Pengfei'
'Sun, Jingwen'
'An, Guanghui'
'Yao, Xu'
'Li, Yuxin'
'Li, Guangming'
_publ_section_title
;
 Luminescence and white-light emitting luminescent sensor of
 tetrafluoroterephthalate-lanthanide metal-organic frameworks.
;
_journal_issue                   14
_journal_name_full
'Dalton transactions (Cambridge, England : 2003)'
_journal_page_first              4642
_journal_page_last               4653
_journal_paper_doi               10.1039/c7dt00215g
_journal_volume                  46
_journal_year                    2017
_chemical_formula_moiety         'C12 F6 Nd O7'
_chemical_formula_sum            'C12 F6 Nd O7'
_chemical_formula_weight         514.36
_space_group_crystal_system      monoclinic
_space_group_IT_number           14
_space_group_name_Hall           '-P 2ybc'
_space_group_name_H-M_alt        'P 1 21/c 1'
_symmetry_space_group_name_Hall  '-P 2ybc'
_symmetry_space_group_name_H-M   'P 1 21/c 1'
_audit_creation_date             2017-03-06
_audit_creation_method
;
Olex2 1.2
(compiled 2017.03.02 svn.r3394 for OlexSys, GUI svn.r5324)
;
_audit_update_record
;
2017-03-08 deposited with the CCDC.
2017-03-09 downloaded from the CCDC.
;
_cell_angle_alpha                90
_cell_angle_beta                 98.642(5)
_cell_angle_gamma                90
_cell_formula_units_Z            4
_cell_length_a                   10.205(5)
_cell_length_b                   21.215(5)
_cell_length_c                   7.866(5)
_cell_measurement_reflns_used    2108
_cell_measurement_temperature    293(2)
_cell_measurement_theta_max      29.5262
_cell_measurement_theta_min      3.1985
_cell_volume                     1683.6(14)
_computing_data_collection
'CrysAlisPro, Agilent Technologies,Version 1.171.35.21 (release 20-01-2012 CrysAlis171 .NET)(compiled Jan 23 2012,18:06:46)'
_computing_molecular_graphics    'Olex2 (Dolomanov et al., 2009)'
_computing_publication_material  '(K. Brandenburg, Diamond 3.1, 2009)'
_computing_structure_refinement  'ShelXL (Sheldrick, 2015)'
_computing_structure_solution    'SHELXS-2016/6 (Sheldrick, 2015)'
_diffrn_ambient_temperature      293(2)
_diffrn_measured_fraction_theta_full 0.998
_diffrn_measured_fraction_theta_max 0.998
_diffrn_measurement_device_type  'multiwire proportional'
_diffrn_measurement_method       'phi and omega scans'
_diffrn_radiation_monochromator  graphite
_diffrn_radiation_type           MoK\a
_diffrn_radiation_wavelength     0.71069
_diffrn_reflns_av_R_equivalents  0.0265
_diffrn_reflns_av_unetI/netI     0.0412
_diffrn_reflns_Laue_measured_fraction_full 0.998
_diffrn_reflns_Laue_measured_fraction_max 0.998
_diffrn_reflns_limit_h_max       12
_diffrn_reflns_limit_h_min       -10
_diffrn_reflns_limit_k_max       25
_diffrn_reflns_limit_k_min       -22
_diffrn_reflns_limit_l_max       5
_diffrn_reflns_limit_l_min       -9
_diffrn_reflns_number            5706
_diffrn_reflns_point_group_measured_fraction_full 0.998
_diffrn_reflns_point_group_measured_fraction_max 0.998
_diffrn_reflns_theta_full        24.997
_diffrn_reflns_theta_max         24.997
_diffrn_reflns_theta_min         3.205
_exptl_absorpt_coefficient_mu    3.178
_exptl_absorpt_correction_T_max  0.601
_exptl_absorpt_correction_T_min  0.486
_exptl_absorpt_correction_type   multi-scan
_exptl_absorpt_process_details
;
CrysAlisPro, Agilent Technologies,
Version 1.171.35.21 (release 20-01-2012 CrysAlis171 .NET)
(compiled Jan 23 2012,18:06:46)
Empirical absorption correction using spherical harmonics,
 implemented in SCALE3 ABSPACK scaling algorithm.
;
_exptl_crystal_colour            purple
_exptl_crystal_density_diffrn    2.029
_exptl_crystal_description       block
_exptl_crystal_F_000             968
_exptl_crystal_size_max          0.23
_exptl_crystal_size_mid          0.21
_exptl_crystal_size_min          0.16
_refine_diff_density_max         4.379
_refine_diff_density_min         -1.415
_refine_diff_density_rms         0.243
_refine_ls_extinction_method     none
_refine_ls_goodness_of_fit_ref   1.105
_refine_ls_hydrogen_treatment    undef
_refine_ls_matrix_type           full
_refine_ls_number_parameters     235
_refine_ls_number_reflns         2953
_refine_ls_number_restraints     0
_refine_ls_restrained_S_all      1.105
_refine_ls_R_factor_all          0.0574
_refine_ls_R_factor_gt           0.0487
_refine_ls_shift/su_max          0.001
_refine_ls_shift/su_mean         0.000
_refine_ls_structure_factor_coef Fsqd
_refine_ls_weighting_details
'w=1/[\s^2^(Fo^2^)+(0.0747P)^2^+4.5505P] where P=(Fo^2^+2Fc^2^)/3'
_refine_ls_weighting_scheme      calc
_refine_ls_wR_factor_gt          0.1291
_refine_ls_wR_factor_ref         0.1350
_reflns_Friedel_coverage         0.000
_reflns_number_gt                2481
_reflns_number_total             2959
_reflns_threshold_expression     'I > 2\s(I)'
_cod_data_source_file            c7dt00215g2.cif
_cod_data_source_block           2-nd-3d_sq
_cod_depositor_comments
'Adding full bibliography for 7042409--7042422.cif.'
_cod_database_code               7042418
_shelx_shelxl_version_number     2016/6
_shelx_space_group_comment
;
The symmetry employed for this shelxl refinement is uniquely defined
by the following loop, which should always be used as a source of
symmetry information in preference to the above space-group names.
They are only intended as comments.
;
_shelx_estimated_absorpt_t_max   0.630
_shelx_estimated_absorpt_t_min   0.529
_olex2_refinement_description
;
;
_shelx_res_file
;
TITL 2-Nd-3d in P2(1)/c
    2-nd-3d_sq.res
    created by SHELXL-2016/6 at 14:11:25 on 06-Mar-2017
CELL 0.71069 10.205 21.215 7.866 90 98.642 90
ZERR 4 0.005 0.005 0.005 0.005 0.005 0.005
LATT 1
SYMM -X,0.5+Y,0.5-Z
SFAC C F Nd O
UNIT 48 24 4 28

L.S. 5 0 27
PLAN  25
SIZE 0.23 0.21 0.16
ABIN
fmap 2
acta
MERG 2
OMIT -3 50
REM <olex2.extras>
REM <HklSrc "%.\\2-nd-3d.hkl">
REM </olex2.extras>

WGHT    0.074700    4.550500
FVAR       0.07743
C1    1    0.500031    0.126949   -0.365052    11.00000    0.05222    0.02123 =
         0.02914   -0.00193    0.00753    0.00087
C2    1    0.499142    0.060832   -0.430233    11.00000    0.05262    0.01994 =
         0.01504    0.00239    0.00382   -0.00439
C3    1    0.615114    0.029910   -0.443795    11.00000    0.04093    0.03104 =
         0.07151   -0.02012    0.00580   -0.00767
C4    1    0.383464    0.030216   -0.492815    11.00000    0.04919    0.03163 =
         0.05826   -0.01739    0.01127    0.00669
C5    1    1.089836    0.208256   -0.279372    11.00000    0.01455    0.03984 =
         0.02751   -0.00506    0.00414    0.00179
C6    1    1.135153    0.270483   -0.286152    11.00000    0.01297    0.04101 =
         0.02527    0.00259    0.00193   -0.00188
C7    1    1.052018    0.317785   -0.251367    11.00000    0.02462    0.03297 =
         0.04067    0.00298    0.00813    0.00012
C8    1    0.929335    0.304164   -0.207027    11.00000    0.01968    0.03982 =
         0.03222   -0.00758    0.00558    0.00262
C9    1    0.885010    0.243287   -0.195079    11.00000    0.01063    0.04192 =
         0.02603    0.00387   -0.00034   -0.00145
C10   1    0.969405    0.194958   -0.233288    11.00000    0.01770    0.04138 =
         0.02826    0.00234    0.00177   -0.00474
C11   1    0.751460    0.228008   -0.142995    11.00000    0.01902    0.03911 =
         0.02051   -0.00286    0.00508   -0.00040
C12   1    0.268453    0.216300    0.159755    11.00000    0.02056    0.02561 =
         0.02738    0.00847    0.00409   -0.00210
O1    4    0.745265    0.189657   -0.030573    11.00000    0.02325    0.06107 =
         0.02894    0.01270    0.01036    0.00714
O2    4    0.650614    0.242287    0.282990    11.00000    0.01140    0.04648 =
         0.03710   -0.01811    0.00455   -0.00242
O3    4    0.512807    0.330388    0.029693    11.00000    0.12335    0.01517 =
         0.03211   -0.00189    0.01872    0.00439
O4    4    0.488443    0.133319   -0.208645    11.00000    0.05854    0.02764 =
         0.01143   -0.00621    0.01348   -0.00037
O5    4    0.370349    0.259478   -0.253448    11.00000    0.01518    0.04260 =
         0.03628    0.01192    0.00438    0.00262
O6    4    0.540199    0.119480    0.178183    11.00000    0.06654    0.03264 =
         0.03684    0.01374    0.00423   -0.00129
O7    4    0.275548    0.184171    0.033900    11.00000    0.02430    0.06255 =
         0.03185   -0.01574    0.00770   -0.00677
F1    2    0.267789    0.058690   -0.483613    11.00000    0.05190    0.07578 =
         0.19029   -0.06507   -0.00068    0.02077
F2    2    0.730869    0.059018   -0.387289    11.00000    0.04972    0.06943 =
         0.21783   -0.07530   -0.00271   -0.00929
F3    2    0.931195    0.135197   -0.227511    11.00000    0.03405    0.03292 =
         0.07801   -0.00501    0.02088   -0.00751
F4    2    1.164624    0.161088   -0.323591    11.00000    0.02445    0.04157 =
         0.06730   -0.00851    0.01704    0.00207
F5    2    0.853925    0.352141   -0.164146    11.00000    0.02305    0.04475 =
         0.08807   -0.00889    0.02252    0.00734
F6    2    1.089227    0.378149   -0.257423    11.00000    0.03481    0.03449 =
         0.09120   -0.00195    0.02385   -0.00408
ND1   3    0.509250    0.215275    0.004196    11.00000    0.01321    0.01741 =
         0.01634   -0.00097    0.00460   -0.00037
HKLF 4




REM  2-Nd-3d in P2(1)/c
REM R1 =  0.0487 for    2481 Fo > 4sig(Fo)  and  0.0574 for all    2953 data
REM    235 parameters refined using      0 restraints

END

WGHT      0.0747      4.5505

REM Highest difference peak  4.379,  deepest hole -1.415,  1-sigma level  0.243
Q1    1   0.5076  0.2853  0.1125  11.00000  0.05    4.38
Q2    1   0.5071  0.2856 -0.1131  11.00000  0.05    4.29
Q3    1   0.5044  0.2149 -0.2175  11.00000  0.05    2.76
Q4    1   0.5084  0.2853 -0.2873  11.00000  0.05    2.47
Q5    1   0.4716  0.2264  0.0721  11.00000  0.05    1.25
Q6    1   0.5067  0.2207 -0.0809  11.00000  0.05    1.11
Q7    1   0.5076  0.1273  0.2818  11.00000  0.05    0.91
Q8    1   0.5051  0.1360  0.1437  11.00000  0.05    0.84
Q9    1   0.4964  0.2000  0.0282  11.00000  0.05    0.76
Q10   1   0.8579  0.1553 -0.1975  11.00000  0.05    0.75
Q11   1   0.4988  0.1293 -0.2820  11.00000  0.05    0.73
Q12   1   0.5022  0.0610 -0.5149  11.00000  0.05    0.65
Q13   1   0.4932  0.1324 -0.1248  11.00000  0.05    0.64
Q14   1   0.5011  0.1234 -0.0170  11.00000  0.05    0.62
Q15   1   0.4946  0.3534 -0.0845  11.00000  0.05    0.59
Q16   1   0.7417  0.0508 -0.5438  11.00000  0.05    0.59
Q17   1   0.5118  0.3768 -0.0912  11.00000  0.05    0.58
Q18   1   0.9346  0.2003 -0.1381  11.00000  0.05    0.57
Q19   1   0.3005  0.0770 -0.6013  11.00000  0.05    0.56
Q20   1   0.9339  0.3659 -0.1180  11.00000  0.05    0.56
Q21   1   0.5000  0.0794 -0.1841  11.00000  0.05    0.52
Q22   1   1.1574  0.3471 -0.2994  11.00000  0.05    0.52
Q23   1   0.5191  0.3682  0.0062  11.00000  0.05    0.52
Q24   1   1.1445  0.1488 -0.4366  11.00000  0.05    0.51
Q25   1   0.7399  0.1898  0.1346  11.00000  0.05    0.51
;
_shelx_res_checksum              92090
_shelx_fab_file
;
    2    0    0    -24.20      0.00
    3    0    0      9.69      0.00
    4    0    0      2.71      0.00
    5    0    0      0.87      0.00
    6    0    0     -4.11      0.00
    7    0    0      0.16      0.00
    8    0    0      3.25      0.00
    9    0    0     -0.45      0.00
   10    0    0      0.96      0.00
   11    0    0      1.80      0.00
    2    1    0     -0.03      0.00
    3    1    0     -0.92      0.00
    4    1    0     -0.08      0.00
    5    1    0      0.59      0.00
    6    1    0      0.05      0.00
    7    1    0      0.31      0.00
    8    1    0      0.02      0.00
    9    1    0     -0.27      0.00
   10    1    0      0.45      0.00
   11    1    0      0.18      0.00
    2    2    0    -20.31      0.00
    3    2    0      8.92      0.00
    4    2    0      1.77      0.00
    5    2    0      1.81      0.00
    6    2    0     -3.25      0.00
    7    2    0     -0.13      0.00
    8    2    0      2.72      0.00
    9    2    0     -0.77      0.00
   10    2    0      0.96      0.00
   11    2    0      1.73      0.00
    1    3    0      0.11      0.00
    2    3    0     -0.13      0.00
    3    3    0     -1.90      0.00
    4    3    0      0.31      0.00
    5    3    0      1.12      0.00
    6    3    0     -0.64      0.00
    7    3    0      0.68      0.00
    8    3    0      0.21      0.00
    9    3    0     -0.53      0.00
   10    3    0      1.18      0.00
   11    3    0      0.36      0.00
    0    4    0     61.60      0.00
    1    4    0     -5.72      0.00
    2    4    0    -11.56      0.00
    3    4    0      6.36      0.00
    4    4    0     -0.91      0.00
    5    4    0      3.76      0.00
    6    4    0     -1.21      0.00
    7    4    0     -0.73      0.00
    8    4    0      1.74      0.00
    9    4    0     -1.05      0.00
   10    4    0      1.13      0.00
   11    4    0      1.40      0.00
    1    5    0      1.08      0.00
    2    5    0     -0.29      0.00
    3    5    0     -1.17      0.00
    4    5    0      1.62      0.00
    5    5    0      0.48      0.00
    6    5    0     -2.42      0.00
    7    5    0      0.83      0.00
    8    5    0      0.52      0.00
    9    5    0     -0.39      0.00
   10    5    0      1.42      0.00
   11    5    0      0.13      0.00
    0    6    0     31.96      0.00
    1    6    0     -6.76      0.00
    2    6    0     -3.38      0.00
    3    6    0      2.68      0.00
    4    6    0     -4.15      0.00
    5    6    0      5.08      0.00
    6    6    0      0.85      0.00
    7    6    0     -1.37      0.00
    8    6    0      0.95      0.00
    9    6    0     -0.63      0.00
   10    6    0      1.36      0.00
   11    6    0      0.61      0.00
    1    7    0      1.93      0.00
    2    7    0     -0.39      0.00
    3    7    0      0.61      0.00
    4    7    0      2.82      0.00
    5    7    0     -0.70      0.00
    6    7    0     -3.77      0.00
    7    7    0      1.10      0.00
    8    7    0      0.47      0.00
    9    7    0     -0.12      0.00
   10    7    0      1.24      0.00
   11    7    0     -0.30      0.00
    0    8    0     14.80      0.00
    1    8    0     -5.08      0.00
    2    8    0      1.01      0.00
    3    8    0     -0.04      0.00
    4    8    0     -6.03      0.00
    5    8    0      4.97      0.00
    6    8    0      2.14      0.00
    7    8    0     -1.71      0.00
    8    8    0      0.37      0.00
    9    8    0      0.04      0.00
   10    8    0      1.06      0.00
   11    8    0     -0.55      0.00
    1    9    0      1.68      0.00
    2    9    0     -0.44      0.00
    3    9    0      2.08      0.00
    4    9    0      2.84      0.00
    5    9    0     -1.45      0.00
    6    9    0     -3.49      0.00
    7    9    0      1.45      0.00
    8    9    0     -0.10      0.00
    9    9    0      0.12      0.00
   10    9    0      0.87      0.00
   11    9    0     -0.66      0.00
    0   10    0      8.12      0.00
    1   10    0     -3.04      0.00
    2   10    0      2.01      0.00
    3   10    0     -0.41      0.00
    4   10    0     -5.46      0.00
    5   10    0      3.81      0.00
    6   10    0      2.56      0.00
    7   10    0     -1.51      0.00
    8   10    0     -0.17      0.00
    9   10    0      0.21      0.00
   10   10    0     -0.09      0.00
   11   10    0     -1.58      0.00
    1   11    0      0.48      0.00
    2   11    0     -0.54      0.00
    3   11    0      2.43      0.00
    4   11    0      1.75      0.00
    5   11    0     -1.53      0.00
    6   11    0     -2.14      0.00
    7   11    0      1.33      0.00
    8   11    0     -0.66      0.00
    9   11    0      0.46      0.00
   10   11    0      0.43      0.00
    0   12    0      5.53      0.00
    1   12    0     -2.18      0.00
    2   12    0      1.50      0.00
    3   12    0      0.52      0.00
    4   12    0     -3.20      0.00
    5   12    0      2.36      0.00
    6   12    0      2.18      0.00
    7   12    0     -0.75      0.00
    8   12    0     -0.40      0.00
    9   12    0      0.02      0.00
   10   12    0     -1.39      0.00
    1   13    0     -0.38      0.00
    2   13    0     -0.71      0.00
    3   13    0      1.73      0.00
    4   13    0      0.43      0.00
    5   13    0     -1.36      0.00
    6   13    0     -1.00      0.00
    7   13    0      0.50      0.00
    8   13    0     -0.56      0.00
    9   13    0      0.90      0.00
   10   13    0     -0.01      0.00
    0   14    0      4.04      0.00
    1   14    0     -1.79      0.00
    2   14    0      0.63      0.00
    3   14    0      0.71      0.00
    4   14    0     -0.90      0.00
    5   14    0      1.17      0.00
    6   14    0      1.20      0.00
    7   14    0      0.26      0.00
    8   14    0      0.00      0.00
    9   14    0      0.18      0.00
    1   15    0      0.17      0.00
    2   15    0     -0.71      0.00
    3   15    0      0.54      0.00
    4   15    0     -0.52      0.00
    5   15    0     -1.30      0.00
    6   15    0     -0.40      0.00
    7   15    0     -0.49      0.00
    8   15    0      0.16      0.00
    9   15    0      1.13      0.00
    0   16    0      3.41      0.00
    1   16    0     -1.03      0.00
    2   16    0     -0.24      0.00
    3   16    0     -0.33      0.00
    4   16    0      0.53      0.00
    5   16    0      0.59      0.00
    6   16    0      0.17      0.00
    7   16    0      1.19      0.00
    8   16    0      0.78      0.00
    9   16    0      0.73      0.00
    1   17    0      1.62      0.00
    2   17    0     -0.32      0.00
    3   17    0     -0.50      0.00
    4   17    0     -1.06      0.00
    5   17    0     -1.19      0.00
    6   17    0      0.27      0.00
    7   17    0     -0.85      0.00
    8   17    0      0.91      0.00
    0   18    0      2.99      0.00
    1   18    0     -0.24      0.00
    2   18    0     -0.78      0.00
    3   18    0     -1.46      0.00
    4   18    0      1.06      0.00
    5   18    0      0.62      0.00
    6   18    0     -0.22      0.00
    7   18    0      1.84      0.00
    8   18    0      1.31      0.00
    1   19    0      2.39      0.00
    2   19    0      0.39      0.00
    3   19    0     -0.89      0.00
    4   19    0     -1.21      0.00
    5   19    0     -0.77      0.00
    6   19    0      1.13      0.00
    7   19    0     -0.50      0.00
    0   20    0      1.84      0.00
    1   20    0      0.09      0.00
    2   20    0     -0.64      0.00
    3   20    0     -1.77      0.00
    4   20    0      0.96      0.00
    5   20    0      0.91      0.00
    6   20    0      0.18      0.00
    7   20    0      2.09      0.00
    1   21    0      1.49      0.00
    2   21    0      0.95      0.00
    3   21    0     -0.57      0.00
    4   21    0     -0.92      0.00
    5   21    0     -0.16      0.00
    6   21    0      1.51      0.00
    0   22    0      0.22      0.00
    1   22    0      0.24      0.00
    2   22    0      0.09      0.00
    3   22    0     -1.44      0.00
    4   22    0      0.60      0.00
    5   22    0      1.05      0.00
    1   23    0     -0.39      0.00
    2   23    0      0.94      0.00
    3   23    0      0.03      0.00
    4   23    0     -0.43      0.00
    0   24    0     -0.89      0.00
    1   24    0      0.53      0.00
    2   24    0      0.75      0.00
    3   24    0     -0.97      0.00
    1   25    0     -1.75      0.00
  -12    1    1     -0.16      0.00
  -11    1    1      0.60      0.00
  -10    1    1      1.68      0.00
   -9    1    1     -1.90      0.00
   -8    1    1      0.79      0.00
   -7    1    1      0.01      0.00
   -6    1    1     -4.09      0.00
   -5    1    1      2.23      0.00
   -4    1    1      2.42      0.00
   -3    1    1      7.33      0.00
   -2    1    1    -23.11      0.00
   -1    1    1    -30.99      0.00
    1    1    1      5.13      0.00
    2    1    1    -21.28      0.00
    3    1    1      1.19      0.00
    4    1    1      0.35      0.00
    5    1    1      0.71      0.00
    6    1    1     -2.49      0.00
    7    1    1     -1.34      0.00
    8    1    1      2.02      0.00
    9    1    1      0.67      0.00
   10    1    1     -0.99      0.00
   11    1    1      0.50      0.00
  -12    2    1     -0.60      0.00
  -11    2    1     -0.67      0.00
  -10    2    1     -0.39      0.00
   -9    2    1      0.87      0.00
   -8    2    1     -0.80      0.00
   -7    2    1     -0.63      0.00
   -6    2    1     -0.13      0.00
   -5    2    1     -0.27      0.00
   -4    2    1     -1.28      0.00
   -3    2    1     -0.52      0.00
   -2    2    1      2.38      0.00
   -1    2    1      1.38      0.00
    0    2    1     -2.21      0.00
    1    2    1      0.90      0.00
    2    2    1      1.98      0.00
    3    2    1     -2.95      0.00
    4    2    1     -1.16      0.00
    5    2    1      1.38      0.00
    6    2    1     -0.06      0.00
    7    2    1      0.08      0.00
    8    2    1      0.14      0.00
    9    2    1     -0.55      0.00
   10    2    1     -0.34      0.00
   11    2    1     -0.19      0.00
  -12    3    1     -0.31      0.00
  -11    3    1      0.70      0.00
  -10    3    1      1.36      0.00
   -9    3    1     -1.85      0.00
   -8    3    1      0.59      0.00
   -7    3    1     -0.81      0.00
   -6    3    1     -3.17      0.00
   -5    3    1      3.83      0.00
   -4    3    1      1.27      0.00
   -3    3    1      6.26      0.00
   -2    3    1    -14.88      0.00
   -1    3    1    -26.95      0.00
    0    3    1     47.51      0.00
    1    3    1      2.04      0.00
    2    3    1    -16.78      0.00
    3    3    1      2.14      0.00
    4    3    1      0.09      0.00
    5    3    1      1.52      0.00
    6    3    1     -1.39      0.00
    7    3    1     -1.18      0.00
    8    3    1      1.17      0.00
    9    3    1     -0.48      0.00
   10    3    1     -0.90      0.00
   11    3    1      0.51      0.00
  -11    4    1     -0.90      0.00
  -10    4    1     -0.55      0.00
   -9    4    1      1.40      0.00
   -8    4    1     -1.80      0.00
   -7    4    1     -1.27      0.00
   -6    4    1      0.62      0.00
   -5    4    1      0.30      0.00
   -4    4    1     -2.21      0.00
   -3    4    1     -1.34      0.00
   -2    4    1      3.66      0.00
   -1    4    1      1.58      0.00
    0    4    1     -3.60      0.00
    1    4    1      1.71      0.00
    2    4    1      2.72      0.00
    3    4    1     -3.99      0.00
    4    4    1     -0.79      0.00
    5    4    1      1.76      0.00
    6    4    1     -1.10      0.00
    7    4    1     -0.07      0.00
    8    4    1      0.24      0.00
    9    4    1     -0.67      0.00
   10    4    1     -0.57      0.00
   11    4    1     -0.21      0.00
  -11    5    1      0.65      0.00
  -10    5    1      1.06      0.00
   -9    5    1     -1.21      0.00
   -8    5    1      0.65      0.00
   -7    5    1     -1.94      0.00
   -6    5    1     -2.01      0.00
   -5    5    1      5.45      0.00
   -4    5    1     -0.99      0.00
   -3    5    1      3.53      0.00
   -2    5    1     -4.69      0.00
   -1    5    1    -20.13      0.00
    0    5    1     28.29      0.00
    1    5    1     -0.73      0.00
    2    5    1    -10.64      0.00
    3    5    1      2.56      0.00
    4    5    1     -1.16      0.00
    5    5    1      2.17      0.00
    6    5    1     -0.02      0.00
    7    5    1     -1.07      0.00
    8    5    1      0.27      0.00
    9    5    1     -1.37      0.00
   10    5    1     -0.33      0.00
   11    5    1      0.41      0.00
  -11    6    1     -0.62      0.00
  -10    6    1     -0.53      0.00
   -9    6    1      1.46      0.00
   -8    6    1     -2.50      0.00
   -7    6    1     -1.81      0.00
   -6    6    1      1.83      0.00
   -5    6    1      1.51      0.00
   -4    6    1     -2.18      0.00
   -3    6    1     -2.10      0.00
   -2    6    1      3.36      0.00
   -1    6    1      0.58      0.00
    0    6    1     -3.73      0.00
    1    6    1      2.01      0.00
    2    6    1      1.92      0.00
    3    6    1     -2.80      0.00
    4    6    1      0.92      0.00
    5    6    1      1.04      0.00
    6    6    1     -2.42      0.00
    7    6    1      0.00      0.00
    8    6    1      0.10      0.00
    9    6    1     -0.51      0.00
   10    6    1     -0.73      0.00
   11    6    1     -0.07      0.00
  -11    7    1      0.29      0.00
  -10    7    1      0.95      0.00
   -9    7    1      0.12      0.00
   -8    7    1      1.15      0.00
   -7    7    1     -2.62      0.00
   -6    7    1     -1.12      0.00
   -5    7    1      5.73      0.00
   -4    7    1     -3.41      0.00
   -3    7    1     -0.08      0.00
   -2    7    1      1.41      0.00
   -1    7    1    -13.01      0.00
    0    7    1     14.90      0.00
    1    7    1     -0.98      0.00
    2    7    1     -5.66      0.00
    3    7    1      2.17      0.00
    4    7    1     -2.99      0.00
    5    7    1      2.14      0.00
    6    7    1      1.01      0.00
    7    7    1     -1.06      0.00
    8    7    1     -0.09      0.00
    9    7    1     -1.18      0.00
   10    7    1      0.45      0.00
   11    7    1      0.03      0.00
  -11    8    1     -0.01      0.00
  -10    8    1     -0.41      0.00
   -9    8    1      1.14      0.00
   -8    8    1     -2.25      0.00
   -7    8    1     -2.00      0.00
   -6    8    1      2.33      0.00
   -5    8    1      2.27      0.00
   -4    8    1     -1.05      0.00
   -3    8    1     -2.28      0.00
   -2    8    1      1.93      0.00
   -1    8    1     -0.43      0.00
    0    8    1     -2.72      0.00
    1    8    1      1.49      0.00
    2    8    1      0.42      0.00
    3    8    1     -0.68      0.00
    4    8    1      2.36      0.00
    5    8    1     -0.10      0.00
    6    8    1     -2.68      0.00
    7    8    1      0.65      0.00
    8    8    1     -0.36      0.00
    9    8    1     -0.43      0.00
   10    8    1     -0.85      0.00
   11    8    1      0.10      0.00
  -11    9    1     -0.17      0.00
  -10    9    1      0.70      0.00
   -9    9    1      1.22      0.00
   -8    9    1      1.59      0.00
   -7    9    1     -2.41      0.00
   -6    9    1     -0.52      0.00
   -5    9    1      4.72      0.00
   -4    9    1     -4.36      0.00
   -3    9    1     -2.26      0.00
   -2    9    1      2.73      0.00
   -1    9    1     -7.80      0.00
    0    9    1      8.80      0.00
    1    9    1     -0.10      0.00
    2    9    1     -2.61      0.00
    3    9    1      2.15      0.00
    4    9    1     -3.86      0.00
    5    9    1      1.88      0.00
    6    9    1      1.78      0.00
    7    9    1     -0.81      0.00
    8    9    1      0.05      0.00
    9    9    1     -0.43      0.00
   10    9    1      0.68      0.00
  -11   10    1      0.67      0.00
  -10   10    1     -0.12      0.00
   -9   10    1      0.52      0.00
   -8   10    1     -1.14      0.00
   -7   10    1     -1.55      0.00
   -6   10    1      1.82      0.00
   -5   10    1      1.99      0.00
   -4   10    1      0.29      0.00
   -3   10    1     -2.06      0.00
   -2   10    1      0.41      0.00
   -1   10    1     -0.48      0.00
    0   10    1     -1.36      0.00
    1   10    1      0.42      0.00
    2   10    1     -0.54      0.00
    3   10    1      0.91      0.00
    4   10    1      2.52      0.00
    5   10    1     -0.82      0.00
    6   10    1     -1.75      0.00
    7   10    1      1.28      0.00
    8   10    1     -0.84      0.00
    9   10    1     -0.43      0.00
   10   10    1     -0.85      0.00
  -10   11    1      0.07      0.00
   -9   11    1      1.38      0.00
   -8   11    1      1.50      0.00
   -7   11    1     -1.47      0.00
   -6   11    1     -0.13      0.00
   -5   11    1      3.22      0.00
   -4   11    1     -3.30      0.00
   -3   11    1     -2.00      0.00
   -2   11    1      2.18      0.00
   -1   11    1     -4.96      0.00
    0   11    1      6.05      0.00
    1   11    1     -0.03      0.00
    2   11    1     -0.78      0.00
    3   11    1      2.89      0.00
    4   11    1     -2.99      0.00
    5   11    1      1.87      0.00
    6   11    1      2.24      0.00
    7   11    1     -0.28      0.00
    8   11    1      0.27      0.00
    9   11    1      0.05      0.00
   10   11    1      0.13      0.00
  -10   12    1      0.37      0.00
   -9   12    1     -0.26      0.00
   -8   12    1      0.11      0.00
   -7   12    1     -0.50      0.00
   -6   12    1      0.99      0.00
   -5   12    1      1.27      0.00
   -4   12    1      0.76      0.00
   -3   12    1     -2.05      0.00
   -2   12    1     -0.36      0.00
   -1   12    1     -0.03      0.00
    0   12    1     -0.72      0.00
    1   12    1     -0.35      0.00
    2   12    1     -0.38      0.00
    3   12    1      1.45      0.00
    4   12    1      1.89      0.00
    5   12    1     -0.78      0.00
    6   12    1     -0.80      0.00
    7   12    1      0.85      0.00
    8   12    1     -0.91      0.00
    9   12    1     -0.33      0.00
   10   12    1     -0.74      0.00
  -10   13    1     -0.66      0.00
   -9   13    1      0.96      0.00
   -8   13    1      1.14      0.00
   -7   13    1     -0.21      0.00
   -6   13    1     -0.04      0.00
   -5   13    1      1.80      0.00
   -4   13    1     -1.45      0.00
   -3   13    1     -0.82      0.00
   -2   13    1      1.69      0.00
   -1   13    1     -3.45      0.00
    0   13    1      4.14      0.00
    1   13    1     -0.50      0.00
    2   13    1      0.32      0.00
    3   13    1      3.11      0.00
    4   13    1     -1.30      0.00
    5   13    1      1.85      0.00
    6   13    1      1.83      0.00
    7   13    1      0.02      0.00
    8   13    1      0.24      0.00
    9   13    1      0.11      0.00
   10   13    1     -0.58      0.00
  -10   14    1      0.84      0.00
   -9   14    1     -0.76      0.00
   -8   14    1      1.00      0.00
   -7   14    1      0.59      0.00
   -6   14    1      0.29      0.00
   -5   14    1      1.05      0.00
   -4   14    1      0.37      0.00
   -3   14    1     -2.41      0.00
   -2   14    1     -0.47      0.00
   -1   14    1     -0.43      0.00
    0   14    1     -1.31      0.00
    1   14    1     -0.15      0.00
    2   14    1      0.43      0.00
    3   14    1      1.16      0.00
    4   14    1      1.40      0.00
    5   14    1     -0.28      0.00
    6   14    1     -0.62      0.00
    7   14    1     -0.73      0.00
    8   14    1     -0.55      0.00
    9   14    1     -0.24      0.00
   -9   15    1      0.64      0.00
   -8   15    1      0.89      0.00
   -7   15    1      0.89      0.00
   -6   15    1     -0.22      0.00
   -5   15    1      0.67      0.00
   -4   15    1     -0.23      0.00
   -3   15    1     -0.51      0.00
   -2   15    1      1.15      0.00
   -1   15    1     -2.33      0.00
    0   15    1      3.19      0.00
    1   15    1     -0.40      0.00
    2   15    1      0.47      0.00
    3   15    1      1.85      0.00
    4   15    1     -0.09      0.00
    5   15    1      1.39      0.00
    6   15    1      0.41      0.00
    7   15    1     -0.21      0.00
    8   15    1      0.00      0.00
    9   15    1      0.04      0.00
   -9   16    1     -0.63      0.00
   -8   16    1      1.60      0.00
   -7   16    1      1.09      0.00
   -6   16    1     -0.54      0.00
   -5   16    1      1.48      0.00
   -4   16    1      0.04      0.00
   -3   16    1     -2.68      0.00
   -2   16    1     -0.63      0.00
   -1   16    1     -2.13      0.00
    0   16    1     -2.56      0.00
    1   16    1      0.76      0.00
    2   16    1      1.01      0.00
    3   16    1      0.45      0.00
    4   16    1      1.16      0.00
    5   16    1      0.12      0.00
    6   16    1     -0.79      0.00
    7   16    1     -2.28      0.00
    8   16    1     -0.11      0.00
   -8   17    1      0.71      0.00
   -7   17    1      1.50      0.00
   -6   17    1     -0.33      0.00
   -5   17    1      0.08      0.00
   -4   17    1      0.17      0.00
   -3   17    1     -0.90      0.00
   -2   17    1      0.41      0.00
   -1   17    1     -1.45      0.00
    0   17    1      3.07      0.00
    1   17    1      0.02      0.00
    2   17    1     -0.39      0.00
    3   17    1     -0.04      0.00
    4   17    1      0.28      0.00
    5   17    1      0.62      0.00
    6   17    1     -1.02      0.00
    7   17    1     -0.44      0.00
    8   17    1     -0.15      0.00
   -8   18    1      2.01      0.00
   -7   18    1      0.92      0.00
   -6   18    1     -1.56      0.00
   -5   18    1      1.94      0.00
   -4   18    1      0.22      0.00
   -3   18    1     -2.56      0.00
   -2   18    1     -1.28      0.00
   -1   18    1     -3.84      0.00
    0   18    1     -3.39      0.00
    1   18    1      1.27      0.00
    2   18    1      0.96      0.00
    3   18    1     -0.26      0.00
    4   18    1      0.74      0.00
    5   18    1      0.07      0.00
    6   18    1     -0.62      0.00
    7   18    1     -2.67      0.00
    8   18    1      0.13      0.00
   -7   19    1      1.55      0.00
   -6   19    1     -0.06      0.00
   -5   19    1      0.09      0.00
   -4   19    1      0.25      0.00
   -3   19    1     -0.88      0.00
   -2   19    1      0.08      0.00
   -1   19    1     -0.91      0.00
    0   19    1      2.67      0.00
    1   19    1     -0.16      0.00
    2   19    1     -1.48      0.00
    3   19    1     -1.00      0.00
    4   19    1      0.20      0.00
    5   19    1     -0.03      0.00
    6   19    1     -1.27      0.00
    7   19    1      0.01      0.00
   -7   20    1      0.54      0.00
   -6   20    1     -2.12      0.00
   -5   20    1      1.85      0.00
   -4   20    1      0.43      0.00
   -3   20    1     -2.22      0.00
   -2   20    1     -2.04      0.00
   -1   20    1     -3.96      0.00
    0   20    1     -3.25      0.00
    1   20    1      0.52      0.00
    2   20    1      0.57      0.00
    3   20    1     -0.51      0.00
    4   20    1      0.04      0.00
    5   20    1     -0.36      0.00
    6   20    1     -0.16      0.00
    7   20    1     -1.90      0.00
   -6   21    1      0.41      0.00
   -5   21    1      0.31      0.00
   -4   21    1      0.22      0.00
   -3   21    1     -0.44      0.00
   -2   21    1      0.40      0.00
   -1   21    1     -0.54      0.00
    0   21    1      1.48      0.00
    1   21    1     -0.76      0.00
    2   21    1     -1.87      0.00
    3   21    1     -0.73      0.00
    4   21    1      0.04      0.00
    5   21    1     -0.40      0.00
    6   21    1     -0.38      0.00
   -5   22    1      1.22      0.00
   -4   22    1      0.17      0.00
   -3   22    1     -1.87      0.00
   -2   22    1     -2.23      0.00
   -1   22    1     -2.39      0.00
    0   22    1     -2.39      0.00
    1   22    1     -1.11      0.00
    2   22    1      0.32      0.00
    3   22    1     -0.15      0.00
    4   22    1     -0.50      0.00
    5   22    1     -0.75      0.00
   -4   23    1      0.04      0.00
   -3   23    1     -0.27      0.00
   -2   23    1      0.78      0.00
   -1   23    1     -0.23      0.00
    0   23    1      0.12      0.00
    1   23    1     -0.88      0.00
    2   23    1     -1.43      0.00
    3   23    1     -0.13      0.00
    4   23    1      0.01      0.00
   -3   24    1     -1.41      0.00
   -2   24    1     -1.65      0.00
   -1   24    1     -0.54      0.00
    0   24    1     -1.34      0.00
    1   24    1     -2.32      0.00
    2   24    1      0.30      0.00
    3   24    1      0.49      0.00
   -1   25    1     -0.06      0.00
    0   25    1     -0.65      0.00
  -12    0    2      0.01      0.00
  -11    0    2     -1.44      0.00
  -10    0    2      1.96      0.00
   -9    0    2     -1.25      0.00
   -8    0    2      0.01      0.00
   -7    0    2      0.75      0.00
   -6    0    2     -4.42      0.00
   -5    0    2      0.99      0.00
   -4    0    2      2.29      0.00
   -3    0    2      3.84      0.00
   -2    0    2     -5.24      0.00
   -1    0    2    -25.12      0.00
    0    0    2     22.67      0.00
    1    0    2     12.46      0.00
    2    0    2     -6.99      0.00
    3    0    2      0.80      0.00
    4    0    2      2.46      0.00
    5    0    2      0.43      0.00
    6    0    2     -0.64      0.00
    7    0    2     -2.17      0.00
    8    0    2     -0.36      0.00
    9    0    2      1.43      0.00
   10    0    2     -0.82      0.00
   11    0    2      0.48      0.00
  -12    1    2     -0.08      0.00
  -11    1    2     -0.30      0.00
  -10    1    2      0.08      0.00
   -9    1    2      0.36      0.00
   -8    1    2     -0.89      0.00
   -7    1    2     -0.22      0.00
   -6    1    2     -0.23      0.00
   -5    1    2      0.18      0.00
   -4    1    2     -0.15      0.00
   -3    1    2      0.13      0.00
   -2    1    2      0.87      0.00
   -1    1    2      0.30      0.00
    0    1    2     -0.75      0.00
    1    1    2      0.20      0.00
    2    1    2      0.50      0.00
    3    1    2     -1.09      0.00
    4    1    2     -0.45      0.00
    5    1    2      0.52      0.00
    6    1    2      0.00      0.00
    7    1    2      0.02      0.00
    8    1    2      0.58      0.00
    9    1    2     -0.19      0.00
   10    1    2     -0.57      0.00
   11    1    2     -0.22      0.00
  -12    2    2      0.03      0.00
  -11    2    2     -1.13      0.00
  -10    2    2      1.67      0.00
   -9    2    2     -1.20      0.00
   -8    2    2      0.25      0.00
   -7    2    2      0.57      0.00
   -6    2    2     -4.18      0.00
   -5    2    2      1.55      0.00
   -4    2    2      2.19      0.00
   -3    2    2      3.21      0.00
   -2    2    2     -3.89      0.00
   -1    2    2    -23.65      0.00
    0    2    2     19.05      0.00
    1    2    2     10.18      0.00
    2    2    2     -7.35      0.00
    3    2    2      1.30      0.00
    4    2    2      2.60      0.00
    5    2    2      0.61      0.00
    6    2    2     -0.20      0.00
    7    2    2     -1.72      0.00
    8    2    2     -0.40      0.00
    9    2    2      0.82      0.00
   10    2    2     -1.03      0.00
   11    2    2      0.18      0.00
  -12    3    2     -0.23      0.00
  -11    3    2     -0.75      0.00
  -10    3    2      0.36      0.00
   -9    3    2      1.18      0.00
   -8    3    2     -2.52      0.00
   -7    3    2     -0.85      0.00
   -6    3    2     -0.53      0.00
   -5    3    2      0.71      0.00
   -4    3    2     -0.49      0.00
   -3    3    2      0.05      0.00
   -2    3    2      2.19      0.00
   -1    3    2      0.63      0.00
    0    3    2     -1.99      0.00
    1    3    2      0.57      0.00
    2    3    2      1.13      0.00
    3    3    2     -2.52      0.00
    4    3    2     -0.79      0.00
    5    3    2      1.17      0.00
    6    3    2     -0.37      0.00
    7    3    2     -0.19      0.00
    8    3    2      1.27      0.00
    9    3    2     -0.59      0.00
   10    3    2     -1.70      0.00
   11    3    2     -0.58      0.00
  -11    4    2     -0.41      0.00
  -10    4    2      1.00      0.00
   -9    4    2     -0.90      0.00
   -8    4    2      1.01      0.00
   -7    4    2      0.07      0.00
   -6    4    2     -3.71      0.00
   -5    4    2      2.71      0.00
   -4    4    2      1.71      0.00
   -3    4    2      1.48      0.00
   -2    4    2     -1.02      0.00
   -1    4    2    -19.59      0.00
    0    4    2     11.74      0.00
    1    4    2      5.86      0.00
    2    4    2     -7.98      0.00
    3    4    2      2.07      0.00
    4    4    2      2.38      0.00
    5    4    2      0.87      0.00
    6    4    2      0.67      0.00
    7    4    2     -0.81      0.00
    8    4    2     -0.30      0.00
    9    4    2     -0.18      0.00
   10    4    2     -1.09      0.00
   11    4    2     -0.34      0.00
  -11    5    2     -0.93      0.00
  -10    5    2      0.66      0.00
   -9    5    2      2.09      0.00
   -8    5    2     -3.53      0.00
   -7    5    2     -1.67      0.00
   -6    5    2     -0.45      0.00
   -5    5    2      1.42      0.00
   -4    5    2     -0.68      0.00
   -3    5    2     -0.46      0.00
   -2    5    2      2.32      0.00
   -1    5    2      0.21      0.00
    0    5    2     -2.64      0.00
    1    5    2      0.59      0.00
    2    5    2      0.90      0.00
    3    5    2     -2.37      0.00
    4    5    2     -0.12      0.00
    5    5    2      1.09      0.00
    6    5    2     -1.06      0.00
    7    5    2     -0.60      0.00
    8    5    2      1.06      0.00
    9    5    2     -1.13      0.00
   10    5    2     -2.93      0.00
   11    5    2     -0.86      0.00
  -11    6    2      0.15      0.00
  -10    6    2      0.28      0.00
   -9    6    2     -0.22      0.00
   -8    6    2      2.20      0.00
   -7    6    2     -0.44      0.00
   -6    6    2     -3.25      0.00
   -5    6    2      3.52      0.00
   -4    6    2      0.70      0.00
   -3    6    2     -0.72      0.00
   -2    6    2      1.07      0.00
   -1    6    2    -14.26      0.00
    0    6    2      6.69      0.00
    1    6    2      3.50      0.00
    2    6    2     -7.76      0.00
    3    6    2      2.34      0.00
    4    6    2      1.20      0.00
    5    6    2      0.92      0.00
    6    6    2      1.14      0.00
    7    6    2     -0.31      0.00
    8    6    2      0.01      0.00
    9    6    2     -0.59      0.00
   10    6    2     -0.48      0.00
  -11    7    2     -0.77      0.00
  -10    7    2      0.81      0.00
   -9    7    2      2.71      0.00
   -8    7    2     -3.45      0.00
   -7    7    2     -2.29      0.00
   -6    7    2     -0.43      0.00
   -5    7    2      1.56      0.00
   -4    7    2     -0.44      0.00
   -3    7    2     -0.79      0.00
   -2    7    2      1.20      0.00
   -1    7    2     -0.71      0.00
    0    7    2     -2.58      0.00
    1    7    2      0.10      0.00
    2    7    2      0.05      0.00
    3    7    2     -1.26      0.00
    4    7    2      0.80      0.00
    5    7    2      0.51      0.00
    6    7    2     -1.32      0.00
    7    7    2     -0.54      0.00
    8    7    2      0.31      0.00
    9    7    2     -1.64      0.00
   10    7    2     -3.91      0.00
  -11    8    2      0.22      0.00
  -10    8    2     -0.40      0.00
   -9    8    2      0.25      0.00
   -8    8    2      3.04      0.00
   -7    8    2     -0.82      0.00
   -6    8    2     -2.94      0.00
   -5    8    2      3.49      0.00
   -4    8    2     -0.33      0.00
   -3    8    2     -1.97      0.00
   -2    8    2      1.96      0.00
   -1    8    2     -9.32      0.00
    0    8    2      5.41      0.00
    1    8    2      3.43      0.00
    2    8    2     -6.39      0.00
    3    8    2      2.22      0.00
    4    8    2     -0.40      0.00
    5    8    2      0.82      0.00
    6    8    2      1.04      0.00
    7    8    2     -0.33      0.00
    8    8    2      0.35      0.00
    9    8    2     -0.46      0.00
   10    8    2      0.27      0.00
  -11    9    2     -0.23      0.00
  -10    9    2      0.85      0.00
   -9    9    2      2.62      0.00
   -8    9    2     -2.27      0.00
   -7    9    2     -2.13      0.00
   -6    9    2     -0.65      0.00
   -5    9    2      0.70      0.00
   -4    9    2     -0.04      0.00
   -3    9    2     -0.75      0.00
   -2    9    2     -0.41      0.00
   -1    9    2     -1.18      0.00
    0    9    2     -1.87      0.00
    1    9    2     -0.68      0.00
    2    9    2     -0.60      0.00
    3    9    2     -0.28      0.00
    4    9    2      0.99      0.00
    5    9    2     -0.10      0.00
    6    9    2     -0.80      0.00
    7    9    2      0.10      0.00
    8    9    2     -0.20      0.00
    9    9    2     -1.70      0.00
   10    9    2     -4.07      0.00
  -11   10    2     -0.02      0.00
  -10   10    2     -1.10      0.00
   -9   10    2     -0.18      0.00
   -8   10    2      2.74      0.00
   -7   10    2     -1.01      0.00
   -6   10    2     -2.72      0.00
   -5   10    2      2.81      0.00
   -4   10    2     -0.71      0.00
   -3   10    2     -1.54      0.00
   -2   10    2      2.69      0.00
   -1   10    2     -5.81      0.00
    0   10    2      5.04      0.00
    1   10    2      3.09      0.00
    2   10    2     -4.48      0.00
    3   10    2      2.05      0.00
    4   10    2     -1.44      0.00
    5   10    2      0.77      0.00
    6   10    2      0.82      0.00
    7   10    2     -0.35      0.00
    8   10    2      0.41      0.00
    9   10    2     -0.51      0.00
   10   10    2      0.36      0.00
  -10   11    2      0.97      0.00
   -9   11    2      1.72      0.00
   -8   11    2     -0.62      0.00
   -7   11    2     -1.08      0.00
   -6   11    2     -0.77      0.00
   -5   11    2     -0.51      0.00
   -4   11    2     -0.08      0.00
   -3   11    2     -0.82      0.00
   -2   11    2     -1.31      0.00
   -1   11    2     -0.53      0.00
    0   11    2     -0.87      0.00
    1   11    2     -1.16      0.00
    2   11    2     -0.45      0.00
    3   11    2      0.18      0.00
    4   11    2      0.57      0.00
    5   11    2     -0.37      0.00
    6   11    2     -0.13      0.00
    7   11    2      0.48      0.00
    8   11    2     -0.07      0.00
    9   11    2     -1.07      0.00
   10   11    2     -3.20      0.00
  -10   12    2     -1.65      0.00
   -9   12    2     -1.15      0.00
   -8   12    2      1.61      0.00
   -7   12    2     -0.81      0.00
   -6   12    2     -2.43      0.00
   -5   12    2      1.95      0.00
   -4   12    2     -0.51      0.00
   -3   12    2     -0.49      0.00
   -2   12    2      3.46      0.00
   -1   12    2     -3.80      0.00
    0   12    2      3.59      0.00
    1   12    2      1.51      0.00
    2   12    2     -2.71      0.00
    3   12    2      1.66      0.00
    4   12    2     -1.70      0.00
    5   12    2      0.73      0.00
    6   12    2      0.73      0.00
    7   12    2     -0.14      0.00
    8   12    2      0.05      0.00
    9   12    2     -0.93      0.00
  -10   13    2      1.13      0.00
   -9   13    2      0.43      0.00
   -8   13    2      0.76      0.00
   -7   13    2      0.19      0.00
   -6   13    2     -0.71      0.00
   -5   13    2     -0.94      0.00
   -4   13    2     -0.55      0.00
   -3   13    2     -1.27      0.00
   -2   13    2     -0.91      0.00
   -1   13    2      0.64      0.00
    0   13    2     -0.18      0.00
    1   13    2     -0.81      0.00
    2   13    2      0.26      0.00
    3   13    2      0.40      0.00
    4   13    2      0.41      0.00
    5   13    2     -0.23      0.00
    6   13    2      0.03      0.00
    7   13    2     -0.12      0.00
    8   13    2      0.45      0.00
    9   13    2     -0.16      0.00
  -10   14    2     -1.72      0.00
   -9   14    2     -1.68      0.00
   -8   14    2      0.63      0.00
   -7   14    2     -0.13      0.00
   -6   14    2     -1.89      0.00
   -5   14    2      1.26      0.00
   -4   14    2     -0.27      0.00
   -3   14    2     -0.22      0.00
   -2   14    2      3.33      0.00
   -1   14    2     -2.81      0.00
    0   14    2      2.08      0.00
    1   14    2      0.13      0.00
    2   14    2     -1.49      0.00
    3   14    2      0.81      0.00
    4   14    2     -1.55      0.00
    5   14    2      0.56      0.00
    6   14    2      0.62      0.00
    7   14    2      0.00      0.00
    8   14    2     -0.54      0.00
    9   14    2     -1.23      0.00
   -9   15    2     -0.58      0.00
   -8   15    2      1.65      0.00
   -7   15    2      0.73      0.00
   -6   15    2     -1.06      0.00
   -5   15    2     -0.25      0.00
   -4   15    2     -0.77      0.00
   -3   15    2     -1.67      0.00
   -2   15    2      0.14      0.00
   -1   15    2      0.96      0.00
    0   15    2     -0.08      0.00
    1   15    2      0.40      0.00
    2   15    2      0.72      0.00
    3   15    2      0.62      0.00
    4   15    2      0.87      0.00
    5   15    2      0.02      0.00
    6   15    2     -0.15      0.00
    7   15    2     -1.20      0.00
    8   15    2      0.85      0.00
   -9   16    2     -1.46      0.00
   -8   16    2      0.14      0.00
   -7   16    2      0.66      0.00
   -6   16    2     -1.09      0.00
   -5   16    2      0.82      0.00
   -4   16    2     -0.20      0.00
   -3   16    2     -0.52      0.00
   -2   16    2      2.12      0.00
   -1   16    2     -2.40      0.00
    0   16    2      1.78      0.00
    1   16    2     -0.22      0.00
    2   16    2     -1.14      0.00
    3   16    2     -0.06      0.00
    4   16    2     -1.27      0.00
    5   16    2      0.29      0.00
    6   16    2      0.38      0.00
    7   16    2     -0.07      0.00
    8   16    2     -0.93      0.00
   -8   17    2      2.15      0.00
   -7   17    2      0.28      0.00
   -6   17    2     -2.16      0.00
   -5   17    2      0.84      0.00
   -4   17    2     -0.35      0.00
   -3   17    2     -1.62      0.00
   -2   17    2      0.55      0.00
   -1   17    2     -0.01      0.00
    0   17    2     -0.21      0.00
    1   17    2      1.75      0.00
    2   17    2      0.40      0.00
    3   17    2      0.76      0.00
    4   17    2      1.32      0.00
    5   17    2     -0.09      0.00
    6   17    2     -0.11      0.00
    7   17    2     -1.64      0.00
    8   17    2      0.88      0.00
   -8   18    2     -0.29      0.00
   -7   18    2      1.02      0.00
   -6   18    2     -0.19      0.00
   -5   18    2      0.50      0.00
   -4   18    2     -0.18      0.00
   -3   18    2     -0.18      0.00
   -2   18    2      0.89      0.00
   -1   18    2     -2.27      0.00
    0   18    2      2.14      0.00
    1   18    2     -0.48      0.00
    2   18    2     -1.79      0.00
    3   18    2     -0.27      0.00
    4   18    2     -0.92      0.00
    5   18    2     -0.06      0.00
    6   18    2      0.19      0.00
    7   18    2     -0.06      0.00
   -7   19    2     -0.53      0.00
   -6   19    2     -3.32      0.00
   -5   19    2      1.42      0.00
   -4   19    2      0.14      0.00
   -3   19    2     -1.43      0.00
   -2   19    2     -0.24      0.00
   -1   19    2     -1.19      0.00
    0   19    2     -0.10      0.00
    1   19    2      2.21      0.00
    2   19    2     -0.39      0.00
    3   19    2      0.77      0.00
    4   19    2      1.07      0.00
    5   19    2     -0.75      0.00
    6   19    2      0.15      0.00
    7   19    2     -1.08      0.00
   -7   20    2      0.86      0.00
   -6   20    2      0.63      0.00
   -5   20    2      0.07      0.00
   -4   20    2     -0.22      0.00
   -3   20    2      0.90      0.00
   -2   20    2      0.45      0.00
   -1   20    2     -2.18      0.00
    0   20    2      1.90      0.00
    1   20    2     -1.30      0.00
    2   20    2     -2.82      0.00
    3   20    2      0.14      0.00
    4   20    2     -0.65      0.00
    5   20    2     -0.52      0.00
    6   20    2      0.15      0.00
   -6   21    2     -3.50      0.00
   -5   21    2      1.30      0.00
   -4   21    2      0.09      0.00
   -3   21    2     -1.49      0.00
   -2   21    2     -1.48      0.00
   -1   21    2     -1.30      0.00
    0   21    2      0.28      0.00
    1   21    2      1.39      0.00
    2   21    2     -0.90      0.00
    3   21    2      0.75      0.00
    4   21    2      0.26      0.00
    5   21    2     -1.54      0.00
   -5   22    2     -0.48      0.00
   -4   22    2     -0.38      0.00
   -3   22    2      1.62      0.00
   -2   22    2      0.45      0.00
   -1   22    2     -1.97      0.00
    0   22    2      0.94      0.00
    1   22    2     -1.88      0.00
    2   22    2     -3.25      0.00
    3   22    2      0.48      0.00
    4   22    2     -0.48      0.00
   -4   23    2     -0.37      0.00
   -3   23    2     -1.55      0.00
   -2   23    2     -1.95      0.00
   -1   23    2     -0.39      0.00
    0   23    2      0.57      0.00
    1   23    2      0.06      0.00
    2   23    2     -0.72      0.00
    3   23    2      0.74      0.00
   -3   24    2      1.38      0.00
   -2   24    2      0.35      0.00
   -1   24    2     -1.59      0.00
    0   24    2      0.02      0.00
    1   24    2     -1.44      0.00
    2   24    2     -2.69      0.00
  -11    1    3     -0.74      0.00
  -10    1    3      2.33      0.00
   -9    1    3     -0.52      0.00
   -8    1    3      0.50      0.00
   -7    1    3      1.07      0.00
   -6    1    3     -3.80      0.00
   -5    1    3     -1.40      0.00
   -4    1    3      2.35      0.00
   -3    1    3     -0.32      0.00
   -2    1    3      1.01      0.00
   -1    1    3    -11.53      0.00
    0    1    3      3.73      0.00
    1    1    3     11.78      0.00
    2    1    3     -3.44      0.00
    3    1    3     -1.00      0.00
    4    1    3      2.56      0.00
    5    1    3     -1.22      0.00
    6    1    3      1.04      0.00
    7    1    3      0.33      0.00
    8    1    3      0.06      0.00
    9    1    3      0.60      0.00
   10    1    3      0.37      0.00
  -11    2    3     -0.06      0.00
  -10    2    3      0.36      0.00
   -9    2    3      1.26      0.00
   -8    2    3     -0.63      0.00
   -7    2    3     -0.25      0.00
   -6    2    3     -0.79      0.00
   -5    2    3      0.25      0.00
   -4    2    3     -0.12      0.00
   -3    2    3      0.74      0.00
   -2    2    3      0.83      0.00
   -1    2    3      0.21      0.00
    0    2    3     -0.02      0.00
    1    2    3     -0.27      0.00
    2    2    3      0.26      0.00
    3    2    3     -0.42      0.00
    4    2    3     -0.37      0.00
    5    2    3      0.28      0.00
    6    2    3     -0.44      0.00
    7    2    3     -0.08      0.00
    8    2    3      0.97      0.00
    9    2    3     -0.25      0.00
   10    2    3     -0.15      0.00
  -11    3    3     -0.55      0.00
  -10    3    3      1.85      0.00
   -9    3    3     -0.56      0.00
   -8    3    3      0.51      0.00
   -7    3    3      0.68      0.00
   -6    3    3     -3.74      0.00
   -5    3    3     -0.62      0.00
   -4    3    3      2.94      0.00
   -3    3    3     -0.51      0.00
   -2    3    3      1.62      0.00
   -1    3    3     -9.50      0.00
    0    3    3      2.31      0.00
    1    3    3      9.48      0.00
    2    3    3     -4.27      0.00
    3    3    3     -0.38      0.00
    4    3    3      2.19      0.00
    5    3    3     -0.92      0.00
    6    3    3      1.48      0.00
    7    3    3      0.45      0.00
    8    3    3      0.20      0.00
    9    3    3      0.52      0.00
   10    3    3      0.23      0.00
  -11    4    3     -0.30      0.00
  -10    4    3      0.65      0.00
   -9    4    3      2.49      0.00
   -8    4    3     -1.13      0.00
   -7    4    3     -0.57      0.00
   -6    4    3     -0.95      0.00
   -5    4    3      0.64      0.00
   -4    4    3     -0.70      0.00
   -3    4    3      0.74      0.00
   -2    4    3      1.09      0.00
   -1    4    3      0.05      0.00
    0    4    3     -0.10      0.00
    1    4    3     -0.38      0.00
    2    4    3      0.34      0.00
    3    4    3     -0.37      0.00
    4    4    3     -0.32      0.00
    5    4    3      0.30      0.00
    6    4    3     -0.88      0.00
    7    4    3     -0.23      0.00
    8    4    3      1.44      0.00
    9    4    3     -0.45      0.00
   10    4    3     -0.57      0.00
  -11    5    3     -0.22      0.00
  -10    5    3      1.11      0.00
   -9    5    3     -0.46      0.00
   -8    5    3      0.91      0.00
   -7    5    3      0.12      0.00
   -6    5    3     -3.77      0.00
   -5    5    3      0.21      0.00
   -4    5    3      3.04      0.00
   -3    5    3     -1.30      0.00
   -2    5    3      1.88      0.00
   -1    5    3     -6.69      0.00
    0    5    3      1.25      0.00
    1    5    3      7.14      0.00
    2    5    3     -4.95      0.00
    3    5    3      0.06      0.00
    4    5    3      1.10      0.00
    5    5    3     -0.55      0.00
    6    5    3      1.64      0.00
    7    5    3      0.14      0.00
    8    5    3      0.35      0.00
    9    5    3      0.54      0.00
   10    5    3      0.34      0.00
  -11    6    3     -0.71      0.00
  -10    6    3      0.58      0.00
   -9    6    3      3.20      0.00
   -8    6    3     -1.36      0.00
   -7    6    3     -0.83      0.00
   -6    6    3     -0.45      0.00
   -5    6    3      0.97      0.00
   -4    6    3     -1.23      0.00
   -3    6    3      0.58      0.00
   -2    6    3      0.64      0.00
   -1    6    3     -0.59      0.00
    0    6    3     -0.27      0.00
    1    6    3     -0.41      0.00
    2    6    3      0.19      0.00
    3    6    3     -0.04      0.00
    4    6    3      0.00      0.00
    5    6    3      0.11      0.00
    6    6    3     -1.05      0.00
    7    6    3     -0.20      0.00
    8    6    3      1.41      0.00
    9    6    3     -0.57      0.00
   10    6    3     -1.36      0.00
  -11    7    3      0.11      0.00
  -10    7    3      0.35      0.00
   -9    7    3     -0.34      0.00
   -8    7    3      1.67      0.00
   -7    7    3     -0.27      0.00
   -6    7    3     -3.79      0.00
   -5    7    3      0.57      0.00
   -4    7    3      2.05      0.00
   -3    7    3     -2.43      0.00
   -2    7    3      1.57      0.00
   -1    7    3     -4.43      0.00
    0    7    3      1.38      0.00
    1    7    3      6.02      0.00
    2    7    3     -4.72      0.00
    3    7    3      0.05      0.00
    4    7    3     -0.18      0.00
    5    7    3     -0.14      0.00
    6    7    3      1.10      0.00
    7    7    3     -0.60      0.00
    8    7    3      0.41      0.00
    9    7    3      0.51      0.00
   10    7    3      0.57      0.00
  -11    8    3     -0.94      0.00
  -10    8    3      0.09      0.00
   -9    8    3      2.79      0.00
   -8    8    3     -1.26      0.00
   -7    8    3     -0.80      0.00
   -6    8    3      0.22      0.00
   -5    8    3      0.86      0.00
   -4    8    3     -1.01      0.00
   -3    8    3      1.08      0.00
   -2    8    3     -0.19      0.00
   -1    8    3     -1.17      0.00
    0    8    3     -0.20      0.00
    1    8    3     -0.47      0.00
    2    8    3      0.01      0.00
    3    8    3     -0.02      0.00
    4    8    3     -0.01      0.00
    5    8    3     -0.18      0.00
    6    8    3     -0.89      0.00
    7    8    3      0.10      0.00
    8    8    3      1.24      0.00
    9    8    3     -0.39      0.00
   10    8    3     -2.11      0.00
  -11    9    3      0.36      0.00
  -10    9    3     -0.27      0.00
   -9    9    3     -0.67      0.00
   -8    9    3      2.03      0.00
   -7    9    3     -0.40      0.00
   -6    9    3     -3.55      0.00
   -5    9    3      0.58      0.00
   -4    9    3      0.71      0.00
   -3    9    3     -2.78      0.00
   -2    9    3      1.70      0.00
   -1    9    3     -3.04      0.00
    0    9    3      1.64      0.00
    1    9    3      5.10      0.00
    2    9    3     -3.79      0.00
    3    9    3      0.00      0.00
    4    9    3     -0.62      0.00
    5    9    3      0.33      0.00
    6    9    3      0.36      0.00
    7    9    3     -0.89      0.00
    8    9    3      0.49      0.00
    9    9    3      0.14      0.00
  -10   10    3     -0.47      0.00
   -9   10    3      1.27      0.00
   -8   10    3     -0.92      0.00
   -7   10    3     -0.25      0.00
   -6   10    3      0.74      0.00
   -5   10    3      0.32      0.00
   -4   10    3     -0.25      0.00
   -3   10    3      1.77      0.00
   -2   10    3     -0.97      0.00
   -1   10    3     -0.83      0.00
    0   10    3      0.47      0.00
    1   10    3     -0.54      0.00
    2   10    3      0.00      0.00
    3   10    3     -0.33      0.00
    4   10    3     -0.44      0.00
    5   10    3     -0.53      0.00
    6   10    3     -0.75      0.00
    7   10    3      0.21      0.00
    8   10    3      1.17      0.00
    9   10    3      0.21      0.00
  -10   11    3     -0.68      0.00
   -9   11    3     -1.47      0.00
   -8   11    3      1.55      0.00
   -7   11    3     -0.29      0.00
   -6   11    3     -2.98      0.00
   -5   11    3      0.58      0.00
   -4   11    3      0.05      0.00
   -3   11    3     -2.12      0.00
   -2   11    3      2.54      0.00
   -1   11    3     -2.26      0.00
    0   11    3      1.07      0.00
    1   11    3      3.47      0.00
    2   11    3     -2.60      0.00
    3   11    3      0.20      0.00
    4   11    3     -0.09      0.00
    5   11    3      0.58      0.00
    6   11    3      0.10      0.00
    7   11    3     -0.20      0.00
    8   11    3      0.50      0.00
    9   11    3     -0.55      0.00
  -10   12    3     -0.62      0.00
   -9   12    3     -0.57      0.00
   -8   12    3     -0.43      0.00
   -7   12    3      0.64      0.00
   -6   12    3      1.00      0.00
   -5   12    3     -0.11      0.00
   -4   12    3      0.31      0.00
   -3   12    3      1.53      0.00
   -2   12    3     -1.35      0.00
   -1   12    3      0.45      0.00
    0   12    3      1.43      0.00
    1   12    3     -0.56      0.00
    2   12    3      0.01      0.00
    3   12    3     -0.45      0.00
    4   12    3     -0.73      0.00
    5   12    3     -0.88      0.00
    6   12    3     -0.89      0.00
    7   12    3     -0.34      0.00
    8   12    3      1.09      0.00
    9   12    3      0.93      0.00
  -10   13    3     -0.79      0.00
   -9   13    3     -2.04      0.00
   -8   13    3      0.72      0.00
   -7   13    3      0.01      0.00
   -6   13    3     -2.30      0.00
   -5   13    3      0.64      0.00
   -4   13    3      0.16      0.00
   -3   13    3     -1.46      0.00
   -2   13    3      2.81      0.00
   -1   13    3     -2.00      0.00
    0   13    3      0.19      0.00
    1   13    3      1.89      0.00
    2   13    3     -1.32      0.00
    3   13    3      0.43      0.00
    4   13    3      0.43      0.00
    5   13    3      0.26      0.00
    6   13    3      0.38      0.00
    7   13    3      0.79      0.00
    8   13    3      0.11      0.00
   -9   14    3     -1.66      0.00
   -8   14    3      0.21      0.00
   -7   14    3      1.33      0.00
   -6   14    3      0.79      0.00
   -5   14    3      0.02      0.00
   -4   14    3      0.51      0.00
   -3   14    3      0.44      0.00
   -2   14    3     -1.16      0.00
   -1   14    3      1.39      0.00
    0   14    3      1.72      0.00
    1   14    3     -0.35      0.00
    2   14    3     -0.33      0.00
    3   14    3     -0.04      0.00
    4   14    3     -0.43      0.00
    5   14    3     -1.10      0.00
    6   14    3     -1.02      0.00
    7   14    3     -1.26      0.00
    8   14    3      0.83      0.00
   -9   15    3     -1.83      0.00
   -8   15    3      0.18      0.00
   -7   15    3      0.31      0.00
   -6   15    3     -1.75      0.00
   -5   15    3      0.57      0.00
   -4   15    3      0.38      0.00
   -3   15    3     -1.43      0.00
   -2   15    3      1.68      0.00
   -1   15    3     -2.27      0.00
    0   15    3     -0.05      0.00
    1   15    3      1.14      0.00
    2   15    3     -0.28      0.00
    3   15    3      0.53      0.00
    4   15    3      0.24      0.00
    5   15    3     -0.39      0.00
    6   15    3      0.82      0.00
    7   15    3      1.10      0.00
    8   15    3     -0.63      0.00
   -9   16    3     -1.54      0.00
   -8   16    3      0.98      0.00
   -7   16    3      1.39      0.00
   -6   16    3      0.04      0.00
   -5   16    3      0.67      0.00
   -4   16    3      0.73      0.00
   -3   16    3     -0.23      0.00
   -2   16    3     -0.59      0.00
   -1   16    3      0.82      0.00
    0   16    3      0.93      0.00
    1   16    3      0.21      0.00
    2   16    3     -1.15      0.00
    3   16    3      0.57      0.00
    4   16    3      0.16      0.00
    5   16    3     -1.21      0.00
    6   16    3     -0.76      0.00
    7   16    3     -1.77      0.00
   -8   17    3     -0.05      0.00
   -7   17    3      0.40      0.00
   -6   17    3     -1.25      0.00
   -5   17    3      0.29      0.00
   -4   17    3      0.25      0.00
   -3   17    3     -1.32      0.00
   -2   17    3      0.14      0.00
   -1   17    3     -2.70      0.00
    0   17    3      0.32      0.00
    1   17    3      0.72      0.00
    2   17    3     -0.07      0.00
    3   17    3      0.69      0.00
    4   17    3     -0.24      0.00
    5   17    3     -0.68      0.00
    6   17    3      1.09      0.00
    7   17    3      0.74      0.00
   -8   18    3      1.62      0.00
   -7   18    3      0.95      0.00
   -6   18    3     -0.74      0.00
   -5   18    3      1.45      0.00
   -4   18    3      1.17      0.00
   -3   18    3      0.24      0.00
   -2   18    3     -0.16      0.00
   -1   18    3     -0.78      0.00
    0   18    3     -0.21      0.00
    1   18    3      0.94      0.00
    2   18    3     -2.06      0.00
    3   18    3      0.88      0.00
    4   18    3      0.37      0.00
    5   18    3     -1.32      0.00
    6   18    3     -0.26      0.00
   -7   19    3      0.38      0.00
   -6   19    3     -0.48      0.00
   -5   19    3     -0.08      0.00
   -4   19    3     -0.19      0.00
   -3   19    3     -0.45      0.00
   -2   19    3     -0.42      0.00
   -1   19    3     -2.71      0.00
    0   19    3      0.62      0.00
    1   19    3      0.06      0.00
    2   19    3     -0.68      0.00
    3   19    3      1.03      0.00
    4   19    3     -0.33      0.00
    5   19    3     -0.33      0.00
    6   19    3      1.17      0.00
   -6   20    3     -0.97      0.00
   -5   20    3      1.97      0.00
   -4   20    3      1.51      0.00
   -3   20    3      1.22      0.00
   -2   20    3     -0.21      0.00
   -1   20    3     -1.74      0.00
    0   20    3     -0.62      0.00
    1   20    3      1.33      0.00
    2   20    3     -2.53      0.00
    4   20    3      0.03      0.00
    5   20    3     -1.43      0.00
   -6   21    3      0.58      0.00
   -5   21    3     -0.41      0.00
   -4   21    3     -0.67      0.00
   -3   21    3      0.57      0.00
   -2   21    3     -0.12      0.00
   -1   21    3     -2.18      0.00
    0   21    3      0.51      0.00
    1   21    3     -0.37      0.00
    2   21    3     -1.22      0.00
    3   21    3      1.25      0.00
    4   21    3     -0.02      0.00
   -5   22    3      2.07      0.00
   -4   22    3      1.47      0.00
   -3   22    3      1.71      0.00
   -2   22    3     -0.51      0.00
   -1   22    3     -1.15      0.00
    0   22    3     -0.17      0.00
    1   22    3      1.04      0.00
    2   22    3     -2.31      0.00
    3   22    3      0.55      0.00
   -3   23    3      0.77      0.00
   -2   23    3      0.05      0.00
   -1   23    3     -1.46      0.00
    0   23    3      0.14      0.00
    1   23    3     -0.03      0.00
    2   23    3     -0.99      0.00
  -11    0    4      0.29      0.00
  -10    0    4      1.16      0.00
   -9    0    4     -0.24      0.00
   -8    0    4      1.61      0.00
   -7    0    4      1.32      0.00
   -6    0    4     -1.10      0.00
   -5    0    4     -1.67      0.00
   -4    0    4      2.72      0.00
   -3    0    4      0.20      0.00
   -2    0    4      0.40      0.00
   -1    0    4     -5.08      0.00
    0    0    4      0.61      0.00
    1    0    4      8.74      0.00
    2    0    4     -2.35      0.00
    3    0    4     -1.86      0.00
    4    0    4      2.18      0.00
    5    0    4     -1.03      0.00
    6    0    4      0.82      0.00
    7    0    4      0.96      0.00
    8    0    4      0.02      0.00
    9    0    4     -1.53      0.00
   10    0    4      0.97      0.00
  -11    1    4      0.00      0.00
  -10    1    4     -0.28      0.00
   -9    1    4      0.37      0.00
   -8    1    4      0.02      0.00
   -7    1    4     -0.39      0.00
   -6    1    4     -0.65      0.00
   -5    1    4      0.20      0.00
   -4    1    4     -0.01      0.00
   -3    1    4     -0.38      0.00
   -2    1    4      0.79      0.00
   -1    1    4      0.64      0.00
    0    1    4     -0.29      0.00
    1    1    4     -0.34      0.00
    2    1    4      0.57      0.00
    3    1    4     -0.01      0.00
    4    1    4     -0.32      0.00
    5    1    4      0.13      0.00
    6    1    4     -0.05      0.00
    7    1    4      0.29      0.00
    8    1    4      0.35      0.00
    9    1    4      0.01      0.00
   10    1    4      0.71      0.00
  -11    2    4      0.12      0.00
  -10    2    4      1.26      0.00
   -9    2    4     -0.24      0.00
   -8    2    4      1.25      0.00
   -7    2    4      1.25      0.00
   -6    2    4     -1.08      0.00
   -5    2    4     -1.52      0.00
   -4    2    4      2.93      0.00
   -3    2    4      0.06      0.00
   -2    2    4      0.44      0.00
   -1    2    4     -4.63      0.00
    0    2    4     -0.08      0.00
    1    2    4      7.68      0.00
    2    2    4     -2.63      0.00
    3    2    4     -1.72      0.00
    4    2    4      1.82      0.00
    5    2    4     -0.93      0.00
    6    2    4      1.00      0.00
    7    2    4      0.86      0.00
    8    2    4      0.12      0.00
    9    2    4     -1.28      0.00
   10    2    4      0.78      0.00
  -11    3    4     -0.12      0.00
  -10    3    4     -0.65      0.00
   -9    3    4      1.23      0.00
   -8    3    4      0.01      0.00
   -7    3    4     -0.93      0.00
   -6    3    4     -1.24      0.00
   -5    3    4      0.60      0.00
   -4    3    4     -0.42      0.00
   -3    3    4     -1.37      0.00
   -2    3    4      1.86      0.00
   -1    3    4      1.68      0.00
    0    3    4     -0.55      0.00
    1    3    4     -0.72      0.00
    2    3    4      1.46      0.00
    3    3    4      0.07      0.00
    4    3    4     -0.73      0.00
    5    3    4      0.20      0.00
    6    3    4     -0.29      0.00
    7    3    4      0.70      0.00
    8    3    4      0.83      0.00
    9    3    4     -0.03      0.00
  -11    4    4     -0.18      0.00
  -10    4    4      1.51      0.00
   -9    4    4     -0.18      0.00
   -8    4    4      0.62      0.00
   -7    4    4      1.12      0.00
   -6    4    4     -1.15      0.00
   -5    4    4     -1.16      0.00
   -4    4    4      3.24      0.00
   -3    4    4     -0.45      0.00
   -2    4    4      0.44      0.00
   -1    4    4     -3.43      0.00
    0    4    4     -1.30      0.00
    1    4    4      5.60      0.00
    2    4    4     -3.04      0.00
    3    4    4     -1.58      0.00
    4    4    4      0.74      0.00
    5    4    4     -0.69      0.00
    6    4    4      1.25      0.00
    7    4    4      0.45      0.00
    8    4    4      0.38      0.00
    9    4    4     -0.56      0.00
  -11    5    4     -0.47      0.00
  -10    5    4     -0.73      0.00
   -9    5    4      2.00      0.00
   -8    5    4     -0.10      0.00
   -7    5    4     -0.91      0.00
   -6    5    4     -0.46      0.00
   -5    5    4      0.96      0.00
   -4    5    4     -1.13      0.00
   -3    5    4     -2.22      0.00
   -2    5    4      1.88      0.00
   -1    5    4      1.87      0.00
    0    5    4     -0.47      0.00
    1    5    4     -0.66      0.00
    2    5    4      1.56      0.00
    3    5    4      0.09      0.00
    4    5    4     -0.63      0.00
    5    5    4      0.07      0.00
    6    5    4     -0.53      0.00
    7    5    4      0.94      0.00
    8    5    4      0.93      0.00
    9    5    4     -0.15      0.00
  -11    6    4     -0.28      0.00
  -10    6    4      1.69      0.00
   -9    6    4      0.00      0.00
   -8    6    4      0.52      0.00
   -7    6    4      1.17      0.00
   -6    6    4     -1.24      0.00
   -5    6    4     -0.71      0.00
   -4    6    4      3.05      0.00
   -3    6    4     -1.43      0.00
   -2    6    4      0.29      0.00
   -1    6    4     -2.02      0.00
    0    6    4     -1.84      0.00
    1    6    4      4.09      0.00
    2    6    4     -2.93      0.00
    3    6    4     -1.53      0.00
    4    6    4     -0.47      0.00
    5    6    4     -0.33      0.00
    6    6    4      1.09      0.00
    7    6    4     -0.34      0.00
    8    6    4      0.56      0.00
    9    6    4      0.28      0.00
  -11    7    4     -0.66      0.00
  -10    7    4     -0.64      0.00
   -9    7    4      2.18      0.00
   -8    7    4     -0.25      0.00
   -7    7    4     -0.53      0.00
   -6    7    4      0.95      0.00
   -5    7    4      0.90      0.00
   -4    7    4     -1.25      0.00
   -3    7    4     -1.75      0.00
   -2    7    4      0.98      0.00
   -1    7    4      1.03      0.00
    0    7    4     -0.35      0.00
    1    7    4     -0.55      0.00
    2    7    4      0.92      0.00
    3    7    4     -0.28      0.00
    4    7    4     -0.32      0.00
    5    7    4     -0.07      0.00
    6    7    4     -0.61      0.00
    7    7    4      1.13      0.00
    8    7    4      0.87      0.00
    9    7    4     -0.12      0.00
  -10    8    4      1.56      0.00
   -9    8    4     -0.02      0.00
   -8    8    4      0.86      0.00
   -7    8    4      1.27      0.00
   -6    8    4     -1.21      0.00
   -5    8    4     -0.24      0.00
   -4    8    4      2.35      0.00
   -3    8    4     -2.36      0.00
   -2    8    4      0.42      0.00
   -1    8    4     -0.82      0.00
    0    8    4     -1.70      0.00
    1    8    4      3.19      0.00
    2    8    4     -2.49      0.00
    3    8    4     -1.50      0.00
    4    8    4     -0.86      0.00
    5    8    4      0.07      0.00
    6    8    4      0.37      0.00
    7    8    4     -1.08      0.00
    8    8    4      0.63      0.00
    9    8    4      0.72      0.00
  -10    9    4     -0.44      0.00
   -9    9    4      1.46      0.00
   -8    9    4     -0.34      0.00
   -7    9    4      0.00      0.00
   -6    9    4      1.94      0.00
   -5    9    4      0.29      0.00
   -4    9    4     -0.23      0.00
   -3    9    4     -0.01      0.00
   -2    9    4     -0.45      0.00
   -1    9    4     -0.14      0.00
    0    9    4     -0.09      0.00
    1    9    4     -0.64      0.00
    2    9    4      0.07      0.00
    3    9    4     -1.00      0.00
    4    9    4     -0.22      0.00
    5    9    4     -0.15      0.00
    6    9    4     -0.62      0.00
    7    9    4      1.11      0.00
    8    9    4      0.84      0.00
    9    9    4      0.28      0.00
  -10   10    4      1.01      0.00
   -9   10    4     -0.47      0.00
   -8   10    4      0.99      0.00
   -7   10    4      1.21      0.00
   -6   10    4     -1.01      0.00
   -5   10    4      0.12      0.00
   -4   10    4      1.70      0.00
   -3   10    4     -2.63      0.00
   -2   10    4      0.98      0.00
   -1   10    4     -0.01      0.00
    0   10    4     -1.67      0.00
    1   10    4      2.15      0.00
    2   10    4     -2.10      0.00
    3   10    4     -1.35      0.00
    4   10    4     -0.16      0.00
    5   10    4      0.22      0.00
    6   10    4     -0.47      0.00
    7   10    4     -1.08      0.00
    8   10    4      0.61      0.00
  -10   11    4     -0.09      0.00
   -9   11    4      0.20      0.00
   -8   11    4     -0.32      0.00
   -7   11    4      0.59      0.00
   -6   11    4      2.07      0.00
   -5   11    4     -0.48      0.00
   -4   11    4      1.33      0.00
   -3   11    4      1.35      0.00
   -2   11    4     -2.01      0.00
   -1   11    4     -0.59      0.00
    0   11    4      0.60      0.00
    1   11    4     -0.70      0.00
    2   11    4     -0.43      0.00
    3   11    4     -1.42      0.00
    4   11    4     -0.29      0.00
    5   11    4     -0.36      0.00
    6   11    4     -0.78      0.00
    7   11    4      0.65      0.00
    8   11    4      0.70      0.00
  -10   12    4      0.31      0.00
   -9   12    4     -0.90      0.00
   -8   12    4      0.87      0.00
   -7   12    4      1.14      0.00
   -6   12    4     -0.71      0.00
   -5   12    4      0.21      0.00
   -4   12    4      1.54      0.00
   -3   12    4     -2.38      0.00
   -2   12    4      1.26      0.00
   -1   12    4      0.24      0.00
    0   12    4     -1.85      0.00
    1   12    4      1.20      0.00
    2   12    4     -1.40      0.00
    3   12    4     -0.94      0.00
    4   12    4      0.86      0.00
    5   12    4     -0.09      0.00
    6   12    4     -0.77      0.00
    7   12    4     -0.35      0.00
    8   12    4      0.39      0.00
   -9   13    4     -0.89      0.00
   -8   13    4     -0.25      0.00
   -7   13    4      1.03      0.00
   -6   13    4      1.41      0.00
   -5   13    4     -0.94      0.00
   -4   13    4      2.44      0.00
   -3   13    4      1.10      0.00
   -2   13    4     -2.97      0.00
   -1   13    4     -0.18      0.00
    0   13    4      1.20      0.00
    1   13    4     -0.48      0.00
    2   13    4     -0.44      0.00
    3   13    4     -0.90      0.00
    4   13    4     -0.15      0.00
    5   13    4     -0.69      0.00
    6   13    4     -0.95      0.00
    7   13    4     -0.16      0.00
    8   13    4      0.31      0.00
   -9   14    4     -0.66      0.00
   -8   14    4      1.02      0.00
   -7   14    4      1.28      0.00
   -6   14    4     -0.53      0.00
   -5   14    4      0.01      0.00
   -4   14    4      1.75      0.00
   -3   14    4     -2.01      0.00
   -2   14    4      0.67      0.00
   -1   14    4      0.01      0.00
    0   14    4     -1.61      0.00
    1   14    4      1.11      0.00
    2   14    4      0.02      0.00
    3   14    4     -0.25      0.00
    4   14    4      1.24      0.00
    5   14    4     -0.55      0.00
    6   14    4     -0.28      0.00
    7   14    4      0.46      0.00
   -8   15    4     -0.26      0.00
   -7   15    4      0.98      0.00
   -6   15    4      0.19      0.00
   -5   15    4     -1.04      0.00
   -4   15    4      2.57      0.00
   -3   15    4     -0.09      0.00
   -2   15    4     -2.66      0.00
   -1   15    4      0.11      0.00
    0   15    4      0.62      0.00
    1   15    4      0.00      0.00
    2   15    4     -0.17      0.00
    3   15    4      0.47      0.00
    4   15    4      0.31      0.00
    5   15    4     -0.87      0.00
    6   15    4     -0.76      0.00
    7   15    4     -0.81      0.00
   -8   16    4      1.46      0.00
   -7   16    4      1.46      0.00
   -6   16    4     -0.56      0.00
   -5   16    4     -0.32      0.00
   -4   16    4      1.87      0.00
   -3   16    4     -1.48      0.00
   -2   16    4     -0.18      0.00
   -1   16    4     -0.24      0.00
    0   16    4     -0.77      0.00
    1   16    4      1.52      0.00
    2   16    4      1.38      0.00
    3   16    4      0.47      0.00
    4   16    4      0.89      0.00
    5   16    4     -0.58      0.00
    6   16    4      0.62      0.00
   -8   17    4     -0.38      0.00
   -7   17    4      0.39      0.00
   -6   17    4     -1.01      0.00
   -5   17    4     -0.98      0.00
   -4   17    4      1.82      0.00
   -3   17    4     -0.84      0.00
   -2   17    4     -1.37      0.00
   -1   17    4     -0.52      0.00
    0   17    4     -1.33      0.00
    1   17    4      0.52      0.00
    2   17    4      0.13      0.00
    3   17    4      1.93      0.00
    4   17    4      0.80      0.00
    5   17    4     -0.63      0.00
    6   17    4     -0.17      0.00
   -7   18    4      1.30      0.00
   -6   18    4     -0.58      0.00
   -5   18    4     -0.46      0.00
   -4   18    4      1.57      0.00
   -3   18    4     -0.64      0.00
   -2   18    4     -0.31      0.00
   -1   18    4     -0.12      0.00
    0   18    4      0.05      0.00
    1   18    4      1.39      0.00
    2   18    4      1.47      0.00
    3   18    4      0.75      0.00
    4   18    4      0.32      0.00
    5   18    4     -0.08      0.00
   -6   19    4     -1.47      0.00
   -5   19    4     -0.87      0.00
   -4   19    4      0.55      0.00
   -3   19    4     -0.73      0.00
   -2   19    4     -0.26      0.00
   -1   19    4     -1.58      0.00
    0   19    4     -3.28      0.00
    1   19    4      0.79      0.00
    2   19    4      0.27      0.00
    3   19    4      2.72      0.00
    4   19    4      0.95      0.00
    5   19    4     -0.06      0.00
   -5   20    4     -0.29      0.00
   -4   20    4      0.89      0.00
   -3   20    4      0.05      0.00
   -2   20    4      0.15      0.00
   -1   20    4      0.23      0.00
    0   20    4      0.22      0.00
    1   20    4      0.57      0.00
    2   20    4      0.37      0.00
    3   20    4      0.43      0.00
    4   20    4     -0.10      0.00
   -5   21    4     -0.72      0.00
   -4   21    4     -0.66      0.00
   -3   21    4     -0.29      0.00
   -2   21    4     -0.11      0.00
   -1   21    4     -1.90      0.00
    0   21    4     -3.66      0.00
    1   21    4      0.67      0.00
    2   21    4      0.14      0.00
   -3   22    4     -0.01      0.00
   -2   22    4      0.26      0.00
   -1   22    4      0.46      0.00
    0   22    4     -0.21      0.00
    1   22    4     -0.03      0.00
    2   22    4     -0.61      0.00
  -11    1    5      1.85      0.00
  -10    1    5      0.18      0.00
   -9    1    5     -0.16      0.00
   -8    1    5      0.07      0.00
   -7    1    5     -0.36      0.00
   -6    1    5     -0.99      0.00
   -5    1    5     -2.18      0.00
   -4    1    5      1.75      0.00
   -3    1    5     -0.26      0.00
   -2    1    5      0.61      0.00
   -1    1    5     -0.43      0.00
    0    1    5     -0.53      0.00
    1    1    5      3.71      0.00
    2    1    5      0.11      0.00
    3    1    5     -1.43      0.00
    4    1    5      1.54      0.00
    5    1    5     -0.05      0.00
    6    1    5      0.08      0.00
    7    1    5      0.86      0.00
    8    1    5      0.23      0.00
    9    1    5     -1.07      0.00
  -11    2    5     -0.28      0.00
  -10    2    5     -0.75      0.00
   -9    2    5      0.21      0.00
   -8    2    5     -0.26      0.00
   -7    2    5     -0.66      0.00
   -6    2    5     -1.41      0.00
   -5    2    5     -0.50      0.00
   -4    2    5      0.64      0.00
   -3    2    5     -1.31      0.00
   -2    2    5      2.33      0.00
   -1    2    5      0.80      0.00
    0    2    5     -1.28      0.00
    1    2    5      0.07      0.00
    2    2    5      1.50      0.00
    3    2    5      0.27      0.00
    4    2    5      0.12      0.00
    5    2    5      0.46      0.00
    6    2    5     -0.01      0.00
    7    2    5      0.14      0.00
    8    2    5     -0.63      0.00
    9    2    5     -0.75      0.00
  -11    3    5      1.40      0.00
  -10    3    5      0.79      0.00
   -9    3    5     -0.18      0.00
   -8    3    5     -0.46      0.00
   -7    3    5      0.27      0.00
   -6    3    5     -0.74      0.00
   -5    3    5     -2.32      0.00
   -4    3    5      1.94      0.00
   -3    3    5     -0.12      0.00
   -2    3    5      0.59      0.00
   -1    3    5     -0.23      0.00
    0    3    5     -1.29      0.00
    1    3    5      2.66      0.00
    2    3    5     -0.31      0.00
    3    3    5     -1.14      0.00
    4    3    5      1.12      0.00
    5    3    5     -0.18      0.00
    6    3    5      0.00      0.00
    7    3    5      0.61      0.00
    8    3    5      0.44      0.00
    9    3    5     -0.61      0.00
  -10    4    5     -1.03      0.00
   -9    4    5      0.77      0.00
   -8    4    5     -0.54      0.00
   -7    4    5     -0.97      0.00
   -6    4    5     -1.43      0.00
   -5    4    5     -0.68      0.00
   -4    4    5      0.47      0.00
   -3    4    5     -3.51      0.00
   -2    4    5      2.98      0.00
   -1    4    5      1.40      0.00
    0    4    5     -1.67      0.00
    1    4    5      0.40      0.00
    2    4    5      2.15      0.00
    3    4    5      0.32      0.00
    4    4    5      0.28      0.00
    5    4    5      0.49      0.00
    6    4    5     -0.03      0.00
    7    4    5      0.31      0.00
    8    4    5     -1.08      0.00
  -10    5    5      1.63      0.00
   -9    5    5     -0.14      0.00
   -8    5    5     -0.86      0.00
   -7    5    5      1.13      0.00
   -6    5    5     -0.60      0.00
   -5    5    5     -2.50      0.00
   -4    5    5      1.93      0.00
   -3    5    5     -0.26      0.00
   -2    5    5      0.37      0.00
   -1    5    5     -0.03      0.00
    0    5    5     -2.07      0.00
    1    5    5      1.54      0.00
    2    5    5     -0.70      0.00
    3    5    5     -0.74      0.00
    4    5    5      0.33      0.00
    5    5    5     -0.35      0.00
    6    5    5     -0.19      0.00
    7    5    5      0.00      0.00
    8    5    5      0.48      0.00
  -10    6    5     -0.92      0.00
   -9    6    5      1.38      0.00
   -8    6    5     -0.81      0.00
   -7    6    5     -1.02      0.00
   -6    6    5     -0.20      0.00
   -5    6    5     -0.73      0.00
   -4    6    5      0.13      0.00
   -3    6    5     -5.12      0.00
   -2    6    5      2.08      0.00
   -1    6    5      1.58      0.00
    0    6    5     -1.36      0.00
    1    6    5      0.61      0.00
    2    6    5      1.62      0.00
    3    6    5     -0.11      0.00
    4    6    5      0.33      0.00
    5    6    5      0.19      0.00
    6    6    5      0.08      0.00
    7    6    5      0.61      0.00
    8    6    5     -1.18      0.00
  -10    7    5      2.17      0.00
   -9    7    5     -0.12      0.00
   -8    7    5     -0.79      0.00
   -7    7    5      1.63      0.00
   -6    7    5     -0.73      0.00
   -5    7    5     -2.43      0.00
   -4    7    5      1.55      0.00
   -3    7    5     -0.83      0.00
   -2    7    5      0.09      0.00
   -1    7    5      0.14      0.00
    0    7    5     -2.38      0.00
    1    7    5      0.92      0.00
    2    7    5     -0.87      0.00
    3    7    5     -0.32      0.00
    4    7    5     -0.23      0.00
    5    7    5     -0.26      0.00
    6    7    5     -0.48      0.00
    7    7    5     -0.79      0.00
    8    7    5      0.17      0.00
  -10    8    5     -0.69      0.00
   -9    8    5      1.44      0.00
   -8    8    5     -0.99      0.00
   -7    8    5     -1.10      0.00
   -6    8    5      1.03      0.00
   -5    8    5     -1.12      0.00
   -4    8    5      0.87      0.00
   -3    8    5     -4.16      0.00
   -2    8    5      0.86      0.00
   -1    8    5      1.44      0.00
    0    8    5     -0.84      0.00
    1    8    5      0.29      0.00
    2    8    5      0.52      0.00
    3    8    5     -0.98      0.00
    4    8    5      0.10      0.00
    5    8    5     -0.16      0.00
    6    8    5      0.21      0.00
    7    8    5      0.90      0.00
    8    8    5     -0.89      0.00
  -10    9    5      1.92      0.00
   -9    9    5     -0.43      0.00
   -8    9    5     -0.59      0.00
   -7    9    5      1.35      0.00
   -6    9    5     -0.91      0.00
   -5    9    5     -1.93      0.00
   -4    9    5      1.17      0.00
   -3    9    5     -1.35      0.00
   -2    9    5      0.16      0.00
   -1    9    5      0.43      0.00
    0    9    5     -2.37      0.00
    1    9    5      0.54      0.00
    2    9    5     -0.99      0.00
    3    9    5      0.04      0.00
    4    9    5      0.05      0.00
    5    9    5      0.24      0.00
    6    9    5     -0.70      0.00
    7    9    5     -1.18      0.00
    8    9    5     -0.11      0.00
   -9   10    5      0.78      0.00
   -8   10    5     -1.02      0.00
   -7   10    5     -1.15      0.00
   -6   10    5      1.40      0.00
   -5   10    5     -1.85      0.00
   -4   10    5      2.87      0.00
   -3   10    5     -1.10      0.00
   -2   10    5     -0.07      0.00
   -1   10    5      1.34      0.00
    0   10    5     -0.15      0.00
    1   10    5     -0.19      0.00
    2   10    5     -0.21      0.00
    3   10    5     -1.80      0.00
    4   10    5     -0.35      0.00
    5   10    5     -0.47      0.00
    6   10    5      0.03      0.00
    7   10    5      0.92      0.00
   -9   11    5     -1.08      0.00
   -8   11    5     -0.57      0.00
   -7   11    5      0.61      0.00
   -6   11    5     -0.88      0.00
   -5   11    5     -1.31      0.00
   -4   11    5      1.15      0.00
   -3   11    5     -1.43      0.00
   -2   11    5      0.42      0.00
   -1   11    5      0.74      0.00
    0   11    5     -2.39      0.00
    1   11    5      0.20      0.00
    2   11    5     -0.95      0.00
    3   11    5      0.18      0.00
    4   11    5      0.87      0.00
    5   11    5      0.78      0.00
    6   11    5     -0.64      0.00
    7   11    5     -0.78      0.00
   -9   12    5     -0.07      0.00
   -8   12    5     -0.88      0.00
   -7   12    5     -0.95      0.00
   -6   12    5      0.91      0.00
   -5   12    5     -2.52      0.00
   -4   12    5      4.99      0.00
   -3   12    5      1.52      0.00
   -2   12    5     -0.77      0.00
   -1   12    5      1.55      0.00
    0   12    5      0.64      0.00
    1   12    5     -0.29      0.00
    2   12    5     -0.16      0.00
    3   12    5     -1.91      0.00
    4   12    5     -0.61      0.00
    5   12    5     -0.77      0.00
    6   12    5     -0.44      0.00
    7   12    5      0.62      0.00
   -9   13    5     -1.52      0.00
   -8   13    5     -0.42      0.00
   -7   13    5      0.20      0.00
   -6   13    5     -0.71      0.00
   -5   13    5     -1.19      0.00
   -4   13    5      1.35      0.00
   -3   13    5     -1.19      0.00
   -2   13    5      0.15      0.00
   -1   13    5      0.64      0.00
    0   13    5     -2.42      0.00
    1   13    5      0.15      0.00
    2   13    5     -0.40      0.00
    3   13    5      0.02      0.00
    4   13    5      1.25      0.00
    5   13    5      0.91      0.00
    6   13    5     -0.31      0.00
    7   13    5      0.01      0.00
   -8   14    5     -0.64      0.00
   -7   14    5     -0.48      0.00
   -6   14    5     -0.09      0.00
   -5   14    5     -2.88      0.00
   -4   14    5      5.91      0.00
   -3   14    5      2.06      0.00
   -2   14    5     -0.99      0.00
   -1   14    5      1.82      0.00
    0   14    5      0.68      0.00
    1   14    5     -0.12      0.00
    2   14    5      0.29      0.00
    3   14    5     -1.08      0.00
    4   14    5     -0.40      0.00
    5   14    5     -0.96      0.00
    6   14    5     -0.79      0.00
   -8   15    5      0.12      0.00
   -7   15    5      0.39      0.00
   -6   15    5     -0.73      0.00
   -5   15    5     -1.73      0.00
   -4   15    5      1.42      0.00
   -3   15    5     -0.82      0.00
   -2   15    5     -0.66      0.00
   -1   15    5      0.18      0.00
    0   15    5     -2.15      0.00
    1   15    5      0.34      0.00
    2   15    5      0.40      0.00
    3   15    5     -0.33      0.00
    4   15    5      0.74      0.00
    5   15    5      0.64      0.00
    6   15    5      0.09      0.00
   -7   16    5     -0.06      0.00
   -6   16    5     -1.15      0.00
   -5   16    5     -2.82      0.00
   -4   16    5      5.29      0.00
   -3   16    5      1.10      0.00
   -2   16    5     -0.33      0.00
   -1   16    5      1.68      0.00
    0   16    5     -0.82      0.00
    1   16    5     -0.28      0.00
    2   16    5      0.57      0.00
    3   16    5      0.27      0.00
    4   16    5      0.14      0.00
    5   16    5     -0.86      0.00
   -7   17    5      0.69      0.00
   -6   17    5     -0.98      0.00
   -5   17    5     -2.25      0.00
   -4   17    5      1.25      0.00
   -3   17    5     -0.24      0.00
   -2   17    5     -1.10      0.00
   -1   17    5     -0.03      0.00
    0   17    5     -1.45      0.00
    1   17    5      0.27      0.00
    2   17    5      0.59      0.00
    3   17    5     -0.70      0.00
    4   17    5     -0.11      0.00
    5   17    5      0.43      0.00
   -6   18    5     -1.62      0.00
   -5   18    5     -2.24      0.00
   -4   18    5      3.61      0.00
   -3   18    5      0.01      0.00
   -2   18    5      0.84      0.00
   -1   18    5      1.07      0.00
    0   18    5     -3.16      0.00
    1   18    5     -0.90      0.00
    2   18    5      0.48      0.00
    3   18    5      1.43      0.00
    4   18    5      0.57      0.00
   -5   19    5     -1.92      0.00
   -4   19    5      1.03      0.00
   -3   19    5      0.43      0.00
   -2   19    5     -0.68      0.00
   -1   19    5      0.38      0.00
    0   19    5     -0.60      0.00
    1   19    5     -0.21      0.00
    2   19    5     -0.11      0.00
    3   19    5     -0.87      0.00
   -4   20    5      1.63      0.00
   -3   20    5     -0.57      0.00
   -2   20    5      1.51      0.00
   -1   20    5      0.49      0.00
    0   20    5     -4.48      0.00
    1   20    5     -1.46      0.00
    2   20    5      0.22      0.00
   -2   21    5     -0.10      0.00
   -1   21    5      0.98      0.00
    0   21    5     -0.02      0.00
  -10    0    6     -0.45      0.00
   -9    0    6      0.65      0.00
   -8    0    6     -0.09      0.00
   -7    0    6      1.17      0.00
   -6    0    6     -0.31      0.00
   -5    0    6     -2.38      0.00
   -4    0    6      1.80      0.00
   -3    0    6     -0.30      0.00
   -2    0    6     -0.40      0.00
   -1    0    6      0.46      0.00
    0    0    6     -1.94      0.00
    1    0    6      0.82      0.00
    2    0    6      0.88      0.00
    3    0    6     -1.39      0.00
    4    0    6      1.46      0.00
    5    0    6      0.12      0.00
    6    0    6     -1.13      0.00
    7    0    6     -0.03      0.00
    8    0    6     -0.77      0.00
  -10    1    6     -0.27      0.00
   -9    1    6     -0.25      0.00
   -8    1    6     -0.56      0.00
   -7    1    6     -0.29      0.00
   -6    1    6     -0.99      0.00
   -5    1    6     -1.37      0.00
   -4    1    6      0.18      0.00
   -3    1    6      0.14      0.00
   -2    1    6      1.49      0.00
   -1    1    6     -0.35      0.00
    0    1    6     -0.66      0.00
    1    1    6     -0.15      0.00
    2    1    6     -0.06      0.00
    3    1    6     -0.33      0.00
    4    1    6      0.01      0.00
    5    1    6      0.23      0.00
    6    1    6      0.04      0.00
    7    1    6     -0.17      0.00
    8    1    6     -0.47      0.00
  -10    2    6     -0.41      0.00
   -9    2    6      0.27      0.00
   -8    2    6     -0.59      0.00
   -7    2    6      1.17      0.00
   -6    2    6     -0.33      0.00
   -5    2    6     -2.42      0.00
   -4    2    6      1.85      0.00
   -3    2    6     -0.10      0.00
   -2    2    6     -0.24      0.00
   -1    2    6      0.78      0.00
    0    2    6     -1.99      0.00
    1    2    6      0.46      0.00
    2    2    6      0.63      0.00
    3    2    6     -1.24      0.00
    4    2    6      1.21      0.00
    5    2    6     -0.10      0.00
    6    2    6     -1.22      0.00
    7    2    6      0.01      0.00
  -10    3    6     -0.62      0.00
   -9    3    6     -0.33      0.00
   -8    3    6     -1.48      0.00
   -7    3    6     -0.77      0.00
   -6    3    6     -1.97      0.00
   -5    3    6     -2.98      0.00
   -4    3    6      0.40      0.00
   -3    3    6     -0.84      0.00
   -2    3    6      3.28      0.00
   -1    3    6     -0.73      0.00
    0    3    6     -1.44      0.00
    1    3    6     -0.07      0.00
    2    3    6     -0.20      0.00
    3    3    6     -0.93      0.00
    4    3    6     -0.08      0.00
    5    3    6      0.30      0.00
    6    3    6      0.10      0.00
    7    3    6     -0.52      0.00
  -10    4    6     -0.19      0.00
   -9    4    6     -0.42      0.00
   -8    4    6     -1.51      0.00
   -7    4    6      1.18      0.00
   -6    4    6     -0.44      0.00
   -5    4    6     -2.52      0.00
   -4    4    6      1.81      0.00
   -3    4    6      0.41      0.00
   -2    4    6      0.27      0.00
   -1    4    6      1.52      0.00
    0    4    6     -1.94      0.00
    1    4    6     -0.14      0.00
    2    4    6      0.10      0.00
    3    4    6     -0.90      0.00
    4    4    6      0.37      0.00
    5    4    6     -0.66      0.00
    6    4    6     -1.28      0.00
    7    4    6      0.17      0.00
  -10    5    6     -0.73      0.00
   -9    5    6      0.23      0.00
   -8    5    6     -2.04      0.00
   -7    5    6     -1.12      0.00
   -6    5    6     -0.98      0.00
   -5    5    6     -2.52      0.00
   -4    5    6      0.66      0.00
   -3    5    6     -3.37      0.00
   -2    5    6      2.95      0.00
   -1    5    6     -0.47      0.00
    0    5    6     -1.43      0.00
    1    5    6      0.35      0.00
    2    5    6     -0.45      0.00
    3    5    6     -1.43      0.00
    4    5    6     -0.43      0.00
    5    5    6     -0.13      0.00
    6    5    6      0.28      0.00
    7    5    6     -0.71      0.00
   -9    6    6     -0.57      0.00
   -8    6    6     -1.70      0.00
   -7    6    6      1.33      0.00
   -6    6    6     -0.57      0.00
   -5    6    6     -2.39      0.00
   -4    6    6      1.46      0.00
   -3    6    6      0.82      0.00
   -2    6    6      0.90      0.00
   -1    6    6      2.12      0.00
    0    6    6     -1.63      0.00
    1    6    6     -0.31      0.00
    2    6    6     -0.32      0.00
    3    6    6     -0.38      0.00
    4    6    6     -0.65      0.00
    5    6    6     -0.95      0.00
    6    6    6     -1.12      0.00
    7    6    6      0.34      0.00
   -9    7    6      0.91      0.00
   -8    7    6     -2.12      0.00
   -7    7    6     -1.48      0.00
   -6    7    6      0.88      0.00
   -5    7    6     -1.37      0.00
   -4    7    6      1.37      0.00
   -3    7    6     -4.93      0.00
   -2    7    6      1.74      0.00
   -1    7    6      0.19      0.00
    0    7    6     -1.27      0.00
    1    7    6      0.45      0.00
    2    7    6     -0.69      0.00
    3    7    6     -1.73      0.00
    4    7    6     -0.77      0.00
    5    7    6     -0.58      0.00
    6    7    6      0.64      0.00
    7    7    6     -0.57      0.00
   -9    8    6     -0.10      0.00
   -8    8    6     -0.92      0.00
   -7    8    6      1.41      0.00
   -6    8    6     -0.60      0.00
   -5    8    6     -1.83      0.00
   -4    8    6      0.88      0.00
   -3    8    6      1.00      0.00
   -2    8    6      1.46      0.00
   -1    8    6      2.24      0.00
    0    8    6     -1.23      0.00
    1    8    6     -0.08      0.00
    2    8    6     -0.74      0.00
    3    8    6      0.13      0.00
    4    8    6     -1.10      0.00
    5    8    6     -0.48      0.00
    6    8    6     -0.79      0.00
    7    8    6      0.40      0.00
   -9    9    6      1.10      0.00
   -8    9    6     -1.76      0.00
   -7    9    6     -1.80      0.00
   -6    9    6      2.08      0.00
   -5    9    6     -1.31      0.00
   -4    9    6      2.58      0.00
   -3    9    6     -3.63      0.00
   -2    9    6      0.86      0.00
   -1    9    6      0.78      0.00
    0    9    6     -1.18      0.00
    1    9    6      0.15      0.00
    2    9    6     -0.51      0.00
    3    9    6     -1.62      0.00
    4    9    6     -0.73      0.00
    5    9    6     -0.57      0.00
    6    9    6      0.85      0.00
   -9   10    6      0.27      0.00
   -8   10    6      0.07      0.00
   -7   10    6      1.23      0.00
   -6   10    6     -0.35      0.00
   -5   10    6     -1.05      0.00
   -4   10    6      0.41      0.00
   -3   10    6      1.07      0.00
   -2   10    6      1.72      0.00
   -1   10    6      1.83      0.00
    0   10    6     -1.00      0.00
    1   10    6      0.20      0.00
    2   10    6     -1.29      0.00
    3   10    6      0.40      0.00
    4   10    6     -0.60      0.00
    5   10    6      0.62      0.00
    6   10    6     -0.53      0.00
   -8   11    6     -1.13      0.00
   -7   11    6     -1.77      0.00
   -6   11    6      2.09      0.00
   -5   11    6     -2.63      0.00
   -4   11    6      3.73      0.00
   -3   11    6     -0.76      0.00
   -2   11    6      0.11      0.00
   -1   11    6      1.13      0.00
    0   11    6     -0.59      0.00
    1   11    6      0.19      0.00
    2   11    6      0.37      0.00
    3   11    6     -1.00      0.00
    4   11    6     -0.23      0.00
    5   11    6     -0.19      0.00
    6   11    6      0.61      0.00
   -8   12    6      0.67      0.00
   -7   12    6      1.08      0.00
   -6   12    6      0.20      0.00
   -5   12    6     -0.65      0.00
   -4   12    6      0.16      0.00
   -3   12    6      1.16      0.00
   -2   12    6      1.35      0.00
   -1   12    6      0.94      0.00
    0   12    6     -0.94      0.00
    1   12    6      0.61      0.00
    2   12    6     -1.49      0.00
    3   12    6      0.33      0.00
    4   12    6      0.35      0.00
    5   12    6      1.66      0.00
    6   12    6     -0.43      0.00
   -7   13    6     -1.21      0.00
   -6   13    6      1.21      0.00
   -5   13    6     -4.37      0.00
   -4   13    6      4.11      0.00
   -3   13    6      1.06      0.00
   -2   13    6     -0.86      0.00
   -1   13    6      1.48      0.00
    0   13    6      0.68      0.00
    1   13    6      0.90      0.00
    2   13    6      1.47      0.00
    3   13    6     -0.11      0.00
    4   13    6      0.42      0.00
    5   13    6      0.14      0.00
   -7   14    6      1.29      0.00
   -6   14    6      0.73      0.00
   -5   14    6     -1.02      0.00
   -4   14    6     -0.06      0.00
   -3   14    6      1.32      0.00
   -2   14    6      0.48      0.00
   -1   14    6     -0.16      0.00
    0   14    6     -0.76      0.00
    1   14    6      1.26      0.00
    2   14    6     -0.98      0.00
    3   14    6      0.09      0.00
    4   14    6      0.94      0.00
    5   14    6      2.10      0.00
   -6   15    6     -0.11      0.00
   -5   15    6     -5.48      0.00
   -4   15    6      3.61      0.00
   -3   15    6      0.90      0.00
   -2   15    6     -1.49      0.00
   -1   15    6      2.02      0.00
    0   15    6      1.68      0.00
    1   15    6      1.50      0.00
    2   15    6      1.91      0.00
    3   15    6      0.67      0.00
    4   15    6      0.87      0.00
   -6   16    6      0.79      0.00
   -5   16    6     -1.80      0.00
   -4   16    6     -0.34      0.00
   -3   16    6      1.54      0.00
   -2   16    6     -0.17      0.00
   -1   16    6     -0.84      0.00
    0   16    6     -0.37      0.00
    1   16    6      1.61      0.00
    2   16    6     -0.28      0.00
    3   16    6     -0.16      0.00
    4   16    6      0.85      0.00
   -5   17    6     -5.30      0.00
   -4   17    6      2.68      0.00
   -3   17    6     -0.17      0.00
   -2   17    6     -1.11      0.00
   -1   17    6      2.46      0.00
    0   17    6      1.42      0.00
    1   17    6      1.19      0.00
    2   17    6      1.39      0.00
    3   17    6      1.08      0.00
   -4   18    6     -0.49      0.00
   -3   18    6      1.67      0.00
   -2   18    6     -0.13      0.00
   -1   18    6     -0.73      0.00
    0   18    6     -0.01      0.00
    1   18    6      1.04      0.00
    2   18    6     -0.23      0.00
   -2   19    6     -0.11      0.00
   -1   19    6      2.38      0.00
    0   19    6      0.24      0.00
   -9    1    7     -1.17      0.00
   -8    1    7     -0.93      0.00
   -7    1    7      0.96      0.00
   -6    1    7     -0.44      0.00
   -5    1    7     -1.97      0.00
   -4    1    7      0.76      0.00
   -3    1    7      0.85      0.00
   -2    1    7     -0.18      0.00
   -1    1    7     -0.25      0.00
    0    1    7     -2.03      0.00
    1    1    7      0.12      0.00
    2    1    7      0.02      0.00
    3    1    7     -1.86      0.00
    4    1    7      0.43      0.00
    5    1    7      1.36      0.00
    6    1    7      0.12      0.00
   -9    2    7      0.00      0.00
   -8    2    7     -0.14      0.00
   -7    2    7      0.49      0.00
   -6    2    7     -0.24      0.00
   -5    2    7     -2.15      0.00
   -4    2    7     -0.78      0.00
   -3    2    7      1.02      0.00
   -2    2    7      1.14      0.00
   -1    2    7     -1.67      0.00
    0    2    7     -0.02      0.00
    1    2    7     -0.11      0.00
    2    2    7      0.39      0.00
    3    2    7     -0.35      0.00
    4    2    7      0.28      0.00
    5    2    7      1.27      0.00
    6    2    7      0.41      0.00
   -9    3    7     -0.99      0.00
   -8    3    7     -1.35      0.00
   -7    3    7      0.70      0.00
   -6    3    7     -0.30      0.00
   -5    3    7     -1.66      0.00
   -4    3    7      0.81      0.00
   -3    3    7      0.80      0.00
   -2    3    7     -0.47      0.00
   -1    3    7      0.16      0.00
    0    3    7     -2.00      0.00
    1    3    7     -0.10      0.00
    2    3    7      0.15      0.00
    3    3    7     -1.19      0.00
    4    3    7      0.35      0.00
    5    3    7      0.94      0.00
    6    3    7      0.01      0.00
   -9    4    7      0.51      0.00
   -8    4    7     -0.36      0.00
   -7    4    7      0.31      0.00
   -6    4    7      0.21      0.00
   -5    4    7     -2.19      0.00
   -4    4    7     -1.17      0.00
   -3    4    7     -0.68      0.00
   -2    4    7      0.47      0.00
   -1    4    7     -2.52      0.00
    0    4    7      0.32      0.00
    1    4    7      0.58      0.00
    2    4    7      1.12      0.00
    3    4    7     -0.44      0.00
    4    4    7      0.20      0.00
    5    4    7      1.73      0.00
    6    4    7      0.77      0.00
   -8    5    7     -1.53      0.00
   -7    5    7      0.41      0.00
   -6    5    7     -0.14      0.00
   -5    5    7     -1.20      0.00
   -4    5    7      0.51      0.00
   -3    5    7      0.69      0.00
   -2    5    7     -0.71      0.00
   -1    5    7      0.60      0.00
    0    5    7     -1.86      0.00
    1    5    7     -0.02      0.00
    2    5    7      0.39      0.00
    3    5    7     -0.32      0.00
    4    5    7     -0.10      0.00
    5    5    7      0.37      0.00
    6    5    7     -0.14      0.00
   -8    6    7     -0.68      0.00
   -7    6    7     -0.60      0.00
   -6    6    7      1.19      0.00
   -5    6    7     -0.68      0.00
   -4    6    7     -1.07      0.00
   -3    6    7     -3.79      0.00
   -2    6    7     -1.14      0.00
   -1    6    7     -2.39      0.00
    0    6    7      0.40      0.00
    1    6    7      1.49      0.00
    2    6    7      1.82      0.00
    3    6    7     -0.33      0.00
    4    6    7     -0.13      0.00
    5    6    7      1.41      0.00
    6    6    7      1.11      0.00
   -8    7    7     -1.04      0.00
   -7    7    7      0.29      0.00
   -6    7    7     -0.06      0.00
   -5    7    7     -0.67      0.00
   -4    7    7     -0.19      0.00
   -3    7    7      0.59      0.00
   -2    7    7     -0.63      0.00
   -1    7    7      0.65      0.00
    0    7    7     -1.59      0.00
    1    7    7      0.51      0.00
    2    7    7      0.37      0.00
    3    7    7      0.28      0.00
    4    7    7     -0.61      0.00
    5    7    7      0.23      0.00
   -8    8    7     -1.03      0.00
   -7    8    7     -1.65      0.00
   -6    8    7      2.09      0.00
   -5    8    7      0.11      0.00
   -4    8    7     -0.70      0.00
   -3    8    7     -4.83      0.00
   -2    8    7     -1.78      0.00
   -1    8    7     -1.91      0.00
    0    8    7     -0.38      0.00
    1    8    7      1.57      0.00
    2    8    7      1.93      0.00
    3    8    7     -0.17      0.00
    4    8    7     -0.23      0.00
    5    8    7      0.96      0.00
   -8    9    7     -0.30      0.00
   -7    9    7      0.24      0.00
   -6    9    7     -0.02      0.00
   -5    9    7     -0.14      0.00
   -4    9    7     -0.80      0.00
   -3    9    7      0.76      0.00
   -2    9    7     -0.36      0.00
   -1    9    7      0.17      0.00
    0    9    7     -1.29      0.00
    1    9    7      1.02      0.00
    2    9    7     -0.46      0.00
    3    9    7      0.33      0.00
    4    9    7     -0.56      0.00
    5    9    7      0.91      0.00
   -7   10    7     -2.13      0.00
   -6   10    7      2.66      0.00
   -5   10    7     -0.84      0.00
   -4   10    7     -0.31      0.00
   -3   10    7     -2.76      0.00
   -2   10    7     -1.39      0.00
   -1   10    7     -1.90      0.00
    0   10    7     -1.49      0.00
    1   10    7      0.91      0.00
    2   10    7      1.51      0.00
    3   10    7      0.03      0.00
    4   10    7      0.13      0.00
    5   10    7      0.84      0.00
   -7   11    7      0.18      0.00
   -6   11    7      0.17      0.00
   -5   11    7      0.19      0.00
   -4   11    7     -0.96      0.00
   -3   11    7      1.21      0.00
   -2   11    7     -0.38      0.00
   -1   11    7     -0.86      0.00
    0   11    7     -1.12      0.00
    1   11    7      1.14      0.00
    2   11    7     -1.90      0.00
    3   11    7     -0.14      0.00
    4   11    7      0.13      0.00
   -6   12    7      2.86      0.00
   -5   12    7     -2.57      0.00
   -4   12    7      0.01      0.00
   -3   12    7     -0.02      0.00
   -2   12    7     -1.57      0.00
   -1   12    7     -2.29      0.00
    0   12    7     -1.67      0.00
    1   12    7      0.43      0.00
    2   12    7      1.11      0.00
    3   12    7      0.33      0.00
    4   12    7      0.63      0.00
   -6   13    7      0.58      0.00
   -5   13    7      0.08      0.00
   -4   13    7     -0.98      0.00
   -3   13    7      1.59      0.00
   -2   13    7     -0.91      0.00
   -1   13    7     -2.30      0.00
    0   13    7     -1.19      0.00
    1   13    7      1.06      0.00
    2   13    7     -2.93      0.00
    3   13    7     -0.79      0.00
   -5   14    7     -3.79      0.00
   -4   14    7      0.22      0.00
   -3   14    7      0.84      0.00
   -2   14    7     -2.82      0.00
   -1   14    7     -2.26      0.00
    0   14    7     -0.55      0.00
    1   14    7      0.52      0.00
    2   14    7      0.89      0.00
   -4   15    7     -1.35      0.00
   -3   15    7      1.50      0.00
   -2   15    7     -1.41      0.00
   -1   15    7     -3.49      0.00
    0   15    7     -1.36      0.00
    1   15    7      1.03      0.00
    2   15    7     -2.82      0.00
   -3   16    7     -0.11      0.00
   -2   16    7     -3.84      0.00
   -1   16    7     -1.33      0.00
    0   16    7      0.86      0.00
   -7    0    8     -0.43      0.00
   -6    0    8     -0.41      0.00
   -5    0    8      0.54      0.00
   -4    0    8     -0.98      0.00
   -3    0    8     -0.25      0.00
   -2    0    8      0.70      0.00
   -1    0    8     -0.33      0.00
    0    0    8     -1.12      0.00
    1    0    8      0.09      0.00
    2    0    8      1.03      0.00
    3    0    8     -1.46      0.00
    4    0    8     -1.88      0.00
   -7    1    8     -0.09      0.00
   -6    1    8      0.08      0.00
   -5    1    8     -1.23      0.00
   -4    1    8     -1.05      0.00
   -3    1    8      2.26      0.00
   -2    1    8      1.07      0.00
   -1    1    8     -0.63      0.00
    0    1    8      0.28      0.00
    1    1    8     -0.23      0.00
    2    1    8      0.28      0.00
    3    1    8     -0.82      0.00
    4    1    8     -0.32      0.00
   -7    2    8     -0.63      0.00
   -6    2    8     -0.31      0.00
   -5    2    8      0.54      0.00
   -4    2    8     -0.66      0.00
   -3    2    8      0.05      0.00
   -2    2    8      0.22      0.00
   -1    2    8     -0.45      0.00
    0    2    8     -1.29      0.00
    1    2    8     -0.21      0.00
    2    2    8      0.73      0.00
    3    2    8     -1.43      0.00
    4    2    8     -1.80      0.00
   -7    3    8     -0.43      0.00
   -6    3    8      0.21      0.00
   -5    3    8     -2.29      0.00
   -4    3    8     -2.30      0.00
   -3    3    8      4.67      0.00
   -2    3    8      1.70      0.00
   -1    3    8     -1.74      0.00
    0    3    8      0.79      0.00
    1    3    8     -0.31      0.00
    2    3    8      1.03      0.00
    3    3    8     -2.13      0.00
    4    3    8     -1.06      0.00
   -7    4    8     -1.03      0.00
   -6    4    8     -0.12      0.00
   -5    4    8      0.53      0.00
   -4    4    8     -0.18      0.00
   -3    4    8      0.61      0.00
   -2    4    8     -0.77      0.00
   -1    4    8     -0.71      0.00
    0    4    8     -1.60      0.00
    1    4    8     -0.55      0.00
    2    4    8      0.17      0.00
    3    4    8     -1.43      0.00
    4    4    8     -1.80      0.00
   -7    5    8     -1.03      0.00
   -6    5    8      0.29      0.00
   -5    5    8     -0.89      0.00
   -4    5    8     -2.02      0.00
   -3    5    8      3.33      0.00
   -2    5    8      0.07      0.00
   -1    5    8     -2.43      0.00
    0    5    8      0.82      0.00
    1    5    8      0.07      0.00
    2    5    8      1.78      0.00
    3    5    8     -2.70      0.00
    4    5    8     -1.86      0.00
   -7    6    8     -1.13      0.00
   -6    6    8      0.12      0.00
   -5    6    8      0.51      0.00
   -4    6    8     -0.28      0.00
   -3    6    8      0.85      0.00
   -2    6    8     -1.66      0.00
   -1    6    8     -1.11      0.00
    0    6    8     -1.79      0.00
    1    6    8     -0.17      0.00
    2    6    8     -0.14      0.00
    3    6    8     -1.39      0.00
   -6    7    8      0.36      0.00
   -5    7    8      1.07      0.00
   -4    7    8     -1.15      0.00
   -3    7    8      0.87      0.00
   -2    7    8     -1.44      0.00
   -1    7    8     -2.48      0.00
    0    7    8     -0.05      0.00
    1    7    8      0.16      0.00
    2    7    8      1.91      0.00
    3    7    8     -2.55      0.00
   -6    8    8      0.24      0.00
   -5    8    8      0.41      0.00
   -4    8    8     -0.97      0.00
   -3    8    8      0.67      0.00
   -2    8    8     -2.06      0.00
   -1    8    8     -1.46      0.00
    0    8    8     -1.62      0.00
    1    8    8      0.85      0.00
    2    8    8     -0.35      0.00
    3    8    8     -1.30      0.00
   -6    9    8      0.66      0.00
   -5    9    8      1.50      0.00
   -4    9    8     -0.74      0.00
   -3    9    8      0.49      0.00
   -2    9    8     -0.89      0.00
   -1    9    8     -2.18      0.00
    0    9    8     -1.45      0.00
    1    9    8     -0.33      0.00
    2    9    8      1.26      0.00
   -5   10    8      0.20      0.00
   -4   10    8     -1.49      0.00
   -3   10    8      0.52      0.00
   -2   10    8     -2.06      0.00
   -1   10    8     -1.59      0.00
    0   10    8     -1.06      0.00
    1   10    8      1.70      0.00
    2   10    8     -0.89      0.00
   -4   11    8     -0.74      0.00
   -3   11    8      2.16      0.00
   -2   11    8      0.66      0.00
   -1   11    8     -1.99      0.00
    0   11    8     -2.21      0.00
    1   11    8     -0.78      0.00
   -4   12    8     -1.33      0.00
   -3   12    8      0.71      0.00
   -2   12    8     -1.91      0.00
   -1   12    8     -1.61      0.00
    0   12    8     -0.45      0.00
   -2   13    8      1.04      0.00
   -1   13    8     -1.83      0.00
   -4    1    9     -1.30      0.00
   -3    1    9     -1.11      0.00
   -2    1    9      0.75      0.00
   -1    1    9     -0.49      0.00
    0    1    9     -0.60      0.00
    1    1    9      0.15      0.00
   -4    2    9     -3.40      0.00
   -3    2    9      4.08      0.00
   -2    2    9      1.79      0.00
   -1    2    9     -1.36      0.00
    0    2    9     -0.69      0.00
    1    2    9     -0.92      0.00
   -4    3    9     -0.56      0.00
   -3    3    9     -0.14      0.00
   -2    3    9      0.04      0.00
   -1    3    9     -0.45      0.00
    0    3    9     -0.54      0.00
    1    3    9     -0.26      0.00
   -4    4    9     -4.23      0.00
   -3    4    9      5.52      0.00
   -2    4    9      1.55      0.00
   -1    4    9     -2.31      0.00
    0    4    9     -0.91      0.00
   -4    5    9      0.20      0.00
   -3    5    9      0.91      0.00
   -2    5    9     -0.90      0.00
   -1    5    9     -0.49      0.00
    0    5    9     -0.50      0.00
   -3    6    9      4.42      0.00
   -2    6    9      0.16      0.00
   -1    6    9     -2.33      0.00
    1    0    0     -0.73      0.00
   12    0    0      0.21      0.00
    1    1    0     -0.13      0.00
   12    1    0      0.24      0.00
    0    2    0     92.73      0.00
    1    2    0     -2.49      0.00
   12    2    0     -0.03      0.00
   12    3    0      0.59      0.00
   12    4    0     -0.66      0.00
   12    5    0      0.62      0.00
   12    6    0     -1.18      0.00
   12    7    0      0.33      0.00
   12    8    0     -1.17      0.00
   12    9    0     -0.01      0.00
   12   10    0     -0.71      0.00
   11   11    0     -0.85      0.00
   12   11    0     -0.17      0.00
   11   12    0     -1.91      0.00
   11   13    0     -0.87      0.00
   10   14    0     -1.83      0.00
   11   14    0     -1.43      0.00
   10   15    0     -0.29      0.00
   11   15    0     -0.68      0.00
   10   16    0     -1.24      0.00
    9   17    0      0.95      0.00
   10   17    0     -0.32      0.00
    9   18    0      1.02      0.00
   10   18    0     -0.35      0.00
    8   19    0      1.28      0.00
    9   19    0      0.57      0.00
    8   20    0      1.26      0.00
    9   20    0      0.74      0.00
    7   21    0     -0.04      0.00
    8   21    0      1.24      0.00
    6   22    0      0.82      0.00
    7   22    0      1.84      0.00
    8   22    0      0.83      0.00
    5   23    0      0.20      0.00
    6   23    0      1.04      0.00
    7   23    0      0.04      0.00
    4   24    0      0.44      0.00
    5   24    0      0.95      0.00
    6   24    0      1.04      0.00
    2   25    0      0.34      0.00
    3   25    0      0.31      0.00
    4   25    0     -0.21      0.00
    5   25    0      0.08      0.00
    0    1    1     62.48      0.00
   12    1    1      0.37      0.00
   12    2    1      0.32      0.00
   12    3    1      0.12      0.00
  -12    4    1     -0.89      0.00
   12    4    1      0.72      0.00
  -12    5    1     -0.43      0.00
   12    5    1     -0.29      0.00
  -12    6    1     -0.67      0.00
   12    6    1      1.05      0.00
  -12    7    1     -0.40      0.00
   12    7    1     -0.55      0.00
  -12    8    1     -0.05      0.00
   12    8    1      1.08      0.00
  -12    9    1     -0.15      0.00
   11    9    1     -0.52      0.00
   12    9    1     -0.44      0.00
  -12   10    1      0.53      0.00
   11   10    1      0.14      0.00
   12   10    1      0.76      0.00
  -12   11    1      0.22      0.00
  -11   11    1     -0.37      0.00
   11   11    1     -0.87      0.00
  -12   12    1      0.61      0.00
  -11   12    1      1.14      0.00
   11   12    1      0.00      0.00
  -11   13    1     -0.28      0.00
   11   13    1     -0.75      0.00
  -11   14    1      1.16      0.00
   10   14    1     -0.58      0.00
   11   14    1     -0.15      0.00
  -11   15    1     -0.12      0.00
  -10   15    1     -0.99      0.00
   10   15    1     -0.78      0.00
  -10   16    1      1.00      0.00
    9   16    1     -0.43      0.00
   10   16    1     -0.43      0.00
  -10   17    1     -0.77      0.00
   -9   17    1      0.49      0.00
    9   17    1     -0.01      0.00
   10   17    1     -0.49      0.00
  -10   18    1      0.77      0.00
   -9   18    1     -0.09      0.00
    9   18    1     -0.79      0.00
   -9   19    1      0.24      0.00
   -8   19    1      0.40      0.00
    8   19    1     -0.01      0.00
    9   19    1     -0.03      0.00
   -9   20    1      0.24      0.00
   -8   20    1      1.96      0.00
    8   20    1      0.22      0.00
   -8   21    1      0.08      0.00
   -7   21    1      1.17      0.00
    7   21    1      0.86      0.00
    8   21    1      0.23      0.00
   -8   22    1      1.30      0.00
   -7   22    1      0.34      0.00
   -6   22    1     -1.69      0.00
    6   22    1      0.07      0.00
    7   22    1     -0.87      0.00
   -7   23    1      0.53      0.00
   -6   23    1      0.54      0.00
   -5   23    1      0.23      0.00
    5   23    1     -0.54      0.00
    6   23    1      0.50      0.00
    7   23    1      1.19      0.00
   -6   24    1     -0.73      0.00
   -5   24    1      0.45      0.00
   -4   24    1     -0.31      0.00
    4   24    1     -0.54      0.00
    5   24    1     -0.85      0.00
    6   24    1     -0.06      0.00
   -5   25    1     -0.14      0.00
   -4   25    1     -0.13      0.00
   -3   25    1     -0.47      0.00
   -2   25    1      0.74      0.00
    1   25    1     -0.38      0.00
    2   25    1     -0.83      0.00
    3   25    1      0.03      0.00
    4   25    1      0.12      0.00
    5   25    1     -0.51      0.00
   12    0    2      0.99      0.00
   12    1    2      0.05      0.00
   12    2    2      0.73      0.00
   12    3    2      0.22      0.00
  -12    4    2      0.19      0.00
   12    4    2      0.14      0.00
  -12    5    2     -0.25      0.00
   12    5    2      0.43      0.00
  -12    6    2      0.36      0.00
   11    6    2     -0.57      0.00
   12    6    2     -0.34      0.00
  -12    7    2      0.05      0.00
   11    7    2     -0.92      0.00
   12    7    2      0.59      0.00
  -12    8    2      0.38      0.00
   11    8    2     -0.47      0.00
  -12    9    2      0.56      0.00
   11    9    2     -0.71      0.00
  -12   10    2      0.22      0.00
   11   10    2     -0.33      0.00
  -12   11    2      0.78      0.00
  -11   11    2      0.48      0.00
   11   11    2     -0.34      0.00
  -11   12    2     -0.18      0.00
   10   12    2     -0.17      0.00
   11   12    2     -0.24      0.00
  -11   13    2      0.92      0.00
   10   13    2     -1.75      0.00
  -11   14    2     -0.07      0.00
   10   14    2     -0.55      0.00
  -11   15    2      0.78      0.00
  -10   15    2      0.98      0.00
    9   15    2      0.32      0.00
   10   15    2     -0.49      0.00
  -10   16    2     -1.28      0.00
    9   16    2     -1.08      0.00
   10   16    2     -0.42      0.00
  -10   17    2      0.43      0.00
   -9   17    2     -0.95      0.00
    9   17    2      0.13      0.00
  -10   18    2     -0.70      0.00
   -9   18    2     -1.08      0.00
    8   18    2     -0.85      0.00
    9   18    2     -0.74      0.00
   -9   19    2     -0.81      0.00
   -8   19    2      2.33      0.00
    8   19    2      0.66      0.00
   -9   20    2     -0.93      0.00
   -8   20    2     -0.77      0.00
    7   20    2      0.17      0.00
    8   20    2     -0.46      0.00
   -8   21    2      2.04      0.00
   -7   21    2     -0.93      0.00
    6   21    2      0.20      0.00
    7   21    2     -0.20      0.00
   -7   22    2      0.53      0.00
   -6   22    2      1.17      0.00
    5   22    2     -0.91      0.00
    6   22    2      0.15      0.00
    7   22    2      0.28      0.00
   -7   23    2     -0.78      0.00
   -6   23    2     -2.60      0.00
   -5   23    2      0.82      0.00
    4   23    2     -0.42      0.00
    5   23    2     -1.77      0.00
    6   23    2     -0.09      0.00
   -6   24    2      1.23      0.00
   -5   24    2     -0.89      0.00
   -4   24    2     -0.46      0.00
    3   24    2      0.34      0.00
    4   24    2     -0.23      0.00
    5   24    2     -0.89      0.00
   -5   25    2      0.33      0.00
   -4   25    2     -0.60      0.00
   -3   25    2     -1.10      0.00
   -2   25    2     -1.28      0.00
   -1   25    2      0.40      0.00
    0   25    2      0.57      0.00
    1   25    2     -0.52      0.00
    2   25    2     -0.10      0.00
    3   25    2      0.57      0.00
    4   25    2     -0.53      0.00
  -12    1    3     -0.05      0.00
   11    1    3      0.80      0.00
   12    1    3      0.10      0.00
  -12    2    3     -0.05      0.00
   11    2    3     -0.14      0.00
  -12    3    3     -0.28      0.00
   11    3    3      0.28      0.00
  -12    4    3     -0.23      0.00
   11    4    3     -0.21      0.00
  -12    5    3     -0.39      0.00
   11    5    3     -0.19      0.00
  -12    6    3     -0.37      0.00
   11    6    3     -0.27      0.00
  -12    7    3     -0.21      0.00
   11    7    3     -0.29      0.00
  -12    8    3     -0.19      0.00
   11    8    3     -0.33      0.00
  -12    9    3      0.12      0.00
   10    9    3      0.44      0.00
   11    9    3     -0.21      0.00
  -12   10    3      0.08      0.00
  -11   10    3     -0.75      0.00
   10   10    3     -2.24      0.00
   11   10    3     -0.29      0.00
  -12   11    3      0.28      0.00
  -11   11    3      0.48      0.00
   10   11    3     -0.12      0.00
  -11   12    3     -0.31      0.00
   10   12    3     -1.62      0.00
  -11   13    3      0.47      0.00
    9   13    3     -1.15      0.00
   10   13    3     -0.58      0.00
  -11   14    3      0.03      0.00
  -10   14    3     -0.36      0.00
    9   14    3      1.24      0.00
   10   14    3     -0.70      0.00
  -10   15    3     -0.56      0.00
    9   15    3     -1.26      0.00
  -10   16    3     -0.06      0.00
    8   16    3      0.49      0.00
    9   16    3      0.90      0.00
  -10   17    3     -0.16      0.00
   -9   17    3     -1.09      0.00
    8   17    3     -1.09      0.00
    9   17    3     -0.89      0.00
   -9   18    3     -0.74      0.00
    7   18    3     -1.46      0.00
    8   18    3      0.27      0.00
   -9   19    3     -0.45      0.00
   -8   19    3     -0.21      0.00
    7   19    3      0.40      0.00
    8   19    3     -0.77      0.00
   -8   20    3      1.75      0.00
   -7   20    3      0.44      0.00
    3   20    3      0.81      0.00
    6   20    3      0.02      0.00
    7   20    3     -0.69      0.00
   -8   21    3     -0.29      0.00
   -7   21    3      0.51      0.00
    5   21    3      0.25      0.00
    6   21    3      0.96      0.00
    7   21    3      0.35      0.00
   -7   22    3      0.12      0.00
   -6   22    3     -0.67      0.00
    4   22    3     -0.46      0.00
    5   22    3     -1.30      0.00
    6   22    3     -0.09      0.00
   -6   23    3      1.37      0.00
   -5   23    3     -0.67      0.00
   -4   23    3     -0.90      0.00
    3   23    3      1.00      0.00
    4   23    3      0.28      0.00
    5   23    3      0.53      0.00
   -5   24    3      1.76      0.00
   -4   24    3      1.14      0.00
   -3   24    3      1.43      0.00
   -2   24    3     -0.61      0.00
   -1   24    3      0.13      0.00
    0   24    3      0.34      0.00
    1   24    3      0.47      0.00
    2   24    3     -1.56      0.00
    3   24    3      0.23      0.00
    4   24    3     -0.66      0.00
   -4   25    3     -0.69      0.00
   -3   25    3      0.27      0.00
   -2   25    3     -0.24      0.00
   -1   25    3     -0.88      0.00
    0   25    3     -0.23      0.00
    1   25    3      0.57      0.00
    2   25    3     -0.32      0.00
    3   25    3      0.37      0.00
  -12    0    4     -0.92      0.00
   11    0    4      1.32      0.00
  -12    1    4     -0.08      0.00
   11    1    4      0.27      0.00
  -12    2    4     -1.16      0.00
   11    2    4      0.83      0.00
  -12    3    4     -0.29      0.00
   10    3    4      1.72      0.00
   11    3    4      0.72      0.00
  -12    4    4     -1.51      0.00
   10    4    4      0.57      0.00
   11    4    4     -0.02      0.00
  -12    5    4     -0.57      0.00
   10    5    4      1.78      0.00
   11    5    4      0.76      0.00
  -12    6    4     -1.46      0.00
   10    6    4      0.64      0.00
   11    6    4     -0.40      0.00
  -12    7    4     -0.56      0.00
   10    7    4      1.04      0.00
  -12    8    4     -0.88      0.00
  -11    8    4     -0.10      0.00
   10    8    4      0.72      0.00
  -12    9    4     -0.16      0.00
  -11    9    4     -0.34      0.00
   10    9    4      0.18      0.00
  -11   10    4      0.11      0.00
    9   10    4      0.52      0.00
   10   10    4      0.46      0.00
  -11   11    4      0.25      0.00
    9   11    4      0.86      0.00
   10   11    4     -0.25      0.00
  -11   12    4      0.11      0.00
    9   12    4     -0.02      0.00
  -11   13    4      0.53      0.00
  -10   13    4      0.25      0.00
    9   13    4      1.12      0.00
  -10   14    4     -0.08      0.00
    8   14    4     -0.06      0.00
    9   14    4     -0.38      0.00
  -10   15    4      0.28      0.00
   -9   15    4     -1.29      0.00
    8   15    4     -0.12      0.00
    9   15    4      0.86      0.00
  -10   16    4      0.00      0.00
   -9   16    4      0.17      0.00
    7   16    4      0.79      0.00
    8   16    4     -0.42      0.00
   -9   17    4     -1.04      0.00
    7   17    4     -0.93      0.00
    8   17    4     -0.26      0.00
   -9   18    4      0.78      0.00
   -8   18    4      1.56      0.00
    6   18    4      1.19      0.00
    7   18    4      0.71      0.00
   -8   19    4     -0.48      0.00
   -7   19    4     -0.25      0.00
    6   19    4      0.38      0.00
    7   19    4     -0.65      0.00
   -8   20    4      1.03      0.00
   -7   20    4      0.85      0.00
   -6   20    4     -0.32      0.00
    5   20    4      0.45      0.00
    6   20    4      1.04      0.00
   -7   21    4     -0.44      0.00
   -6   21    4     -1.03      0.00
    3   21    4      2.60      0.00
    4   21    4      0.73      0.00
    5   21    4      0.53      0.00
    6   21    4      0.50      0.00
   -6   22    4      0.09      0.00
   -5   22    4     -0.02      0.00
   -4   22    4      0.20      0.00
    3   22    4     -0.16      0.00
    4   22    4     -0.28      0.00
    5   22    4      0.56      0.00
   -6   23    4     -0.27      0.00
   -5   23    4     -0.52      0.00
   -4   23    4     -1.22      0.00
   -3   23    4      0.03      0.00
   -2   23    4     -0.60      0.00
   -1   23    4     -1.15      0.00
    0   23    4     -2.43      0.00
    1   23    4      0.30      0.00
    2   23    4     -0.20      0.00
    3   23    4      1.87      0.00
    4   23    4      0.34      0.00
   -4   24    4     -0.10      0.00
   -3   24    4     -0.59      0.00
   -2   24    4     -0.18      0.00
   -1   24    4      0.54      0.00
    0   24    4     -0.70      0.00
    1   24    4      0.04      0.00
    2   24    4     -0.61      0.00
    3   24    4     -0.53      0.00
   -3   25    4      0.15      0.00
   -2   25    4     -0.94      0.00
   -1   25    4     -0.19      0.00
    0   25    4     -0.87      0.00
    1   25    4      0.08      0.00
  -12    1    5      0.12      0.00
   10    1    5      0.83      0.00
  -12    2    5     -0.48      0.00
   10    2    5      0.55      0.00
  -12    3    5     -0.27      0.00
   10    3    5      0.82      0.00
  -12    4    5     -0.83      0.00
  -11    4    5     -0.63      0.00
    9    4    5     -1.24      0.00
   10    4    5      0.89      0.00
  -12    5    5     -0.72      0.00
  -11    5    5      0.77      0.00
    9    5    5     -0.11      0.00
   10    5    5      0.78      0.00
  -12    6    5     -0.77      0.00
  -11    6    5     -0.83      0.00
    9    6    5     -1.30      0.00
   10    6    5      0.86      0.00
  -12    7    5     -0.89      0.00
  -11    7    5      0.24      0.00
    9    7    5      0.01      0.00
   10    7    5      0.58      0.00
  -11    8    5     -0.60      0.00
    9    8    5     -0.92      0.00
  -11    9    5     -0.05      0.00
    9    9    5     -0.16      0.00
  -11   10    5     -0.10      0.00
  -10   10    5     -0.45      0.00
    8   10    5     -0.48      0.00
    9   10    5     -0.33      0.00
  -11   11    5     -0.21      0.00
  -10   11    5      0.88      0.00
    8   11    5     -0.03      0.00
    9   11    5     -0.26      0.00
  -10   12    5     -0.15      0.00
    8   12    5     -0.26      0.00
    9   12    5      0.11      0.00
  -10   13    5     -0.37      0.00
    8   13    5      0.24      0.00
  -10   14    5      0.19      0.00
   -9   14    5     -0.47      0.00
    7   14    5      0.25      0.00
    8   14    5     -0.28      0.00
  -10   15    5     -1.02      0.00
   -9   15    5     -1.28      0.00
    7   15    5      0.47      0.00
    8   15    5      0.36      0.00
   -9   16    5     -0.30      0.00
   -8   16    5     -0.42      0.00
    6   16    5     -0.69      0.00
    7   16    5      0.03      0.00
   -9   17    5     -0.62      0.00
   -8   17    5      0.63      0.00
    6   17    5      0.30      0.00
    7   17    5      0.38      0.00
   -8   18    5     -0.33      0.00
   -7   18    5      0.06      0.00
    5   18    5     -0.45      0.00
    6   18    5     -0.31      0.00
   -8   19    5      0.56      0.00
   -7   19    5      0.57      0.00
   -6   19    5     -1.08      0.00
    4   19    5     -0.52      0.00
    5   19    5      0.46      0.00
    6   19    5      0.22      0.00
   -7   20    5     -0.03      0.00
   -6   20    5     -1.18      0.00
   -5   20    5     -1.28      0.00
    3   20    5      1.84      0.00
    4   20    5      0.55      0.00
    5   20    5      0.05      0.00
   -6   21    5     -0.77      0.00
   -5   21    5     -0.78      0.00
   -4   21    5      0.87      0.00
   -3   21    5      0.67      0.00
    1   21    5     -0.61      0.00
    2   21    5     -0.95      0.00
    3   21    5     -0.77      0.00
    4   21    5     -0.42      0.00
   -5   22    5     -0.50      0.00
   -4   22    5     -0.01      0.00
   -3   22    5     -0.63      0.00
   -2   22    5      1.29      0.00
   -1   22    5      0.37      0.00
    0   22    5     -3.71      0.00
    1   22    5     -1.42      0.00
    2   22    5     -0.02      0.00
    3   22    5      1.49      0.00
   -4   23    5      0.69      0.00
   -3   23    5      0.26      0.00
   -2   23    5     -0.12      0.00
   -1   23    5      1.20      0.00
    0   23    5      0.03      0.00
    1   23    5     -0.56      0.00
    2   23    5     -1.20      0.00
   -2   24    5      0.64      0.00
   -1   24    5      0.50      0.00
    0   24    5     -1.66      0.00
  -11    0    6      1.47      0.00
    9    0    6     -0.16      0.00
  -11    1    6      0.11      0.00
    9    1    6     -0.29      0.00
  -11    2    6      1.28      0.00
    8    2    6     -0.60      0.00
    9    2    6     -0.14      0.00
  -11    3    6      0.11      0.00
    8    3    6     -1.35      0.00
    9    3    6     -0.76      0.00
  -11    4    6      0.84      0.00
    8    4    6     -0.17      0.00
    9    4    6     -0.05      0.00
  -11    5    6     -0.27      0.00
    8    5    6     -1.88      0.00
    9    5    6     -1.00      0.00
  -11    6    6      0.31      0.00
  -10    6    6      0.41      0.00
    8    6    6      0.23      0.00
    9    6    6     -0.02      0.00
  -11    7    6     -0.53      0.00
  -10    7    6     -0.69      0.00
    8    7    6     -1.78      0.00
    9    7    6     -0.91      0.00
  -11    8    6     -0.01      0.00
  -10    8    6      1.19      0.00
    8    8    6      0.42      0.00
  -10    9    6     -0.60      0.00
    7    9    6     -0.21      0.00
    8    9    6     -1.15      0.00
  -10   10    6      1.59      0.00
    7   10    6      0.34      0.00
    8   10    6      0.43      0.00
  -10   11    6     -0.47      0.00
   -9   11    6      0.77      0.00
    7   11    6      0.11      0.00
    8   11    6     -0.40      0.00
  -10   12    6      1.27      0.00
   -9   12    6      0.08      0.00
    7   12    6      0.27      0.00
   -9   13    6      0.38      0.00
   -8   13    6     -0.42      0.00
    6   13    6      0.05      0.00
    7   13    6      0.27      0.00
   -9   14    6     -0.30      0.00
   -8   14    6      0.94      0.00
    6   14    6     -0.32      0.00
    7   14    6      0.23      0.00
   -9   15    6      0.20      0.00
   -8   15    6      0.12      0.00
   -7   15    6     -0.38      0.00
    5   15    6      0.21      0.00
    6   15    6     -0.36      0.00
   -8   16    6      1.01      0.00
   -7   16    6      1.58      0.00
    5   16    6      1.92      0.00
    6   16    6     -0.12      0.00
   -8   17    6      0.33      0.00
   -7   17    6      0.21      0.00
   -6   17    6     -1.26      0.00
    4   17    6      0.99      0.00
    5   17    6      0.16      0.00
   -7   18    6      1.35      0.00
   -6   18    6      0.35      0.00
   -5   18    6     -2.04      0.00
    3   18    6     -0.34      0.00
    4   18    6      0.40      0.00
    5   18    6      1.44      0.00
   -6   19    6     -1.58      0.00
   -5   19    6     -3.72      0.00
   -4   19    6      1.76      0.00
   -3   19    6     -0.89      0.00
    1   19    6      0.25      0.00
    2   19    6      0.51      0.00
    3   19    6      1.08      0.00
    4   19    6      0.83      0.00
   -6   20    6     -0.06      0.00
   -5   20    6     -1.29      0.00
   -4   20    6     -0.36      0.00
   -3   20    6      1.44      0.00
   -2   20    6      0.16      0.00
   -1   20    6     -0.17      0.00
    0   20    6      0.04      0.00
    1   20    6     -0.17      0.00
    2   20    6     -0.79      0.00
    3   20    6     -0.37      0.00
   -5   21    6     -1.52      0.00
   -4   21    6      0.96      0.00
   -3   21    6     -0.97      0.00
   -2   21    6      0.65      0.00
   -1   21    6      1.75      0.00
    0   21    6     -0.64      0.00
    1   21    6     -0.41      0.00
    2   21    6      0.03      0.00
   -3   22    6      0.83      0.00
   -2   22    6     -0.02      0.00
   -1   22    6      0.20      0.00
    0   22    6     -0.14      0.00
    1   22    6     -0.98      0.00
  -11    1    7     -0.43      0.00
  -10    1    7     -1.88      0.00
    7    1    7      0.62      0.00
    8    1    7      0.04      0.00
  -10    2    7     -0.29      0.00
    7    2    7     -0.33      0.00
    8    2    7     -0.35      0.00
  -10    3    7     -1.38      0.00
    7    3    7      0.76      0.00
    8    3    7      0.16      0.00
  -10    4    7     -0.34      0.00
    7    4    7     -0.68      0.00
    8    4    7     -0.67      0.00
  -10    5    7     -0.63      0.00
   -9    5    7     -0.43      0.00
    7    5    7      0.89      0.00
  -10    6    7     -0.14      0.00
   -9    6    7      1.28      0.00
    7    6    7     -0.86      0.00
  -10    7    7      0.01      0.00
   -9    7    7      0.33      0.00
    6    7    7     -0.25      0.00
    7    7    7      0.81      0.00
  -10    8    7      0.15      0.00
   -9    8    7      1.65      0.00
    6    8    7      1.33      0.00
    7    8    7     -0.76      0.00
  -10    9    7      0.28      0.00
   -9    9    7      0.64      0.00
    6    9    7     -0.29      0.00
    7    9    7      0.51      0.00
   -9   10    7      1.31      0.00
   -8   10    7     -1.18      0.00
    6   10    7      1.18      0.00
    7   10    7     -0.51      0.00
   -9   11    7      0.12      0.00
   -8   11    7      0.00      0.00
    5   11    7      1.99      0.00
    6   11    7     -0.31      0.00
   -9   12    7      0.61      0.00
   -8   12    7     -0.95      0.00
   -7   12    7     -1.73      0.00
    5   12    7      0.87      0.00
    6   12    7      0.67      0.00
   -8   13    7     -0.12      0.00
   -7   13    7      0.23      0.00
    4   13    7      0.78      0.00
    5   13    7      2.54      0.00
    6   13    7     -0.31      0.00
   -8   14    7     -0.37      0.00
   -7   14    7     -0.75      0.00
   -6   14    7      2.50      0.00
    3   14    7      0.65      0.00
    4   14    7      0.77      0.00
    5   14    7      0.76      0.00
   -7   15    7      0.38      0.00
   -6   15    7      0.93      0.00
   -5   15    7     -0.44      0.00
    3   15    7     -1.19      0.00
    4   15    7      0.79      0.00
    5   15    7      2.11      0.00
   -7   16    7      0.20      0.00
   -6   16    7      1.47      0.00
   -5   16    7     -4.01      0.00
   -4   16    7      0.35      0.00
    1   16    7      0.70      0.00
    2   16    7      0.59      0.00
    3   16    7      0.77      0.00
    4   16    7      0.44      0.00
   -6   17    7      0.81      0.00
   -5   17    7     -0.88      0.00
   -4   17    7     -1.94      0.00
   -3   17    7      1.00      0.00
   -2   17    7     -1.13      0.00
   -1   17    7     -3.46      0.00
    0   17    7     -1.30      0.00
    1   17    7      0.89      0.00
    2   17    7     -1.85      0.00
    3   17    7     -1.04      0.00
   -5   18    7     -3.28      0.00
   -4   18    7      0.46      0.00
   -3   18    7     -1.11      0.00
   -2   18    7     -3.47      0.00
   -1   18    7     -0.12      0.00
    0   18    7      1.39      0.00
    1   18    7      0.55      0.00
    2   18    7      0.13      0.00
    3   18    7      0.55      0.00
   -4   19    7     -2.05      0.00
   -3   19    7      0.40      0.00
   -2   19    7     -0.16      0.00
   -1   19    7     -2.07      0.00
    0   19    7     -0.89      0.00
    1   19    7      0.47      0.00
    2   19    7     -0.81      0.00
   -3   20    7     -1.13      0.00
   -2   20    7     -2.02      0.00
   -1   20    7      0.42      0.00
    0   20    7      0.94      0.00
   -9    0    8     -0.92      0.00
   -8    0    8      0.65      0.00
    5    0    8      1.48      0.00
    6    0    8      0.27      0.00
   -9    1    8     -0.06      0.00
   -8    1    8     -0.26      0.00
    5    1    8      0.74      0.00
    6    1    8      0.13      0.00
   -9    2    8     -0.85      0.00
   -8    2    8      0.22      0.00
    5    2    8      1.14      0.00
    6    2    8      0.13      0.00
   -9    3    8      0.05      0.00
   -8    3    8     -0.58      0.00
    5    3    8      1.67      0.00
    6    3    8      0.19      0.00
   -9    4    8     -0.54      0.00
   -8    4    8     -0.62      0.00
    5    4    8      0.23      0.00
    6    4    8     -0.25      0.00
   -9    5    8      0.43      0.00
   -8    5    8     -0.49      0.00
    5    5    8      1.45      0.00
    6    5    8      0.05      0.00
   -9    6    8      0.12      0.00
   -8    6    8     -0.90      0.00
    4    6    8     -1.93      0.00
    5    6    8     -0.65      0.00
    6    6    8     -0.57      0.00
   -9    7    8      0.72      0.00
   -8    7    8     -0.32      0.00
   -7    7    8     -1.66      0.00
    4    7    8     -2.25      0.00
    5    7    8      0.60      0.00
    6    7    8     -0.05      0.00
   -8    8    8     -0.42      0.00
   -7    8    8     -0.76      0.00
    4    8    8     -1.81      0.00
    5    8    8     -0.78      0.00
   -8    9    8     -0.42      0.00
   -7    9    8     -2.00      0.00
    3    9    8     -1.89      0.00
    4    9    8     -1.84      0.00
    5    9    8      0.03      0.00
   -8   10    8      0.14      0.00
   -7   10    8     -0.28      0.00
   -6   10    8      0.15      0.00
    3   10    8     -1.18      0.00
    4   10    8     -1.08      0.00
    5   10    8     -0.10      0.00
   -7   11    8     -1.93      0.00
   -6   11    8      1.25      0.00
   -5   11    8      0.54      0.00
    2   11    8      0.49      0.00
    3   11    8     -0.89      0.00
    4   11    8     -0.85      0.00
   -7   12    8     -0.09      0.00
   -6   12    8     -0.04      0.00
   -5   12    8     -0.04      0.00
    1   12    8      1.91      0.00
    2   12    8     -1.51      0.00
    3   12    8     -0.99      0.00
    4   12    8     -0.06      0.00
   -7   13    8     -1.49      0.00
   -6   13    8      1.73      0.00
   -5   13    8     -0.41      0.00
   -4   13    8     -0.55      0.00
   -3   13    8      3.44      0.00
    0   13    8     -1.61      0.00
    1   13    8     -0.63      0.00
    2   13    8      0.17      0.00
    3   13    8      0.18      0.00
   -6   14    8     -0.10      0.00
   -5   14    8     -0.11      0.00
   -4   14    8     -0.82      0.00
   -3   14    8      0.99      0.00
   -2   14    8     -1.62      0.00
   -1   14    8     -1.73      0.00
    0   14    8     -0.23      0.00
    1   14    8      1.69      0.00
    2   14    8     -1.49      0.00
    3   14    8     -0.67      0.00
   -5   15    8     -0.68      0.00
   -4   15    8     -0.05      0.00
   -3   15    8      2.79      0.00
   -2   15    8     -0.01      0.00
   -1   15    8     -1.25      0.00
    0   15    8     -0.21      0.00
    1   15    8     -0.19      0.00
    2   15    8      0.17      0.00
   -4   16    8     -0.59      0.00
   -3   16    8      0.89      0.00
   -2   16    8     -0.98      0.00
   -1   16    8     -1.75      0.00
    0   16    8     -0.40      0.00
    1   16    8      1.35      0.00
   -3   17    8      1.12      0.00
   -2   17    8     -1.09      0.00
   -1   17    8     -0.35      0.00
    0   17    8      0.73      0.00
   -8    1    9      0.65      0.00
   -7    1    9     -1.52      0.00
   -6    1    9      0.13      0.00
   -5    1    9      1.61      0.00
    2    1    9      2.37      0.00
    3    1    9      0.20      0.00
    4    1    9     -1.35      0.00
   -8    2    9     -0.56      0.00
   -7    2    9     -0.02      0.00
   -6    2    9      1.03      0.00
   -5    2    9     -1.93      0.00
    2    2    9      0.35      0.00
    3    2    9     -1.73      0.00
    4    2    9     -0.69      0.00
   -7    3    9     -1.61      0.00
   -6    3    9     -0.16      0.00
   -5    3    9      1.06      0.00
    2    3    9      1.70      0.00
    3    3    9      0.12      0.00
    4    3    9     -0.79      0.00
   -7    4    9     -0.18      0.00
   -6    4    9      1.07      0.00
   -5    4    9     -1.86      0.00
    1    4    9     -0.99      0.00
    2    4    9      1.04      0.00
    3    4    9     -2.52      0.00
    4    4    9     -1.06      0.00
   -7    5    9     -1.58      0.00
   -6    5    9     -0.50      0.00
   -5    5    9      0.48      0.00
    1    5    9     -0.38      0.00
    2    5    9      1.00      0.00
    3    5    9     -0.01      0.00
    4    5    9     -0.31      0.00
   -7    6    9     -0.43      0.00
   -6    6    9      0.17      0.00
   -5    6    9     -0.14      0.00
   -4    6    9     -2.67      0.00
    0    6    9     -0.85      0.00
    1    6    9     -0.58      0.00
    2    6    9      1.65      0.00
    3    6    9     -2.23      0.00
   -7    7    9     -1.15      0.00
   -6    7    9     -0.52      0.00
   -5    7    9      0.30      0.00
   -4    7    9      0.34      0.00
   -3    7    9      1.27      0.00
   -2    7    9     -1.56      0.00
   -1    7    9     -0.61      0.00
    0    7    9     -0.51      0.00
    1    7    9      0.12      0.00
    2    7    9      0.70      0.00
    3    7    9     -0.09      0.00
   -6    8    9     -0.78      0.00
   -5    8    9      1.30      0.00
   -4    8    9     -0.87      0.00
   -3    8    9      2.96      0.00
   -2    8    9     -0.13      0.00
   -1    8    9     -1.43      0.00
    0    8    9     -0.97      0.00
    1    8    9     -0.54      0.00
    2    8    9      1.53      0.00
    3    8    9     -1.42      0.00
   -6    9    9     -0.22      0.00
   -5    9    9      0.40      0.00
   -4    9    9     -0.07      0.00
   -3    9    9      0.97      0.00
   -2    9    9     -1.67      0.00
   -1    9    9     -0.52      0.00
    0    9    9     -0.39      0.00
    1    9    9      0.80      0.00
    2    9    9      0.46      0.00
   -6   10    9     -0.96      0.00
   -5   10    9      1.46      0.00
   -4   10    9     -0.22      0.00
   -3   10    9      2.54      0.00
   -2   10    9      1.00      0.00
   -1   10    9     -0.51      0.00
    0   10    9     -1.29      0.00
    1   10    9     -0.95      0.00
    2   10    9      0.81      0.00
   -5   11    9      0.39      0.00
   -4   11    9     -0.39      0.00
   -3   11    9      0.64      0.00
   -2   11    9     -1.35      0.00
   -1   11    9     -0.10      0.00
    0   11    9     -0.09      0.00
    1   11    9      0.98      0.00
   -4   12    9     -0.38      0.00
   -3   12    9      2.55      0.00
   -2   12    9      1.80      0.00
   -1   12    9     -0.32      0.00
    0   12    9     -1.31      0.00
    1   12    9     -1.17      0.00
   -3   13    9      0.60      0.00
   -2   13    9     -0.90      0.00
   -1   13    9      0.34      0.00
    0    0    0      0.00      0.00
# SQUEEZE RESULTS (Version =  21116)
# Note: Data are Listed for all Voids in the P1 Unit Cell
# i.e. Centre of Gravity, Solvent Accessible Volume,
# Recovered number of Electrons in the Void and
# Details about the Squeezed Material
loop_
  _platon_squeeze_void_nr
  _platon_squeeze_void_average_x
  _platon_squeeze_void_average_y
  _platon_squeeze_void_average_z
  _platon_squeeze_void_volume
  _platon_squeeze_void_count_electrons
  _platon_squeeze_void_content
   1 -0.002  0.000 -0.018       204        48 ' '
   2 -0.016  0.500 -0.043       204        48 ' '
# Missing Reflections Below sin(th)/lambda = 0.25
loop_
  _platon_missing_refln_index_h
  _platon_missing_refln_index_k
  _platon_missing_refln_index_l
  _platon_missing_refln_theta
    1    0    0     2.018
    1    1    0     2.235
    0    2    0     1.920
    1    2    0     2.786
    0    1    1     2.790
_platon_squeeze_void_probe_radius                  1.20
_platon_squeeze_details
)
TITL 2-Nd-3d in P2(1)/c
CELL   10.2050   21.2150    7.8660     90.00     98.64     90.00
SPGR P21/c
# Solvent Accessible Volume =       405
# Electrons Found in S.A.V. =        95
# Note: Atoms in Void as Cxxx and Qxxx all others
Q101 0.491 0.714 0.119 !       4.00 eA-3
Q102 0.510 0.285 0.103 !       3.83 eA-3
C103 0.368 0.502 0.413 !       3.00 eA-3
Q104 0.495 0.780 0.225 !       2.64 eA-3
C105 0.749 1.007 0.025 !       2.28 eA-3
Q106 0.510 0.218 0.213 !       2.17 eA-3
C107 0.718 0.034 0.031 !       1.79 eA-3
Q108 0.537 0.763 0.944 !       1.56 eA-3
C109 0.259 0.047 0.014 !       1.36 eA-3
Q110 0.599 0.215 0.059 !       0.88 eA-3
Q111 0.280 0.026 0.186 !       0.87 eA-3
C112 0.129 0.989 0.724 !       0.86 eA-3
Q113 0.750 0.558 0.673 !       0.86 eA-3
Q114 0.290 0.057 0.417 !       0.81 eA-3
Q115 0.660 0.475 0.693 !       0.80 eA-3
Q116 0.660 0.007 0.245 !       0.80 eA-3
Q117 0.624 0.513 0.296 !       0.77 eA-3
Q118 0.856 0.342 0.315 !       0.75 eA-3
Q119 0.430 0.981 0.152 !       0.74 eA-3
Q120 0.250 0.685 0.005 !       0.73 eA-3
Q121 0.746 0.489 0.412 !       0.72 eA-3
Q122 0.404 0.583 0.307 !       0.72 eA-3
Q123 0.658 0.277 0.596 !       0.71 eA-3
Q124 0.933 0.985 0.658 !       0.70 eA-3
C125 0.065 0.522 0.348 !       0.68 eA-3
Q126 0.244 0.936 0.137 !       0.68 eA-3
C127 0.841 0.503 0.440 !       0.67 eA-3
Q128 0.903 0.611 0.502 !       0.67 eA-3
Q129 0.343 0.967 0.157 !       0.64 eA-3
C130 0.916 0.981 0.219 !       0.64 eA-3
Q131 0.682 0.230 0.541 !       0.64 eA-3
Q132 0.720 0.672 0.022 !       0.63 eA-3
Q133 0.937 0.342 0.503 !       0.63 eA-3
Q134 0.531 0.551 0.503 !       0.63 eA-3
Q135 0.529 0.121 0.315 !       0.61 eA-3
Q136 0.563 0.826 0.474 !       0.59 eA-3
Q137 0.501 0.355 0.656 !       0.59 eA-3
Q138 0.739 0.049 0.448 !       0.59 eA-3
Q139 0.261 0.951 0.552 !       0.59 eA-3
Q140 0.529 0.360 0.911 !       0.58 eA-3
C141 0.101 0.468 0.493 !       0.58 eA-3
Q142 0.917 0.878 0.404 !       0.57 eA-3
Q143 0.934 0.198 0.862 !       0.57 eA-3
Q144 0.214 0.609 0.467 !       0.57 eA-3
Q145 0.034 0.811 0.385 !       0.57 eA-3
Q146 0.089 0.205 0.503 !       0.57 eA-3
Q147 0.506 0.434 0.964 !       0.56 eA-3
Q148 0.912 0.808 0.061 !       0.56 eA-3
Q149 0.123 0.534 0.792 !       0.56 eA-3
Q150 0.553 0.157 0.367 !       0.55 eA-3
Q151 0.723 0.686 0.621 !       0.55 eA-3
Q152 0.751 0.593 0.212 !       0.55 eA-3
Q153 0.090 0.881 0.334 !       0.55 eA-3
C154 0.997 0.987 0.949 !       0.55 eA-3
Q155 0.717 0.904 0.073 !       0.55 eA-3
Q156 0.995 0.455 0.711 !       0.54 eA-3
Q157 0.970 0.201 0.022 !       0.54 eA-3
Q158 0.412 0.589 0.418 !       0.54 eA-3
Q159 0.935 0.144 0.369 !       0.54 eA-3
Q160 0.120 0.233 0.680 !       0.54 eA-3
Q161 0.253 0.691 0.347 !       0.54 eA-3
Q162 0.971 0.433 0.540 !       0.53 eA-3
C163 1.001 0.998 0.795 !       0.53 eA-3
Q164 0.406 0.871 0.151 !       0.53 eA-3
Q165 0.076 0.438 0.421 !       0.53 eA-3
Q166 0.840 0.824 0.226 !       0.52 eA-3
Q167 0.627 0.233 0.196 !       0.52 eA-3
Q168 0.865 0.591 0.623 !       0.52 eA-3
Q169 1.006 0.613 0.369 !       0.52 eA-3
Q170 0.626 0.457 0.031 !       0.52 eA-3
Q171 0.945 0.810 0.217 !       0.51 eA-3
Q172 0.225 0.073 0.685 !       0.51 eA-3
Q173 0.372 0.037 0.439 !       0.51 eA-3
Q174 0.279 0.055 0.286 !       0.51 eA-3
C175 0.997 0.499 0.201 !       0.50 eA-3
)
;
_shelx_fab_checksum              89769
_olex2_submission_special_instructions 'No special instructions were received'
loop_
_space_group_symop_operation_xyz
'x, y, z'
'-x, y+1/2, -z+1/2'
'-x, -y, -z'
'x, -y-1/2, z-1/2'
loop_
_atom_site_label
_atom_site_type_symbol
_atom_site_fract_x
_atom_site_fract_y
_atom_site_fract_z
_atom_site_U_iso_or_equiv
_atom_site_adp_type
_atom_site_occupancy
_atom_site_site_symmetry_order
_atom_site_calc_flag
C1 C 0.5000(9) 0.1269(4) -0.3651(10) 0.034(2) Uani 1 1 d
C2 C 0.4991(8) 0.0608(4) -0.4302(10) 0.0293(18) Uani 1 1 d
C3 C 0.6151(10) 0.0299(5) -0.4438(14) 0.048(2) Uani 1 1 d
C4 C 0.3835(10) 0.0302(5) -0.4928(13) 0.046(2) Uani 1 1 d
C5 C 1.0898(8) 0.2083(4) -0.2794(11) 0.0272(19) Uani 1 1 d
C6 C 1.1352(7) 0.2705(4) -0.2862(10) 0.0265(18) Uani 1 1 d
C7 C 1.0520(8) 0.3178(4) -0.2514(11) 0.0324(19) Uani 1 1 d
C8 C 0.9293(8) 0.3042(4) -0.2070(11) 0.0304(19) Uani 1 1 d
C9 C 0.8850(7) 0.2433(4) -0.1951(10) 0.0265(18) Uani 1 1 d
C10 C 0.9694(7) 0.1950(4) -0.2333(10) 0.0293(18) Uani 1 1 d
C11 C 0.7515(8) 0.2280(4) -0.1430(10) 0.0260(18) Uani 1 1 d
C12 C 0.2685(8) 0.2163(3) 0.1598(11) 0.0245(18) Uani 1 1 d
O1 O 0.7453(5) 0.1897(3) -0.0306(7) 0.0371(14) Uani 1 1 d
O2 O 0.6506(5) 0.2423(3) 0.2830(7) 0.0316(13) Uani 1 1 d
O3 O 0.5128(8) 0.3304(3) 0.0297(8) 0.056(2) Uani 1 1 d
O4 O 0.4884(6) 0.1333(2) -0.2086(6) 0.0317(13) Uani 1 1 d
O5 O 0.3703(5) 0.2595(3) -0.2534(7) 0.0313(13) Uani 1 1 d
O6 O 0.5402(7) 0.1195(3) 0.1782(8) 0.0457(16) Uani 1 1 d
O7 O 0.2755(5) 0.1842(3) 0.0339(7) 0.0392(15) Uani 1 1 d
F1 F 0.2678(7) 0.0587(4) -0.4836(12) 0.108(3) Uani 1 1 d
F2 F 0.7309(7) 0.0590(3) -0.3873(13) 0.115(3) Uani 1 1 d
F3 F 0.9312(5) 0.1352(2) -0.2275(8) 0.0470(14) Uani 1 1 d
F4 F 1.1646(5) 0.1611(2) -0.3236(7) 0.0434(13) Uani 1 1 d
F5 F 0.8539(5) 0.3521(3) -0.1641(8) 0.0505(15) Uani 1 1 d
F6 F 1.0892(5) 0.3781(2) -0.2574(8) 0.0520(15) Uani 1 1 d
Nd1 Nd 0.50925(3) 0.21527(2) 0.00420(4) 0.01541(19) Uani 1 1 d
loop_
_atom_site_aniso_label
_atom_site_aniso_U_11
_atom_site_aniso_U_22
_atom_site_aniso_U_33
_atom_site_aniso_U_23
_atom_site_aniso_U_13
_atom_site_aniso_U_12
C1 0.052(6) 0.021(4) 0.029(5) -0.002(4) 0.008(4) 0.001(4)
C2 0.053(5) 0.020(4) 0.015(4) 0.002(3) 0.004(3) -0.004(4)
C3 0.041(6) 0.031(5) 0.072(7) -0.020(5) 0.006(5) -0.008(4)
C4 0.049(6) 0.032(5) 0.058(6) -0.017(5) 0.011(5) 0.007(4)
C5 0.015(4) 0.040(5) 0.028(4) -0.005(4) 0.004(3) 0.002(3)
C6 0.013(4) 0.041(5) 0.025(4) 0.003(4) 0.002(3) -0.002(3)
C7 0.025(4) 0.033(5) 0.041(5) 0.003(4) 0.008(4) 0.000(4)
C8 0.020(4) 0.040(5) 0.032(5) -0.008(4) 0.006(3) 0.003(4)
C9 0.011(4) 0.042(5) 0.026(4) 0.004(4) 0.000(3) -0.001(3)
C10 0.018(4) 0.041(5) 0.028(4) 0.002(4) 0.002(3) -0.005(4)
C11 0.019(4) 0.039(5) 0.021(4) -0.003(4) 0.005(3) 0.000(3)
C12 0.021(4) 0.026(4) 0.027(5) 0.008(3) 0.004(3) -0.002(3)
O1 0.023(3) 0.061(4) 0.029(3) 0.013(3) 0.010(2) 0.007(3)
O2 0.011(3) 0.046(4) 0.037(3) -0.018(3) 0.005(2) -0.002(2)
O3 0.123(7) 0.015(3) 0.032(4) -0.002(3) 0.019(4) 0.004(3)
O4 0.059(4) 0.028(3) 0.011(3) -0.006(2) 0.013(2) 0.000(3)
O5 0.015(3) 0.043(3) 0.036(3) 0.012(3) 0.004(2) 0.003(2)
O6 0.067(5) 0.033(3) 0.037(3) 0.014(3) 0.004(3) -0.001(3)
O7 0.024(3) 0.063(4) 0.032(3) -0.016(3) 0.008(2) -0.007(3)
F1 0.052(4) 0.076(5) 0.190(9) -0.065(6) -0.001(5) 0.021(4)
F2 0.050(4) 0.069(5) 0.218(10) -0.075(6) -0.003(5) -0.009(4)
F3 0.034(3) 0.033(3) 0.078(4) -0.005(3) 0.021(3) -0.008(2)
F4 0.024(3) 0.042(3) 0.067(4) -0.009(3) 0.017(2) 0.002(2)
F5 0.023(3) 0.045(3) 0.088(4) -0.009(3) 0.023(3) 0.007(2)
F6 0.035(3) 0.034(3) 0.091(4) -0.002(3) 0.024(3) -0.004(2)
Nd1 0.0132(3) 0.0174(3) 0.0163(3) -0.00097(15) 0.00460(16) -0.00037(14)
loop_
_atom_type_symbol
_atom_type_description
_atom_type_scat_dispersion_real
_atom_type_scat_dispersion_imag
_atom_type_scat_source
C C 0.0033 0.0016 'International Tables Vol C Tables 4.2.6.8 and 6.1.1.4'
F F 0.0171 0.0103 'International Tables Vol C Tables 4.2.6.8 and 6.1.1.4'
Nd Nd -0.1943 3.0179 'International Tables Vol C Tables 4.2.6.8 and 6.1.1.4'
O O 0.0106 0.0060 'International Tables Vol C Tables 4.2.6.8 and 6.1.1.4'
loop_
_geom_angle_atom_site_label_1
_geom_angle_atom_site_label_2
_geom_angle_atom_site_label_3
_geom_angle
_geom_angle_site_symmetry_1
_geom_angle_site_symmetry_3
O3 C1 C2 116.7(7) 4_565 .
O3 C1 O4 127.2(7) 4_565 .
O4 C1 C2 116.1(7) . .
C3 C2 C1 121.0(8) . .
C3 C2 C4 116.9(8) . .
C4 C2 C1 121.9(8) . .
C4 C3 C2 122.0(8) 3_654 .
F2 C3 C2 118.6(8) . .
F2 C3 C4 119.3(9) . 3_654
C3 C4 C2 121.0(8) 3_654 .
F1 C4 C2 119.0(8) . .
F1 C4 C3 119.8(9) . 3_654
C10 C5 C6 121.4(8) . .
F4 C5 C6 119.4(7) . .
F4 C5 C10 119.2(8) . .
C5 C6 C12 120.1(7) . 4_665
C7 C6 C5 117.7(7) . .
C7 C6 C12 122.1(8) . 4_665
C6 C7 C8 120.7(8) . .
F6 C7 C6 120.5(7) . .
F6 C7 C8 118.8(8) . .
C9 C8 C7 122.3(8) . .
F5 C8 C7 118.6(8) . .
F5 C8 C9 119.0(7) . .
C8 C9 C10 117.0(7) . .
C8 C9 C11 122.5(7) . .
C10 C9 C11 120.6(8) . .
C5 C10 C9 120.9(8) . .
F3 C10 C5 119.2(8) . .
F3 C10 C9 119.9(7) . .
C9 C11 Nd1 169.8(6) . .
O1 C11 C9 119.3(7) . .
O1 C11 O2 122.7(7) . 4_565
O1 C11 Nd1 60.2(4) . .
O2 C11 C9 118.0(7) 4_565 .
O2 C11 Nd1 63.1(4) 4_565 .
C6 C12 Nd1 166.9(5) 4_466 .
O5 C12 C6 118.3(7) 4_566 4_466
O5 C12 Nd1 63.3(4) 4_566 .
O7 C12 C6 120.0(7) . 4_466
O7 C12 O5 121.6(7) . 4_566
O7 C12 Nd1 59.6(4) . .
C11 O1 Nd1 95.2(5) . .
C11 O2 Nd1 146.6(5) 4_566 .
C11 O2 Nd1 90.8(5) 4_566 4_566
Nd1 O2 Nd1 111.29(19) . 4_566
C1 O3 Nd1 140.9(5) 4_566 .
C1 O4 Nd1 138.3(5) . .
C12 O5 Nd1 90.9(5) 4_565 4_565
C12 O5 Nd1 156.8(5) 4_565 .
Nd1 O5 Nd1 111.74(19) . 4_565
C12 O7 Nd1 95.9(5) . .
C11 Nd1 C12 174.1(2) . .
O1 Nd1 C11 24.6(2) . .
O1 Nd1 C12 158.2(2) . .
O1 Nd1 O2 50.46(17) . 4_565
O1 Nd1 O5 139.39(18) . 4_566
O2 Nd1 C11 26.0(2) 4_565 .
O2 Nd1 C11 85.1(2) . .
O2 Nd1 C12 92.4(2) . .
O2 Nd1 C12 150.97(19) 4_565 .
O2 Nd1 O1 73.17(18) . .
O2 Nd1 O2 101.75(16) . 4_565
O2 Nd1 O5 147.6(2) 4_565 4_566
O2 Nd1 O5 67.42(17) . 4_566
O2 Nd1 O7 114.06(18) . .
O3 Nd1 C11 86.4(2) . .
O3 Nd1 C12 87.8(2) . .
O3 Nd1 O1 102.8(2) . .
O3 Nd1 O2 72.6(2) . .
O3 Nd1 O2 72.8(2) . 4_565
O3 Nd1 O5 71.9(2) . .
O3 Nd1 O5 74.8(2) . 4_566
O3 Nd1 O7 104.8(2) . .
O4 Nd1 C11 77.3(2) . .
O4 Nd1 C12 107.9(2) . .
O4 Nd1 O1 75.8(2) . .
O4 Nd1 O2 139.07(19) . .
O4 Nd1 O2 77.44(19) . 4_565
O4 Nd1 O3 141.04(19) . .
O4 Nd1 O5 73.97(19) . .
O4 Nd1 O5 131.34(18) . 4_566
O4 Nd1 O6 77.2(2) . .
O4 Nd1 O7 83.64(19) . .
O5 Nd1 C11 150.2(2) 4_566 .
O5 Nd1 C11 93.2(2) . .
O5 Nd1 C12 25.8(2) 4_566 .
O5 Nd1 C12 85.7(2) . .
O5 Nd1 O1 115.54(18) . .
O5 Nd1 O2 68.02(17) . 4_565
O5 Nd1 O2 144.5(2) . .
O5 Nd1 O5 102.37(16) . 4_566
O5 Nd1 O7 75.03(19) . .
O6 Nd1 C11 104.8(2) . .
O6 Nd1 C12 79.4(2) . .
O6 Nd1 O1 80.6(2) . .
O6 Nd1 O2 72.0(2) . .
O6 Nd1 O2 129.0(2) . 4_565
O6 Nd1 O3 141.6(2) . .
O6 Nd1 O5 78.4(2) . 4_566
O6 Nd1 O5 141.5(2) . .
O6 Nd1 O7 77.0(2) . .
O7 Nd1 C11 159.8(2) . .
O7 Nd1 C12 24.5(2) . .
O7 Nd1 O1 152.4(2) . .
O7 Nd1 O2 141.82(18) . 4_565
O7 Nd1 O5 49.99(17) . 4_566
loop_
_geom_bond_atom_site_label_1
_geom_bond_atom_site_label_2
_geom_bond_distance
_geom_bond_site_symmetry_2
C1 C2 1.493(11) .
C1 O3 1.247(10) 4_565
C1 O4 1.261(9) .
C2 C3 1.371(13) .
C2 C4 1.372(12) .
C3 C4 1.370(13) 3_654
C3 F2 1.348(11) .
C4 F1 1.338(11) .
C5 C6 1.402(12) .
C5 C10 1.362(11) .
C5 F4 1.336(9) .
C6 C7 1.368(12) .
C6 C12 1.511(11) 4_665
C7 C8 1.380(11) .
C7 F6 1.339(10) .
C8 C9 1.376(13) .
C8 F5 1.349(10) .
C9 C10 1.400(12) .
C9 C11 1.516(10) .
C10 F3 1.329(10) .
C11 O1 1.210(10) .
C11 O2 1.271(9) 4_565
C11 Nd1 2.895(8) .
C12 O5 1.264(9) 4_566
C12 O7 1.213(10) .
C12 Nd1 2.905(8) .
O1 Nd1 2.524(5) .
O2 Nd1 2.504(5) .
O2 Nd1 2.583(5) 4_566
O3 Nd1 2.450(6) .
O4 Nd1 2.401(5) .
O5 Nd1 2.476(5) .
O5 Nd1 2.597(5) 4_565
O6 Nd1 2.444(6) .
O7 Nd1 2.519(6) .
