#------------------------------------------------------------------------------
#$Date: 2017-04-05 12:40:02 +0300 (Wed, 05 Apr 2017) $
#$Revision: 195051 $
#$URL: file:///home/coder/svn-repositories/cod/cif/7/04/20/7042034.cif $
#------------------------------------------------------------------------------
#
# This file is available in the Crystallography Open Database (COD),
# http://www.crystallography.net/
#
# All data on this site have been placed in the public domain by the
# contributors.
#
data_7042034
loop_
_publ_author_name
'Yao, Shuo'
'Xu, Tong'
'Zhao, Nian'
'Zhang, Lirong'
'Huo, Qisheng'
'Liu, Yunling'
_publ_section_title
;
 An anionic metal-organic framework with ternary building units for rapid
 and selective adsorption of dyes.
;
_journal_issue                   10
_journal_name_full
'Dalton transactions (Cambridge, England : 2003)'
_journal_page_first              3332
_journal_page_last               3337
_journal_paper_doi               10.1039/c7dt00192d
_journal_volume                  46
_journal_year                    2017
_chemical_formula_sum            'C72 H112 Cu5 N14 O32 S3'
_chemical_formula_weight         2099.63
_chemical_name_systematic        JLU-Liu39
_space_group_crystal_system      tetragonal
_space_group_IT_number           135
_space_group_name_Hall           '-P 4c 2ab'
_space_group_name_H-M_alt        'P 42/m b c'
_symmetry_space_group_name_Hall  '-P 4c 2ab'
_symmetry_space_group_name_H-M   'P 42/m b c'
_atom_sites_solution_hydrogens   geom
_audit_creation_method           SHELXL-2014/7
_audit_update_record
;
2017-01-14 deposited with the CCDC.
2017-02-10 downloaded from the CCDC.
;
_cell_angle_alpha                90
_cell_angle_beta                 90
_cell_angle_gamma                90
_cell_formula_units_Z            8
_cell_length_a                   31.236(4)
_cell_length_b                   31.236(4)
_cell_length_c                   28.194(5)
_cell_measurement_reflns_used    8185
_cell_measurement_temperature    296(2)
_cell_measurement_theta_max      23.90
_cell_measurement_theta_min      2.34
_cell_volume                     27509(7)
_computing_structure_refinement  'SHELXL-2014/7 (Sheldrick, 2014)'
_diffrn_ambient_temperature      296(2)
_diffrn_measured_fraction_theta_full 0.995
_diffrn_measured_fraction_theta_max 0.995
_diffrn_measurement_device_type  CCD
_diffrn_radiation_type           MoK\a
_diffrn_radiation_wavelength     0.71073
_diffrn_reflns_av_R_equivalents  0.1560
_diffrn_reflns_av_unetI/netI     0.0624
_diffrn_reflns_Laue_measured_fraction_full 0.995
_diffrn_reflns_Laue_measured_fraction_max 0.995
_diffrn_reflns_limit_h_max       36
_diffrn_reflns_limit_h_min       -37
_diffrn_reflns_limit_k_max       34
_diffrn_reflns_limit_k_min       -37
_diffrn_reflns_limit_l_max       33
_diffrn_reflns_limit_l_min       -33
_diffrn_reflns_number            175094
_diffrn_reflns_point_group_measured_fraction_full 0.995
_diffrn_reflns_point_group_measured_fraction_max 0.995
_diffrn_reflns_theta_full        25.162
_diffrn_reflns_theta_max         25.162
_diffrn_reflns_theta_min         0.922
_exptl_absorpt_coefficient_mu    0.864
_exptl_absorpt_correction_type   multi-scan
_exptl_absorpt_process_details   sadabs
_exptl_crystal_colour            blue
_exptl_crystal_density_diffrn    1.014
_exptl_crystal_description       Block
_exptl_crystal_F_000             8728
_exptl_crystal_size_max          0.220
_exptl_crystal_size_mid          0.200
_exptl_crystal_size_min          0.180
_exptl_transmission_factor_max   0.864
_exptl_transmission_factor_min   0.864
_refine_diff_density_max         1.328
_refine_diff_density_min         -0.627
_refine_diff_density_rms         0.092
_refine_ls_extinction_method     none
_refine_ls_goodness_of_fit_ref   0.982
_refine_ls_hydrogen_treatment    constr
_refine_ls_matrix_type           full
_refine_ls_number_parameters     328
_refine_ls_number_reflns         12562
_refine_ls_number_restraints     0
_refine_ls_restrained_S_all      0.982
_refine_ls_R_factor_all          0.1429
_refine_ls_R_factor_gt           0.0612
_refine_ls_shift/su_max          0.002
_refine_ls_shift/su_mean         0.000
_refine_ls_structure_factor_coef Fsqd
_refine_ls_weighting_details
'w=1/[\s^2^(Fo^2^)+(0.2000P)^2^] where P=(Fo^2^+2Fc^2^)/3'
_refine_ls_weighting_scheme      calc
_refine_ls_wR_factor_gt          0.1981
_refine_ls_wR_factor_ref         0.2953
_reflns_Friedel_coverage         0.000
_reflns_number_gt                6871
_reflns_number_total             12562
_reflns_threshold_expression     'I > 2\s(I)'
_cod_data_source_file            c7dt00192d2.cif
_cod_data_source_block           b_sq
_cod_depositor_comments          'Adding full bibliography for 7042034.cif.'
_cod_original_cell_volume        27509(9)
_cod_database_code               7042034
_shelx_shelxl_version_number     2014/7
_shelx_space_group_comment
;
The symmetry employed for this shelxl refinement is uniquely defined
by the following loop, which should always be used as a source of
symmetry information in preference to the above space-group names.
They are only intended as comments.
;
_shelx_estimated_absorpt_t_min   0.833
_shelx_estimated_absorpt_t_max   0.860
_shelx_res_file
;

    b_sq.res created by SHELXL-2014/7

TITL B in Cc                          New: P42/mbc
CELL  0.71073   31.2360   31.2360   28.1940    90.000    90.000    90.000
ZERR        8    0.0040    0.0040    0.0050     0.000     0.000     0.000
LATT 1
SYMM             - Y ,              X ,    0.50000 + Z
SYMM             - X ,            - Y ,              Z
SYMM               Y ,            - X ,    0.50000 + Z
SYMM     0.50000 + X ,    0.50000 - Y ,            - Z
SYMM     0.50000 + Y ,    0.50000 + X ,    0.50000 - Z
SYMM     0.50000 - X ,    0.50000 + Y ,            - Z
SYMM     0.50000 - Y ,    0.50000 - X ,    0.50000 - Z
SFAC C  H  Cu N  O  S
UNIT 576 896 40 112 256 24
L.S. 30
ACTA
BOND $H
FMAP 2
PLAN 20
CONF
ABIN
SIZE 0.22 0.2 0.18
TEMP    23
WGHT    0.200000
FVAR       0.02594
C1    1    0.902336    0.200348    0.435631    11.00000    0.07087    0.05908 =
         0.03433    0.00224    0.00390   -0.00796
C2    1    0.926059    0.220823    0.396017    11.00000    0.06344    0.04825 =
         0.04671    0.00029    0.01559   -0.00165
C3    1    0.912900    0.259859    0.378123    11.00000    0.07034    0.07174 =
         0.05793    0.00053    0.03209    0.00121
AFIX  43
H3    2    0.889167    0.273311    0.391338    11.00000   -1.20000
AFIX   0
C4    1    0.934335    0.279393    0.340881    11.00000    0.09045    0.04046 =
         0.07071    0.00674    0.03069    0.00819
AFIX  43
H4    2    0.924995    0.305664    0.329314    11.00000   -1.20000
AFIX   0
C5    1    0.983406    0.221681    0.338869    11.00000    0.07433    0.06552 =
         0.08808    0.00985    0.04027    0.00658
AFIX  43
H5    2    1.007338    0.208157    0.326196    11.00000   -1.20000
AFIX   0
C6    1    0.961260    0.202646    0.376876    11.00000    0.09168    0.06317 =
         0.07737    0.01751    0.03638    0.01124
AFIX  43
H6    2    0.971144    0.176836    0.389145    11.00000   -1.20000
AFIX   0
C7    1    0.970243    0.259302    0.320698    11.00000    0.06779    0.04911 =
         0.05984   -0.00033    0.02865   -0.00666
C8    1    0.996260    0.324248    0.277893    11.00000    0.06662    0.04969 =
         0.05747   -0.00204    0.03129    0.00652
AFIX  43
H8    2    0.983641    0.340701    0.301564    11.00000   -1.20000
AFIX   0
C9    1    0.992742    0.279687    0.280386    11.00000    0.07916    0.04564 =
         0.05861    0.00720    0.03396    0.00659
C10   1    1.012221    0.255617    0.244644    11.00000    0.08886    0.05307 =
         0.06361    0.00527    0.03259    0.00010
AFIX  43
H10   2    1.010657    0.225895    0.245478    11.00000   -1.20000
AFIX   0
C11   1    1.034201    0.276011    0.207366    11.00000    0.07642    0.05336 =
         0.06062   -0.00082    0.02816   -0.00627
C12   1    1.034979    0.320438    0.208339    11.00000    0.07512    0.04546 =
         0.06179   -0.00125    0.02838    0.00639
AFIX  43
H12   2    1.048715    0.334669    0.183683    11.00000   -1.20000
AFIX   0
C13   1    1.056674    0.251713    0.170208    11.00000    0.08620    0.04062 =
         0.06272   -0.00855    0.02918    0.00059
C14   1    1.040736    0.213841    0.155288    11.00000    0.09191    0.07879 =
         0.08306   -0.00456    0.05473    0.00226
AFIX  43
H14   2    1.015885    0.203247    0.169153    11.00000   -1.20000
AFIX   0
C15   1    1.061043    0.189826    0.118925    11.00000    0.08933    0.05916 =
         0.09164   -0.02113    0.02921    0.00617
AFIX  43
H15   2    1.049206    0.164220    0.108375    11.00000   -1.20000
AFIX   0
C16   1    1.098980    0.205216    0.099292    11.00000    0.06461    0.05906 =
         0.05321   -0.00261    0.01435    0.01217
C17   1    1.114047    0.243166    0.115010    11.00000    0.07978    0.06835 =
         0.08559   -0.00901    0.03643   -0.00064
AFIX  43
H17   2    1.138892    0.254357    0.101718    11.00000   -1.20000
AFIX   0
C18   1    1.093306    0.265851    0.150549    11.00000    0.09678    0.05666 =
         0.08095   -0.01818    0.04583   -0.01101
AFIX  43
H18   2    1.105035    0.291517    0.161066    11.00000   -1.20000
AFIX   0
PART 1
C19   1    1.121826    0.180225    0.063240    11.00000    0.07716    0.05326 =
         0.03680   -0.00037    0.00453    0.01749
O3    5    1.156947    0.195096    0.048844    11.00000    0.08047    0.05961 =
         0.04940   -0.00815    0.01449    0.00657
O4    5    1.104776    0.146009    0.049092    11.00000    0.06171    0.06750 =
         0.05560   -0.01057    0.01465    0.00815
PART 0
CU1   3    0.833021    0.192469    0.500000    10.50000    0.04862    0.05249 =
         0.03299    0.00000    0.00000   -0.00783
CU2   3    0.890258    0.130595    0.500000    10.50000    0.04989    0.05228 =
         0.03605    0.00000    0.00000   -0.00917
CU3   3    1.021582    0.408588    0.245610    11.00000    0.05861    0.04463 =
         0.04437    0.00402    0.01608    0.00584
CU4   3    1.000000    0.500000    0.299636    10.50000    0.05406    0.05338 =
         0.03405    0.00000    0.00000    0.01115
N1    4    1.017026    0.344076    0.242861    11.00000    0.06805    0.04160 =
         0.05401    0.00664    0.02477    0.00661
O1    5    0.869176    0.217959    0.450750    11.00000    0.06482    0.05536 =
         0.04787    0.00218    0.01445   -0.00490
O2    5    0.917331    0.165386    0.450274    11.00000    0.06519    0.06880 =
         0.05252    0.01158    0.01036   -0.00662
O5    5    0.782867    0.239587    0.500000    10.50000    0.12021    0.08142 =
         0.09882    0.00000    0.00000    0.02953
O6    5    0.936589    0.080233    0.500000    10.50000    0.08844    0.09462 =
         0.13985    0.00000    0.00000    0.01385
O7    5    1.029910    0.470090    0.250000    10.50000    0.04585    0.04585 =
         0.03329    0.00501    0.00501    0.00547
O8    5    1.034381    0.400162    0.314341    11.00000    0.14664    0.06642 =
         0.04890    0.01214   -0.00219   -0.01457
O9    5    1.025856    0.468130    0.351916    11.00000    0.09877    0.08958 =
         0.03611    0.01254    0.00921    0.04698
O10   5    1.093499    0.447645    0.319310    11.00000    0.05885    0.14292 =
         0.06595    0.05442    0.00195   -0.00015
O11   5    1.067426    0.413865    0.388865    11.00000    0.10316    0.08873 =
         0.04524    0.02770   -0.00384    0.02260
O12   5    0.958943    0.419002    0.220754    11.00000    0.07249    0.09469 =
         0.09088   -0.02120    0.00099    0.01685
O13   5    0.918603    0.382534    0.281781    11.00000    0.09602    0.07720 =
         0.19355    0.04207    0.02389    0.00161
S1    6    1.055997    0.432112    0.344162    11.00000    0.06508    0.06834 =
         0.04054    0.01813    0.00615    0.01367
S2    6    0.919450    0.419450    0.250000    10.50000    0.05967    0.05967 =
         0.11900   -0.00638    0.00638   -0.00268
HKLF 4 1 -0.5000 -0.5000  0.0000 -0.5000  0.5000  0.0000  0.0000  0.0000 -1.0000

REM  B in Cc                          New: P42/mbc
REM R1 =  0.0612 for    6871 Fo > 4sig(Fo)  and  0.1429 for all   12562 data
REM    328 parameters refined using      0 restraints

END

WGHT      0.1235     32.1083

REM Highest difference peak  1.328,  deepest hole -0.627,  1-sigma level  0.092
Q1    1   0.7457  0.2322  0.5000  10.50000  0.05    1.33
Q2    1   0.9221  0.0542  0.5000  10.50000  0.05    0.60
Q3    1   0.7977  0.2233  0.5000  10.50000  0.05    0.51
Q4    1   0.8920  0.1292  0.0000  10.50000  0.05    0.51
Q5    1   0.9439  0.0652  0.5364  11.00000  0.05    0.49
Q6    1   0.9364  0.0621  0.4705  11.00000  0.05    0.46
Q7    1   0.9651  0.1948  0.3698  11.00000  0.05    0.46
Q8    1   1.0403  0.2752  0.2185  11.00000  0.05    0.45
Q9    1   1.0844  0.1516  0.0288  11.00000  0.05    0.45
Q10   1   0.9151  0.0816  0.5000  10.50000  0.05    0.43
Q11   1   0.9530  0.3933  0.2525  11.00000  0.05    0.42
Q12   1   0.8578  0.1011  0.5000  10.50000  0.05    0.41
Q13   1   0.9340  0.4365  0.2006  11.00000  0.05    0.41
Q14   1   0.9747  0.2100  0.3305  11.00000  0.05    0.41
Q15   1   1.0316  0.2118  0.1455  11.00000  0.05    0.41
Q16   1   0.9922  0.2165  0.3401  11.00000  0.05    0.41
Q17   1   0.9569  0.3492  0.2399  11.00000  0.05    0.39
Q18   1   1.0106  0.2770  0.2785  11.00000  0.05    0.38
Q19   1   0.9314  0.1773  0.4683  11.00000  0.05    0.37
Q20   1   0.9531  0.3838  0.2604  11.00000  0.05    0.36
;
_shelx_res_checksum              4425
_shelx_fab_file
;
    1    1    0    316.74      0.00
    1    2    0   -104.24      0.00
    0    2    0    -42.09      0.00
    2    2    0    -91.45      0.00
    2    3    0    116.52      0.00
    1    3    0    150.65      0.00
    3    3    0   -218.74      0.00
    3    4    0   -170.99      0.00
    2    4    0      5.16      0.00
    1    4    0    -79.11      0.00
    0    4    0   -204.02      0.00
    4    4    0     94.33      0.00
    4    5    0    156.16      0.00
    3    5    0     11.79      0.00
    2    5    0     74.05      0.00
    1    5    0    -59.62      0.00
    5    5    0    118.39      0.00
    5    6    0     16.90      0.00
    4    6    0    103.04      0.00
    3    6    0    -19.64      0.00
    2    6    0    144.16      0.00
    1    6    0    -36.24      0.00
    0    6    0     41.04      0.00
    6    6    0    116.57      0.00
    6    7    0    -97.29      0.00
    5    7    0   -218.29      0.00
    4    7    0    -70.21      0.00
    3    7    0    186.19      0.00
    2    7    0     -4.76      0.00
    1    7    0     81.65      0.00
    7    7    0    -22.51      0.00
    7    8    0    -30.91      0.00
    6    8    0     14.52      0.00
    5    8    0     21.45      0.00
    4    8    0     97.29      0.00
    3    8    0     69.01      0.00
    2    8    0     58.75      0.00
    1    8    0    -22.94      0.00
    0    8    0    -53.01      0.00
    8    8    0      4.16      0.00
    8    9    0     -9.44      0.00
    7    9    0     31.41      0.00
    6    9    0    -17.64      0.00
    5    9    0    -10.76      0.00
    4    9    0    -31.81      0.00
    3    9    0    -24.07      0.00
    2    9    0     -2.42      0.00
    1    9    0     36.93      0.00
    9    9    0      2.05      0.00
    9   10    0    -48.08      0.00
    8   10    0      4.14      0.00
    7   10    0      9.39      0.00
    6   10    0    -36.72      0.00
    5   10    0     -9.53      0.00
    4   10    0    117.93      0.00
    3   10    0    -17.12      0.00
    2   10    0    -31.95      0.00
    1   10    0     69.38      0.00
    0   10    0      1.08      0.00
   10   10    0     39.97      0.00
   10   11    0     12.28      0.00
    9   11    0      1.34      0.00
    8   11    0      0.99      0.00
    7   11    0      5.22      0.00
    6   11    0     18.23      0.00
    5   11    0    -11.55      0.00
    4   11    0      0.30      0.00
    3   11    0     -0.77      0.00
    2   11    0    -19.30      0.00
    1   11    0    -32.22      0.00
   11   11    0     38.88      0.00
   11   12    0     -5.32      0.00
   10   12    0    -20.71      0.00
    9   12    0     -3.82      0.00
    8   12    0     -6.45      0.00
    7   12    0    -12.70      0.00
    6   12    0     39.25      0.00
    5   12    0    -11.62      0.00
    4   12    0     19.53      0.00
    3   12    0     27.27      0.00
    2   12    0     -1.78      0.00
    1   12    0     26.16      0.00
    0   12    0    -49.20      0.00
   12   12    0     21.92      0.00
   12   13    0      1.90      0.00
   11   13    0     17.25      0.00
   10   13    0     -7.12      0.00
    9   13    0     22.00      0.00
    8   13    0     10.53      0.00
    7   13    0    -24.42      0.00
    6   13    0     13.41      0.00
    5   13    0      9.86      0.00
    4   13    0     -1.73      0.00
    3   13    0     28.41      0.00
    2   13    0    -16.97      0.00
    1   13    0     -4.64      0.00
   13   13    0    -25.64      0.00
   13   14    0     -7.05      0.00
   12   14    0     13.77      0.00
   11   14    0     11.53      0.00
   10   14    0     -3.75      0.00
    9   14    0     -6.50      0.00
    8   14    0    -16.52      0.00
    7   14    0      2.44      0.00
    6   14    0     -4.85      0.00
    5   14    0     31.68      0.00
    4   14    0      9.01      0.00
    3   14    0     10.42      0.00
    2   14    0      8.27      0.00
    1   14    0     -0.79      0.00
    0   14    0     13.96      0.00
   14   14    0     -6.94      0.00
   14   15    0     -7.17      0.00
   13   15    0      0.34      0.00
   12   15    0     -6.45      0.00
   11   15    0     -8.52      0.00
   10   15    0      9.33      0.00
    9   15    0     -1.45      0.00
    8   15    0     14.78      0.00
    7   15    0     14.58      0.00
    6   15    0      1.87      0.00
    5   15    0     18.85      0.00
    4   15    0     32.25      0.00
    3   15    0      0.76      0.00
    2   15    0     10.55      0.00
    1   15    0    -13.38      0.00
   15   15    0     -7.95      0.00
   15   16    0      3.53      0.00
   14   16    0      2.90      0.00
   13   16    0     13.99      0.00
   12   16    0      1.73      0.00
   11   16    0     -1.16      0.00
   10   16    0     12.86      0.00
    9   16    0    -11.76      0.00
    8   16    0     -4.62      0.00
    7   16    0     10.43      0.00
    6   16    0      0.35      0.00
    5   16    0     12.36      0.00
    4   16    0      2.93      0.00
    3   16    0     31.60      0.00
    2   16    0     10.71      0.00
    1   16    0     17.29      0.00
    0   16    0    -14.08      0.00
   16   16    0     -0.61      0.00
   16   17    0    -11.49      0.00
   15   17    0     -0.76      0.00
   14   17    0     -3.44      0.00
   13   17    0      2.19      0.00
   12   17    0     -3.07      0.00
   11   17    0     -4.09      0.00
   10   17    0     -7.24      0.00
    9   17    0     -4.10      0.00
    8   17    0      1.35      0.00
    7   17    0     11.52      0.00
    6   17    0      5.95      0.00
    5   17    0     -3.91      0.00
    4   17    0     10.94      0.00
    3   17    0      4.79      0.00
    2   17    0      3.17      0.00
    1   17    0     -7.96      0.00
   17   17    0     -2.07      0.00
   17   18    0     -4.15      0.00
   16   18    0      1.07      0.00
   15   18    0      4.16      0.00
   14   18    0      3.04      0.00
   13   18    0      6.61      0.00
   12   18    0     13.71      0.00
   11   18    0     -2.43      0.00
   10   18    0     -6.15      0.00
    9   18    0      3.13      0.00
    8   18    0     -1.08      0.00
    7   18    0      5.71      0.00
    6   18    0     -2.63      0.00
    5   18    0    -10.29      0.00
    4   18    0     -1.61      0.00
    3   18    0      8.85      0.00
    2   18    0     -2.81      0.00
    1   18    0     10.95      0.00
    0   18    0     12.95      0.00
   18   18    0     -8.33      0.00
   18   19    0      0.14      0.00
   17   19    0     -4.31      0.00
   16   19    0      4.95      0.00
   15   19    0      1.74      0.00
   14   19    0     -7.66      0.00
   13   19    0     -4.12      0.00
   12   19    0     -3.50      0.00
   11   19    0      2.19      0.00
   10   19    0     -6.61      0.00
    9   19    0      0.04      0.00
    8   19    0     -4.43      0.00
    7   19    0     -2.40      0.00
    6   19    0     11.95      0.00
    5   19    0      5.20      0.00
    4   19    0      0.06      0.00
    3   19    0     16.85      0.00
    2   19    0     -5.00      0.00
    1   19    0    -10.73      0.00
   19   19    0      9.40      0.00
   19   20    0      0.58      0.00
   18   20    0      2.41      0.00
   17   20    0     -6.99      0.00
   16   20    0     -4.72      0.00
   15   20    0     -1.84      0.00
   14   20    0      1.78      0.00
   13   20    0      3.15      0.00
   12   20    0     -0.27      0.00
   11   20    0      1.07      0.00
   10   20    0      7.54      0.00
    9   20    0     11.47      0.00
    8   20    0     -1.76      0.00
    7   20    0     -5.22      0.00
    6   20    0      3.34      0.00
    5   20    0      5.91      0.00
    4   20    0    -12.86      0.00
    3   20    0    -18.71      0.00
    2   20    0     12.15      0.00
    1   20    0     -5.59      0.00
    0   20    0      2.69      0.00
   20   20    0      0.32      0.00
   20   21    0    -11.33      0.00
   19   21    0      0.04      0.00
   18   21    0     -3.60      0.00
   17   21    0      0.18      0.00
   16   21    0      8.44      0.00
   15   21    0      0.68      0.00
   14   21    0      4.49      0.00
   13   21    0     -6.05      0.00
   12   21    0     -7.36      0.00
   11   21    0     -1.88      0.00
   10   21    0     -6.08      0.00
    9   21    0      3.30      0.00
    8   21    0      6.18      0.00
    7   21    0      7.11      0.00
    6   21    0     -1.83      0.00
    5   21    0      1.94      0.00
    4   21    0     11.02      0.00
    3   21    0      2.30      0.00
    2   21    0      8.25      0.00
    1   21    0      3.32      0.00
   21   21    0      0.91      0.00
   21   22    0     -4.76      0.00
   20   22    0     -1.36      0.00
   19   22    0      7.67      0.00
   18   22    0      1.81      0.00
   17   22    0      0.89      0.00
   16   22    0     -8.44      0.00
   15   22    0      5.99      0.00
   14   22    0      1.78      0.00
   13   22    0    -15.31      0.00
   12   22    0      0.18      0.00
   11   22    0      8.43      0.00
   10   22    0      2.05      0.00
    9   22    0     -4.91      0.00
    8   22    0      1.24      0.00
    7   22    0      3.17      0.00
    6   22    0      7.13      0.00
    5   22    0      1.67      0.00
    4   22    0      1.75      0.00
    3   22    0      2.10      0.00
    2   22    0     -2.37      0.00
    1   22    0     -8.83      0.00
    0   22    0     -7.49      0.00
   22   22    0     -0.32      0.00
   22   23    0      0.20      0.00
   21   23    0      4.31      0.00
   20   23    0      0.17      0.00
   19   23    0     -0.72      0.00
   18   23    0     -2.28      0.00
   17   23    0      1.34      0.00
   16   23    0      6.41      0.00
   15   23    0     -5.48      0.00
   14   23    0      3.17      0.00
   13   23    0      3.58      0.00
   12   23    0     -2.90      0.00
   11   23    0     -1.14      0.00
   10   23    0      4.58      0.00
    9   23    0      2.10      0.00
    8   23    0      0.58      0.00
    7   23    0     -0.11      0.00
    6   23    0    -12.81      0.00
    5   23    0      2.35      0.00
    4   23    0      6.66      0.00
    3   23    0      2.69      0.00
    2   23    0     10.73      0.00
    1   23    0     -0.88      0.00
   23   23    0      5.11      0.00
   23   24    0     -9.25      0.00
   22   24    0     -5.08      0.00
   21   24    0     -9.20      0.00
   20   24    0      3.66      0.00
   19   24    0      3.34      0.00
   18   24    0      7.13      0.00
   17   24    0     -5.03      0.00
   16   24    0     -0.99      0.00
   15   24    0     -6.64      0.00
   14   24    0      4.16      0.00
   13   24    0      5.53      0.00
   12   24    0      3.33      0.00
   11   24    0     -2.03      0.00
   10   24    0      0.34      0.00
    9   24    0      8.99      0.00
    8   24    0      3.74      0.00
    7   24    0      2.66      0.00
    6   24    0     -1.13      0.00
    5   24    0     -2.93      0.00
    4   24    0     -4.66      0.00
    3   24    0      5.23      0.00
    2   24    0     -2.06      0.00
    1   24    0     11.64      0.00
    0   24    0      8.29      0.00
   24   24    0      5.52      0.00
   24   25    0     -6.23      0.00
   23   25    0     -1.54      0.00
   22   25    0     -4.20      0.00
   21   25    0      1.62      0.00
   20   25    0      4.14      0.00
   19   25    0      4.24      0.00
   18   25    0      3.47      0.00
   17   25    0     -0.27      0.00
   16   25    0     -0.50      0.00
   15   25    0      2.46      0.00
   14   25    0     -2.68      0.00
   13   25    0      4.18      0.00
   12   25    0     -4.30      0.00
   11   25    0      6.30      0.00
   10   25    0      5.55      0.00
    9   25    0     -7.81      0.00
    8   25    0     -5.76      0.00
    7   25    0      1.47      0.00
    6   25    0      6.39      0.00
    5   25    0     13.00      0.00
    4   25    0      0.17      0.00
    3   25    0     -2.10      0.00
    2   25    0     -9.83      0.00
    1   25    0      2.65      0.00
   25   25    0      5.00      0.00
   25   26    0     -6.38      0.00
   24   26    0     -2.16      0.00
   23   26    0     -8.85      0.00
   22   26    0     -0.18      0.00
   21   26    0     -2.85      0.00
   20   26    0      0.56      0.00
   19   26    0      3.95      0.00
   18   26    0     -1.74      0.00
   17   26    0    -11.39      0.00
   16   26    0     -1.25      0.00
   15   26    0      5.37      0.00
   14   26    0      0.31      0.00
   13   26    0      7.92      0.00
   12   26    0      3.52      0.00
   11   26    0      7.96      0.00
   10   26    0     -0.86      0.00
    9   26    0     -4.80      0.00
    8   26    0      0.83      0.00
    7   26    0      7.50      0.00
    6   26    0      0.14      0.00
    5   26    0     -1.45      0.00
    4   26    0      6.81      0.00
    3   26    0     -9.56      0.00
    2   26    0     -1.71      0.00
    1   26    0      8.74      0.00
    0   26    0      6.01      0.00
   26   26    0     16.10      0.00
   25   27    0     -2.49      0.00
   24   27    0      8.56      0.00
   23   27    0     -1.04      0.00
   22   27    0     -6.81      0.00
   21   27    0     -1.62      0.00
   20   27    0      3.57      0.00
   19   27    0      0.54      0.00
   18   27    0     -6.29      0.00
   17   27    0     -2.01      0.00
   16   27    0     -0.75      0.00
   15   27    0     -3.25      0.00
   14   27    0      3.14      0.00
   13   27    0      3.66      0.00
   12   27    0     -6.90      0.00
   11   27    0      0.57      0.00
   10   27    0      4.67      0.00
    9   27    0      0.97      0.00
    8   27    0     -3.32      0.00
    7   27    0    -12.14      0.00
    6   27    0    -14.14      0.00
    5   27    0      2.65      0.00
    4   27    0     -0.20      0.00
    3   27    0      2.84      0.00
    2   27    0      1.03      0.00
    1   27    0      6.89      0.00
   24   28    0     -6.50      0.00
   23   28    0     -6.54      0.00
   22   28    0     -0.52      0.00
   21   28    0      7.80      0.00
   20   28    0     -0.51      0.00
   19   28    0     -1.16      0.00
   18   28    0      0.92      0.00
   17   28    0    -10.82      0.00
   16   28    0     -8.27      0.00
   15   28    0     -3.60      0.00
   14   28    0     -1.92      0.00
   13   28    0     -1.97      0.00
   12   28    0      2.40      0.00
   11   28    0      1.20      0.00
   10   28    0     -4.51      0.00
    9   28    0     -4.31      0.00
    8   28    0     -0.48      0.00
    7   28    0      0.56      0.00
    6   28    0     -2.59      0.00
    5   28    0      1.85      0.00
    4   28    0      4.96      0.00
    3   28    0     -1.63      0.00
    2   28    0      4.07      0.00
    1   28    0     -3.25      0.00
    0   28    0     -2.79      0.00
   23   29    0      1.93      0.00
   22   29    0     14.38      0.00
   21   29    0     -2.82      0.00
   20   29    0     -3.90      0.00
   19   29    0      2.44      0.00
   18   29    0      1.24      0.00
   17   29    0     -7.55      0.00
   16   29    0     -2.65      0.00
   15   29    0      5.85      0.00
   14   29    0      3.72      0.00
   13   29    0      1.84      0.00
   12   29    0      2.84      0.00
   11   29    0      4.68      0.00
   10   29    0     -1.56      0.00
    9   29    0     -5.17      0.00
    8   29    0      7.09      0.00
    7   29    0     -3.63      0.00
    6   29    0      3.25      0.00
    5   29    0     -4.82      0.00
    4   29    0     -2.14      0.00
    3   29    0      5.25      0.00
    2   29    0      1.37      0.00
    1   29    0      0.61      0.00
   22   30    0      3.07      0.00
   21   30    0     10.46      0.00
   20   30    0      5.17      0.00
   19   30    0      0.50      0.00
   18   30    0     -1.05      0.00
   17   30    0      6.78      0.00
   16   30    0      8.63      0.00
   15   30    0      1.01      0.00
   14   30    0      9.67      0.00
   13   30    0     -9.06      0.00
   12   30    0      3.60      0.00
   11   30    0     -2.32      0.00
   10   30    0     -3.37      0.00
    9   30    0     -3.51      0.00
    8   30    0      2.49      0.00
    7   30    0      1.68      0.00
    6   30    0     -2.82      0.00
    5   30    0      6.18      0.00
    4   30    0      7.93      0.00
    3   30    0     -4.78      0.00
    2   30    0    -11.19      0.00
    1   30    0      0.69      0.00
    0   30    0     -0.92      0.00
   20   31    0      5.79      0.00
   19   31    0     -8.15      0.00
   18   31    0    -21.41      0.00
   17   31    0     -3.36      0.00
   16   31    0     -5.44      0.00
   15   31    0     -0.50      0.00
   14   31    0      3.86      0.00
   13   31    0    -14.13      0.00
   12   31    0      2.01      0.00
   11   31    0      3.19      0.00
   10   31    0     -7.91      0.00
    9   31    0      7.01      0.00
    8   31    0     -2.39      0.00
    7   31    0     -5.91      0.00
    6   31    0      0.26      0.00
    5   31    0      3.95      0.00
    4   31    0      5.93      0.00
    3   31    0      0.61      0.00
    2   31    0     -2.74      0.00
    1   31    0      2.24      0.00
   19   32    0     -2.60      0.00
   18   32    0      4.29      0.00
   17   32    0     -2.69      0.00
   16   32    0      7.73      0.00
   15   32    0      0.10      0.00
   14   32    0      5.87      0.00
   13   32    0     -2.82      0.00
   12   32    0      7.59      0.00
   11   32    0     -5.16      0.00
   10   32    0      1.87      0.00
    9   32    0     -9.22      0.00
    8   32    0     -2.92      0.00
    7   32    0     -2.43      0.00
    6   32    0      3.50      0.00
    5   32    0     -4.62      0.00
    4   32    0      7.31      0.00
    3   32    0      9.31      0.00
    2   32    0      2.09      0.00
    1   32    0      0.06      0.00
    0   32    0      2.95      0.00
   17   33    0     -2.28      0.00
   16   33    0      6.68      0.00
   15   33    0     -1.55      0.00
   14   33    0      2.47      0.00
   13   33    0      4.89      0.00
   12   33    0     -2.49      0.00
   11   33    0     -1.42      0.00
   10   33    0      6.50      0.00
    9   33    0      0.52      0.00
    8   33    0      4.41      0.00
    7   33    0      4.76      0.00
    6   33    0     -5.73      0.00
    5   33    0      2.21      0.00
    4   33    0    -12.91      0.00
    3   33    0     -2.24      0.00
    2   33    0     -9.58      0.00
    1   33    0      0.73      0.00
   15   34    0      0.35      0.00
   14   34    0      5.79      0.00
   13   34    0      3.13      0.00
   12   34    0      3.21      0.00
   11   34    0     -8.78      0.00
   10   34    0      0.28      0.00
    9   34    0      6.54      0.00
    8   34    0     -4.76      0.00
    7   34    0      3.41      0.00
    6   34    0     -2.49      0.00
    5   34    0     -3.81      0.00
    4   34    0     -2.35      0.00
    3   34    0    -12.18      0.00
    2   34    0     -5.64      0.00
    1   34    0     11.79      0.00
    0   34    0      5.90      0.00
   13   35    0    -30.23      0.00
   12   35    0    -24.00      0.00
   11   35    0     -5.01      0.00
   10   35    0     -3.82      0.00
    9   35    0     12.03      0.00
    8   35    0     -6.62      0.00
    7   35    0     -2.50      0.00
    6   35    0     -3.81      0.00
    5   35    0     -9.72      0.00
    4   35    0     -7.85      0.00
    3   35    0      3.82      0.00
    2   35    0    -17.82      0.00
    1   35    0      4.29      0.00
    9   36    0      0.92      0.00
    8   36    0     -9.87      0.00
    7   36    0     -8.10      0.00
    6   36    0     -0.48      0.00
    5   36    0     -9.56      0.00
    4   36    0    -14.61      0.00
    3   36    0     -2.30      0.00
    2   36    0      0.97      0.00
    1   36    0     -4.47      0.00
    0   36    0      4.50      0.00
    5   37    0     22.13      0.00
    4   37    0     -0.73      0.00
    3   37    0     -8.30      0.00
    2   37    0    -13.50      0.00
    1   37    0      2.08      0.00
    1    2    1    462.69      0.00
    0    2    1    -75.31      0.00
    2    3    1    -40.10      0.00
    1    3    1    -13.49      0.00
    3    4    1   -138.52      0.00
    2    4    1     56.02      0.00
    1    4    1    178.40      0.00
    0    4    1     36.80      0.00
    4    5    1   -200.67      0.00
    3    5    1     96.50      0.00
    2    5    1    118.64      0.00
    1    5    1     19.16      0.00
    5    6    1    -52.77      0.00
    4    6    1    -52.02      0.00
    3    6    1    -66.95      0.00
    2    6    1    -65.43      0.00
    1    6    1    -37.38      0.00
    0    6    1     18.33      0.00
    6    7    1     -2.68      0.00
    5    7    1     21.80      0.00
    4    7    1    -13.48      0.00
    3    7    1     17.61      0.00
    2    7    1     34.27      0.00
    1    7    1     34.14      0.00
    7    8    1    -20.52      0.00
    6    8    1     18.56      0.00
    5    8    1     -7.77      0.00
    4    8    1     10.88      0.00
    3    8    1     67.86      0.00
    2    8    1     24.77      0.00
    1    8    1     24.97      0.00
    0    8    1    -26.21      0.00
    8    9    1     11.46      0.00
    7    9    1    -18.57      0.00
    6    9    1     -4.15      0.00
    5    9    1     -8.13      0.00
    4    9    1    -11.58      0.00
    3    9    1    -13.22      0.00
    2    9    1     -8.97      0.00
    1    9    1    -13.75      0.00
    9   10    1      2.09      0.00
    8   10    1     -5.23      0.00
    7   10    1      4.76      0.00
    6   10    1      1.07      0.00
    5   10    1    -10.01      0.00
    4   10    1     26.08      0.00
    3   10    1     34.26      0.00
    2   10    1    -35.01      0.00
    1   10    1     19.31      0.00
    0   10    1     -4.32      0.00
   10   11    1     17.40      0.00
    9   11    1      5.40      0.00
    8   11    1     -1.65      0.00
    7   11    1      7.12      0.00
    6   11    1     -1.48      0.00
    5   11    1      1.31      0.00
    4   11    1     13.50      0.00
    3   11    1      2.44      0.00
    2   11    1      5.07      0.00
    1   11    1      1.05      0.00
   11   12    1     -1.15      0.00
   10   12    1      0.58      0.00
    9   12    1      6.47      0.00
    8   12    1     -3.79      0.00
    7   12    1    -10.09      0.00
    6   12    1     -8.52      0.00
    5   12    1     12.36      0.00
    4   12    1    -12.58      0.00
    3   12    1     -4.18      0.00
    2   12    1     18.22      0.00
    1   12    1      7.89      0.00
    0   12    1     -9.70      0.00
   12   13    1      5.12      0.00
   11   13    1     -0.20      0.00
   10   13    1      0.55      0.00
    9   13    1     -5.42      0.00
    8   13    1     16.56      0.00
    7   13    1      4.46      0.00
    6   13    1     -6.20      0.00
    5   13    1     27.47      0.00
    4   13    1     -0.02      0.00
    3   13    1      8.62      0.00
    2   13    1    -12.22      0.00
    1   13    1    -15.08      0.00
   13   14    1      0.91      0.00
   12   14    1      2.00      0.00
   11   14    1     -6.10      0.00
   10   14    1     -5.15      0.00
    9   14    1    -13.29      0.00
    8   14    1      4.26      0.00
    7   14    1     -6.95      0.00
    6   14    1    -15.35      0.00
    5   14    1      4.55      0.00
    4   14    1     -3.49      0.00
    3   14    1     12.08      0.00
    2   14    1      9.75      0.00
    1   14    1     16.94      0.00
    0   14    1     20.96      0.00
   14   15    1    -17.80      0.00
   13   15    1      5.19      0.00
   12   15    1    -10.28      0.00
   11   15    1     -8.16      0.00
   10   15    1     -2.11      0.00
    9   15    1      3.00      0.00
    8   15    1    -10.56      0.00
    7   15    1     -1.23      0.00
    6   15    1      8.19      0.00
    5   15    1      2.38      0.00
    4   15    1      2.07      0.00
    3   15    1      0.32      0.00
    2   15    1     -7.97      0.00
    1   15    1      1.65      0.00
   15   16    1     -7.00      0.00
   14   16    1      4.56      0.00
   13   16    1      7.50      0.00
   12   16    1      4.23      0.00
   11   16    1     -4.47      0.00
   10   16    1      1.15      0.00
    9   16    1      4.80      0.00
    8   16    1    -10.44      0.00
    7   16    1     -2.30      0.00
    6   16    1      7.50      0.00
    5   16    1     -8.31      0.00
    4   16    1     -6.80      0.00
    3   16    1     -7.54      0.00
    2   16    1      9.96      0.00
    1   16    1     -9.04      0.00
    0   16    1     -8.59      0.00
   16   17    1      0.55      0.00
   15   17    1      5.14      0.00
   14   17    1      1.59      0.00
   13   17    1     -2.10      0.00
   12   17    1      7.14      0.00
   11   17    1     -4.68      0.00
   10   17    1     -4.29      0.00
    9   17    1     -7.88      0.00
    8   17    1     -4.33      0.00
    7   17    1      5.88      0.00
    6   17    1     -2.40      0.00
    5   17    1      4.14      0.00
    4   17    1     -7.61      0.00
    3   17    1     -7.94      0.00
    2   17    1     14.50      0.00
    1   17    1     -3.05      0.00
   17   18    1      4.53      0.00
   16   18    1     -2.20      0.00
   15   18    1      3.20      0.00
   14   18    1      3.98      0.00
   13   18    1      1.09      0.00
   12   18    1      2.05      0.00
   11   18    1      4.07      0.00
   10   18    1     -2.07      0.00
    9   18    1     12.91      0.00
    8   18    1      2.31      0.00
    7   18    1      1.53      0.00
    6   18    1    -13.14      0.00
    5   18    1      1.38      0.00
    4   18    1     11.91      0.00
    3   18    1     -5.22      0.00
    2   18    1     -2.82      0.00
    1   18    1     -8.63      0.00
    0   18    1      5.42      0.00
   18   19    1     -4.57      0.00
   17   19    1      2.48      0.00
   16   19    1     -3.27      0.00
   15   19    1     -0.44      0.00
   14   19    1      3.69      0.00
   13   19    1      6.54      0.00
   12   19    1     -3.49      0.00
   11   19    1     -7.06      0.00
   10   19    1     -2.57      0.00
    9   19    1     -2.77      0.00
    8   19    1      4.38      0.00
    7   19    1     -3.64      0.00
    6   19    1     -4.30      0.00
    5   19    1      8.26      0.00
    4   19    1      6.21      0.00
    3   19    1     -1.92      0.00
    2   19    1     -5.36      0.00
    1   19    1      0.82      0.00
   19   20    1     -5.76      0.00
   18   20    1      6.16      0.00
   17   20    1      1.02      0.00
   16   20    1     -1.70      0.00
   15   20    1      0.29      0.00
   14   20    1      1.19      0.00
   13   20    1      4.27      0.00
   12   20    1     -4.88      0.00
   11   20    1     -2.72      0.00
   10   20    1      5.12      0.00
    9   20    1     -4.08      0.00
    8   20    1      5.04      0.00
    7   20    1     -2.58      0.00
    6   20    1     -1.76      0.00
    5   20    1      1.51      0.00
    4   20    1      3.94      0.00
    3   20    1     -8.64      0.00
    2   20    1      7.26      0.00
    1   20    1      8.36      0.00
    0   20    1     -6.34      0.00
   20   21    1     -0.11      0.00
   19   21    1      2.37      0.00
   18   21    1     -3.58      0.00
   17   21    1     -3.26      0.00
   16   21    1      4.86      0.00
   15   21    1      4.96      0.00
   14   21    1     -0.76      0.00
   13   21    1      4.70      0.00
   12   21    1     -2.66      0.00
   11   21    1      2.63      0.00
   10   21    1     -2.81      0.00
    9   21    1     -3.57      0.00
    8   21    1     -0.36      0.00
    7   21    1     -1.95      0.00
    6   21    1     -2.22      0.00
    5   21    1     -1.52      0.00
    4   21    1      9.15      0.00
    3   21    1     -2.11      0.00
    2   21    1      3.10      0.00
    1   21    1      3.11      0.00
   21   22    1      3.83      0.00
   20   22    1     -8.04      0.00
   19   22    1     -1.99      0.00
   18   22    1     11.55      0.00
   17   22    1     -5.11      0.00
   16   22    1      2.46      0.00
   15   22    1      5.53      0.00
   14   22    1     -5.76      0.00
   13   22    1     -1.09      0.00
   12   22    1     -5.54      0.00
   11   22    1     -0.56      0.00
   10   22    1      3.33      0.00
    9   22    1      1.91      0.00
    8   22    1     -2.77      0.00
    7   22    1      2.66      0.00
    6   22    1     -2.25      0.00
    5   22    1     -5.58      0.00
    4   22    1      2.38      0.00
    3   22    1      6.27      0.00
    2   22    1     -0.34      0.00
    1   22    1     -8.92      0.00
    0   22    1     -0.57      0.00
   22   23    1      4.37      0.00
   21   23    1      0.04      0.00
   20   23    1     -2.34      0.00
   19   23    1      0.80      0.00
   18   23    1      3.63      0.00
   17   23    1      5.63      0.00
   16   23    1      2.76      0.00
   15   23    1     -4.70      0.00
   14   23    1     -8.30      0.00
   13   23    1      0.98      0.00
   12   23    1      0.47      0.00
   11   23    1     -0.63      0.00
   10   23    1     -4.72      0.00
    9   23    1      5.87      0.00
    8   23    1     -6.03      0.00
    7   23    1     -6.06      0.00
    6   23    1     -7.93      0.00
    5   23    1      5.24      0.00
    4   23    1     -3.82      0.00
    3   23    1      2.71      0.00
    2   23    1      1.12      0.00
    1   23    1     -0.09      0.00
   23   24    1     -0.83      0.00
   22   24    1     -2.05      0.00
   21   24    1     -3.21      0.00
   20   24    1     -2.83      0.00
   19   24    1     -6.27      0.00
   18   24    1     -4.48      0.00
   17   24    1     -9.66      0.00
   16   24    1     -4.28      0.00
   15   24    1      8.60      0.00
   14   24    1      0.23      0.00
   13   24    1      5.46      0.00
   12   24    1      3.40      0.00
   11   24    1     -5.61      0.00
   10   24    1     -5.13      0.00
    9   24    1      6.21      0.00
    8   24    1      0.98      0.00
    7   24    1      0.02      0.00
    6   24    1      2.37      0.00
    5   24    1     -5.36      0.00
    4   24    1      9.09      0.00
    3   24    1     -2.56      0.00
    2   24    1     -2.02      0.00
    1   24    1      1.95      0.00
    0   24    1     -0.22      0.00
   24   25    1     -0.70      0.00
   23   25    1      1.13      0.00
   22   25    1     -0.17      0.00
   21   25    1     -6.27      0.00
   20   25    1     -1.90      0.00
   19   25    1      1.85      0.00
   18   25    1      2.85      0.00
   17   25    1      3.89      0.00
   16   25    1     -5.45      0.00
   15   25    1     -2.80      0.00
   14   25    1      1.04      0.00
   13   25    1      6.33      0.00
   12   25    1      5.19      0.00
   11   25    1     -5.00      0.00
   10   25    1      0.57      0.00
    9   25    1     -1.33      0.00
    8   25    1     -3.36      0.00
    7   25    1     -1.12      0.00
    6   25    1     -3.76      0.00
    5   25    1      5.48      0.00
    4   25    1      4.14      0.00
    3   25    1      2.36      0.00
    2   25    1      4.54      0.00
    1   25    1     -2.95      0.00
   25   26    1      1.96      0.00
   24   26    1     -3.90      0.00
   23   26    1     -7.90      0.00
   22   26    1      6.17      0.00
   21   26    1      1.14      0.00
   20   26    1      4.36      0.00
   19   26    1      2.07      0.00
   18   26    1    -13.03      0.00
   17   26    1     -2.38      0.00
   16   26    1     -9.88      0.00
   15   26    1      3.07      0.00
   14   26    1      2.51      0.00
   13   26    1     -0.20      0.00
   12   26    1     -7.63      0.00
   11   26    1     -2.04      0.00
   10   26    1      6.50      0.00
    9   26    1     -1.15      0.00
    8   26    1     -1.61      0.00
    7   26    1      5.31      0.00
    6   26    1      0.69      0.00
    5   26    1     -7.85      0.00
    4   26    1      2.05      0.00
    3   26    1     -7.85      0.00
    2   26    1     -4.03      0.00
    1   26    1      1.66      0.00
    0   26    1     -2.89      0.00
   25   27    1     -4.10      0.00
   24   27    1     -5.91      0.00
   23   27    1      3.45      0.00
   22   27    1     14.97      0.00
   21   27    1      4.37      0.00
   20   27    1     -0.47      0.00
   19   27    1     -0.65      0.00
   18   27    1      9.66      0.00
   17   27    1      2.62      0.00
   16   27    1     -4.65      0.00
   15   27    1      0.92      0.00
   14   27    1      3.79      0.00
   13   27    1     -2.98      0.00
   12   27    1      1.90      0.00
   11   27    1      0.09      0.00
   10   27    1      1.20      0.00
    9   27    1     -2.54      0.00
    8   27    1      0.43      0.00
    7   27    1      2.65      0.00
    6   27    1      0.10      0.00
    5   27    1     -1.86      0.00
    4   27    1     -3.10      0.00
    3   27    1     -8.02      0.00
    2   27    1     -4.25      0.00
    1   27    1      0.42      0.00
   24   28    1     -0.58      0.00
   23   28    1      9.04      0.00
   22   28    1      6.19      0.00
   21   28    1     -0.18      0.00
   20   28    1      3.57      0.00
   19   28    1      0.76      0.00
   18   28    1      3.08      0.00
   17   28    1    -12.57      0.00
   16   28    1     -4.83      0.00
   15   28    1     -2.05      0.00
   14   28    1      2.53      0.00
   13   28    1     -1.25      0.00
   12   28    1      1.43      0.00
   11   28    1     -0.33      0.00
   10   28    1     -6.55      0.00
    9   28    1      2.56      0.00
    8   28    1     -0.11      0.00
    7   28    1      1.00      0.00
    6   28    1      0.83      0.00
    5   28    1     -3.21      0.00
    4   28    1      8.33      0.00
    3   28    1      4.50      0.00
    2   28    1      1.43      0.00
    1   28    1     -1.67      0.00
    0   28    1     -7.49      0.00
   23   29    1      4.14      0.00
   22   29    1     -0.83      0.00
   21   29    1     -9.71      0.00
   20   29    1      1.33      0.00
   19   29    1     -3.26      0.00
   18   29    1      3.02      0.00
   17   29    1      2.07      0.00
   16   29    1     -5.83      0.00
   15   29    1      8.53      0.00
   14   29    1     12.84      0.00
   13   29    1      3.78      0.00
   12   29    1     -0.28      0.00
   11   29    1      4.68      0.00
   10   29    1     -1.93      0.00
    9   29    1      2.43      0.00
    8   29    1     -4.20      0.00
    7   29    1     -1.11      0.00
    6   29    1      6.76      0.00
    5   29    1     -5.41      0.00
    4   29    1      7.31      0.00
    3   29    1      3.83      0.00
    2   29    1     -4.60      0.00
    1   29    1      3.32      0.00
   22   30    1     14.89      0.00
   21   30    1      7.00      0.00
   20   30    1      6.00      0.00
   19   30    1      7.41      0.00
   18   30    1      3.25      0.00
   17   30    1      2.87      0.00
   16   30    1      0.45      0.00
   15   30    1      6.47      0.00
   14   30    1     -0.58      0.00
   13   30    1     -0.90      0.00
   12   30    1      5.82      0.00
   11   30    1     -2.30      0.00
   10   30    1     -7.52      0.00
    9   30    1      6.46      0.00
    8   30    1      1.85      0.00
    7   30    1     -2.49      0.00
    6   30    1      4.13      0.00
    5   30    1      1.29      0.00
    4   30    1     -0.36      0.00
    3   30    1      2.52      0.00
    2   30    1     -0.17      0.00
    1   30    1     -2.51      0.00
    0   30    1      8.34      0.00
   20   31    1     -2.86      0.00
   19   31    1     -5.12      0.00
   18   31    1      1.19      0.00
   17   31    1     -4.90      0.00
   16   31    1     -2.38      0.00
   15   31    1      0.09      0.00
   14   31    1     13.29      0.00
   13   31    1      6.50      0.00
   12   31    1      1.09      0.00
   11   31    1     -7.04      0.00
   10   31    1      3.64      0.00
    9   31    1      2.83      0.00
    8   31    1     -8.77      0.00
    7   31    1      7.89      0.00
    6   31    1     -2.35      0.00
    5   31    1      3.47      0.00
    4   31    1      0.16      0.00
    3   31    1      0.51      0.00
    2   31    1      0.51      0.00
    1   31    1      2.20      0.00
   19   32    1     -8.71      0.00
   18   32    1      2.28      0.00
   17   32    1      4.83      0.00
   16   32    1      0.12      0.00
   15   32    1    -11.69      0.00
   14   32    1      3.54      0.00
   13   32    1      8.99      0.00
   12   32    1      1.09      0.00
   11   32    1     -1.58      0.00
   10   32    1     -3.53      0.00
    9   32    1     -5.75      0.00
    8   32    1      2.62      0.00
    7   32    1     -1.65      0.00
    6   32    1      5.50      0.00
    5   32    1     12.81      0.00
    4   32    1     -1.00      0.00
    3   32    1     -7.85      0.00
    2   32    1     -2.79      0.00
    1   32    1     -4.69      0.00
    0   32    1      7.67      0.00
   17   33    1     -9.25      0.00
   16   33    1      8.07      0.00
   15   33    1      1.30      0.00
   14   33    1     -4.52      0.00
   13   33    1      9.34      0.00
   12   33    1     -2.84      0.00
   11   33    1      1.89      0.00
   10   33    1      9.57      0.00
    9   33    1      2.30      0.00
    8   33    1     -2.31      0.00
    7   33    1      5.08      0.00
    6   33    1     -4.82      0.00
    5   33    1      7.20      0.00
    4   33    1      7.70      0.00
    3   33    1     -1.06      0.00
    2   33    1     -4.12      0.00
    1   33    1     11.13      0.00
   15   34    1     13.49      0.00
   14   34    1     -3.00      0.00
   13   34    1      1.89      0.00
   12   34    1      2.83      0.00
   11   34    1    -19.00      0.00
   10   34    1    -12.34      0.00
    9   34    1      1.41      0.00
    8   34    1      5.92      0.00
    7   34    1      7.30      0.00
    6   34    1     -2.01      0.00
    5   34    1     -0.19      0.00
    4   34    1      4.59      0.00
    3   34    1      3.03      0.00
    2   34    1      3.02      0.00
    1   34    1     -1.19      0.00
    0   34    1     -4.22      0.00
   12   35    1     -4.29      0.00
   11   35    1     14.02      0.00
   10   35    1      1.77      0.00
    9   35    1      0.29      0.00
    8   35    1      9.35      0.00
    7   35    1     -7.77      0.00
    6   35    1     20.45      0.00
    5   35    1    -11.26      0.00
    4   35    1      0.36      0.00
    3   35    1      6.22      0.00
    2   35    1     -4.67      0.00
    1   35    1     -1.22      0.00
    9   36    1     10.44      0.00
    8   36    1    -17.42      0.00
    7   36    1    -24.30      0.00
    6   36    1      2.04      0.00
    5   36    1      1.40      0.00
    4   36    1     -2.92      0.00
    3   36    1     10.60      0.00
    2   36    1     -8.45      0.00
    1   36    1      1.34      0.00
    0   36    1      6.83      0.00
    5   37    1     21.14      0.00
    4   37    1     10.06      0.00
    3   37    1     23.17      0.00
    2   37    1     -9.56      0.00
    1   37    1     -2.32      0.00
    0    0    2    404.04      0.00
    1    1    2   -431.85      0.00
    1    2    2      1.69      0.00
    0    2    2    244.22      0.00
    2    2    2   -343.31      0.00
    2    3    2     76.92      0.00
    1    3    2     30.54      0.00
    3    3    2    -21.99      0.00
    3    4    2    -42.94      0.00
    2    4    2   -135.47      0.00
    1    4    2     65.69      0.00
    0    4    2    311.85      0.00
    4    4    2    208.88      0.00
    4    5    2    104.61      0.00
    3    5    2    -20.60      0.00
    2    5    2    -52.78      0.00
    1    5    2     82.35      0.00
    5    5    2   -162.91      0.00
    5    6    2    -16.14      0.00
    4    6    2     56.61      0.00
    3    6    2      5.43      0.00
    2    6    2     -2.65      0.00
    1    6    2     97.89      0.00
    0    6    2    242.69      0.00
    6    6    2     11.86      0.00
    6    7    2    -24.50      0.00
    5    7    2      6.14      0.00
    4    7    2    -39.67      0.00
    3    7    2     -5.64      0.00
    2    7    2     57.54      0.00
    1    7    2    -85.74      0.00
    7    7    2      0.34      0.00
    7    8    2      3.63      0.00
    6    8    2     44.61      0.00
    5    8    2     17.84      0.00
    4    8    2      5.42      0.00
    3    8    2      9.74      0.00
    2    8    2      5.03      0.00
    1    8    2    -44.86      0.00
    0    8    2     -4.70      0.00
    8    8    2    -14.48      0.00
    8    9    2     19.23      0.00
    7    9    2      4.94      0.00
    6    9    2     -1.48      0.00
    5    9    2     17.74      0.00
    4    9    2    -16.70      0.00
    3    9    2    -41.49      0.00
    2    9    2     37.71      0.00
    1    9    2     40.60      0.00
    9    9    2      8.54      0.00
    9   10    2      7.46      0.00
    8   10    2      7.25      0.00
    7   10    2     -6.52      0.00
    6   10    2      3.80      0.00
    5   10    2    -33.29      0.00
    4   10    2     45.42      0.00
    3   10    2     33.89      0.00
    2   10    2     37.44      0.00
    1   10    2     -6.47      0.00
    0   10    2    -66.40      0.00
   10   10    2     -7.79      0.00
   10   11    2      6.71      0.00
    9   11    2     -2.87      0.00
    8   11    2     -8.34      0.00
    7   11    2      1.01      0.00
    6   11    2      9.03      0.00
    5   11    2    -17.24      0.00
    4   11    2     10.92      0.00
    3   11    2      5.69      0.00
    2   11    2    -10.24      0.00
    1   11    2     -1.97      0.00
   11   11    2      5.64      0.00
   11   12    2     -5.09      0.00
   10   12    2      3.20      0.00
    9   12    2      7.11      0.00
    8   12    2     -4.09      0.00
    7   12    2      8.25      0.00
    6   12    2     15.02      0.00
    5   12    2    -18.05      0.00
    4   12    2     -2.03      0.00
    3   12    2      0.10      0.00
    2   12    2     -9.75      0.00
    1   12    2     -0.33      0.00
    0   12    2     35.92      0.00
   12   12    2      4.48      0.00
   12   13    2     -0.47      0.00
   11   13    2     -0.02      0.00
   10   13    2      5.93      0.00
    9   13    2     -4.50      0.00
    8   13    2     -1.61      0.00
    7   13    2     -3.98      0.00
    6   13    2    -23.75      0.00
    5   13    2     -3.33      0.00
    4   13    2     15.14      0.00
    3   13    2     34.15      0.00
    2   13    2      1.14      0.00
    1   13    2    -12.59      0.00
   13   13    2     -7.58      0.00
   13   14    2      5.32      0.00
   12   14    2      0.44      0.00
   11   14    2      7.83      0.00
   10   14    2     -3.40      0.00
    9   14    2    -16.01      0.00
    8   14    2      5.56      0.00
    7   14    2     -4.37      0.00
    6   14    2     -3.48      0.00
    5   14    2     20.08      0.00
    4   14    2     13.43      0.00
    3   14    2    -13.46      0.00
    2   14    2     -4.40      0.00
    1   14    2      1.64      0.00
    0   14    2     -9.14      0.00
   14   14    2      1.00      0.00
   14   15    2      4.89      0.00
   13   15    2      8.56      0.00
   12   15    2    -10.63      0.00
   11   15    2      1.29      0.00
   10   15    2      0.71      0.00
    9   15    2      4.66      0.00
    8   15    2      2.72      0.00
    7   15    2     -0.51      0.00
    6   15    2      5.23      0.00
    5   15    2     -0.61      0.00
    4   15    2    -12.94      0.00
    3   15    2    -10.31      0.00
    2   15    2     -0.25      0.00
    1   15    2     15.30      0.00
   15   15    2      0.30      0.00
   15   16    2      0.73      0.00
   14   16    2      4.79      0.00
   13   16    2     -2.80      0.00
   12   16    2      0.79      0.00
   11   16    2      7.28      0.00
   10   16    2      4.25      0.00
    9   16    2      2.75      0.00
    8   16    2      0.12      0.00
    7   16    2     -6.06      0.00
    6   16    2      0.87      0.00
    5   16    2      7.29      0.00
    4   16    2      8.17      0.00
    3   16    2     -9.17      0.00
    2   16    2     15.36      0.00
    1   16    2     -0.81      0.00
    0   16    2    -18.89      0.00
   16   16    2     -0.84      0.00
   16   17    2      2.74      0.00
   15   17    2     -2.83      0.00
   14   17    2     -8.48      0.00
   13   17    2      1.31      0.00
   12   17    2     -0.54      0.00
   11   17    2     -0.85      0.00
   10   17    2      1.03      0.00
    9   17    2     -2.52      0.00
    8   17    2     -2.19      0.00
    7   17    2      4.68      0.00
    6   17    2     -0.23      0.00
    5   17    2      4.67      0.00
    4   17    2      9.56      0.00
    3   17    2      4.26      0.00
    2   17    2    -17.23      0.00
    1   17    2      2.13      0.00
   17   17    2      0.57      0.00
   17   18    2      4.50      0.00
   16   18    2     -1.25      0.00
   15   18    2     10.43      0.00
   14   18    2      3.50      0.00
   13   18    2     -2.05      0.00
   12   18    2      0.20      0.00
   11   18    2      6.70      0.00
   10   18    2      2.56      0.00
    9   18    2     -6.13      0.00
    8   18    2      2.13      0.00
    7   18    2     11.46      0.00
    6   18    2     -0.53      0.00
    5   18    2     -4.56      0.00
    4   18    2      1.12      0.00
    3   18    2      4.18      0.00
    2   18    2     -2.32      0.00
    1   18    2      3.25      0.00
    0   18    2     11.88      0.00
   18   18    2     -2.20      0.00
   18   19    2      0.02      0.00
   17   19    2     -2.82      0.00
   16   19    2      5.29      0.00
   15   19    2      4.17      0.00
   14   19    2     -5.81      0.00
   13   19    2     -1.63      0.00
   12   19    2     -1.42      0.00
   11   19    2     -4.56      0.00
   10   19    2      4.53      0.00
    9   19    2     10.77      0.00
    8   19    2     -6.92      0.00
    7   19    2     -5.34      0.00
    6   19    2      0.21      0.00
    5   19    2      1.21      0.00
    4   19    2     -6.51      0.00
    3   19    2     10.83      0.00
    2   19    2     -3.58      0.00
    1   19    2     -4.96      0.00
   19   19    2     -8.60      0.00
   19   20    2     -0.12      0.00
   18   20    2      1.75      0.00
   17   20    2      5.68      0.00
   16   20    2     -1.27      0.00
   15   20    2     -1.97      0.00
   14   20    2     -0.50      0.00
   13   20    2      3.55      0.00
   12   20    2     -0.54      0.00
   11   20    2     -0.18      0.00
   10   20    2      1.96      0.00
    9   20    2     -3.40      0.00
    8   20    2     -4.66      0.00
    7   20    2     -2.58      0.00
    6   20    2      7.28      0.00
    5   20    2      4.25      0.00
    4   20    2    -13.87      0.00
    3   20    2     -2.30      0.00
    2   20    2     -0.83      0.00
    1   20    2     10.33      0.00
    0   20    2     10.24      0.00
   20   20    2     -4.18      0.00
   20   21    2     -2.90      0.00
   19   21    2      0.17      0.00
   18   21    2      0.74      0.00
   17   21    2     -1.84      0.00
   16   21    2      4.41      0.00
   15   21    2      4.02      0.00
   14   21    2     -3.27      0.00
   13   21    2     -3.13      0.00
   12   21    2      1.68      0.00
   11   21    2     -8.30      0.00
   10   21    2     -4.05      0.00
    9   21    2      0.50      0.00
    8   21    2      2.33      0.00
    7   21    2      3.93      0.00
    6   21    2      0.54      0.00
    5   21    2      0.93      0.00
    4   21    2     11.56      0.00
    3   21    2     -1.26      0.00
    2   21    2     13.40      0.00
    1   21    2      0.45      0.00
   21   21    2      2.64      0.00
   21   22    2      2.57      0.00
   20   22    2     -3.57      0.00
   19   22    2      1.64      0.00
   18   22    2      1.90      0.00
   17   22    2     -2.09      0.00
   16   22    2      1.55      0.00
   15   22    2     -4.52      0.00
   14   22    2     -3.42      0.00
   13   22    2      2.41      0.00
   12   22    2     -8.31      0.00
   11   22    2      6.67      0.00
   10   22    2      2.28      0.00
    9   22    2      2.15      0.00
    8   22    2      2.33      0.00
    7   22    2      7.48      0.00
    6   22    2      0.40      0.00
    5   22    2     -0.60      0.00
    4   22    2     -3.21      0.00
    3   22    2      2.26      0.00
    2   22    2      1.88      0.00
    1   22    2     -5.97      0.00
    0   22    2      2.52      0.00
   22   22    2     -0.03      0.00
   22   23    2      1.34      0.00
   21   23    2      0.39      0.00
   20   23    2      3.63      0.00
   19   23    2      4.16      0.00
   18   23    2      0.90      0.00
   17   23    2     -3.11      0.00
   16   23    2      1.32      0.00
   15   23    2      2.82      0.00
   14   23    2     -3.09      0.00
   13   23    2     -4.02      0.00
   12   23    2     10.05      0.00
   11   23    2      1.24      0.00
   10   23    2      2.94      0.00
    9   23    2     -1.25      0.00
    8   23    2     -3.24      0.00
    7   23    2      2.27      0.00
    6   23    2     -0.35      0.00
    5   23    2      3.92      0.00
    4   23    2      8.24      0.00
    3   23    2     -2.47      0.00
    2   23    2      2.32      0.00
    1   23    2      5.66      0.00
   23   23    2     -4.60      0.00
   23   24    2      1.28      0.00
   22   24    2     -7.04      0.00
   21   24    2     -0.81      0.00
   20   24    2      1.13      0.00
   19   24    2      5.84      0.00
   18   24    2     -0.30      0.00
   17   24    2     -1.43      0.00
   16   24    2      0.39      0.00
   15   24    2     -3.98      0.00
   14   24    2     -3.30      0.00
   13   24    2      6.78      0.00
   12   24    2      4.88      0.00
   11   24    2      5.27      0.00
   10   24    2      2.74      0.00
    9   24    2     -5.35      0.00
    8   24    2      2.03      0.00
    7   24    2     -0.10      0.00
    6   24    2     -3.32      0.00
    5   24    2      1.05      0.00
    4   24    2      1.33      0.00
    3   24    2      6.36      0.00
    2   24    2     -4.51      0.00
    1   24    2     10.71      0.00
    0   24    2      7.14      0.00
   24   24    2      1.33      0.00
   24   25    2      2.72      0.00
   23   25    2     -2.32      0.00
   22   25    2      7.74      0.00
   21   25    2     -2.85      0.00
   20   25    2     -3.66      0.00
   19   25    2      3.10      0.00
   18   25    2      3.67      0.00
   17   25    2     -4.08      0.00
   16   25    2     -2.02      0.00
   15   25    2      1.50      0.00
   14   25    2      4.18      0.00
   13   25    2     -9.24      0.00
   12   25    2      1.70      0.00
   11   25    2      4.91      0.00
   10   25    2      3.08      0.00
    9   25    2      3.83      0.00
    8   25    2     -0.86      0.00
    7   25    2      1.48      0.00
    6   25    2     -4.73      0.00
    5   25    2      0.91      0.00
    4   25    2      4.63      0.00
    3   25    2      1.83      0.00
    2   25    2     -8.09      0.00
    1   25    2     -5.28      0.00
   25   25    2     -1.56      0.00
   25   26    2      0.66      0.00
   24   26    2     -3.71      0.00
   23   26    2     -6.55      0.00
   22   26    2      2.64      0.00
   21   26    2      1.51      0.00
   20   26    2     -0.19      0.00
   19   26    2     -1.17      0.00
   18   26    2      1.67      0.00
   17   26    2      1.18      0.00
   16   26    2      2.08      0.00
   15   26    2      0.45      0.00
   14   26    2      1.54      0.00
   13   26    2     -1.36      0.00
   12   26    2     -6.03      0.00
   11   26    2      7.53      0.00
   10   26    2      3.37      0.00
    9   26    2      7.05      0.00
    8   26    2      2.35      0.00
    7   26    2      0.35      0.00
    6   26    2     -0.88      0.00
    5   26    2      2.56      0.00
    4   26    2     -2.64      0.00
    3   26    2      2.08      0.00
    2   26    2     -4.58      0.00
    1   26    2     -1.13      0.00
    0   26    2     -9.96      0.00
   26   26    2     -5.30      0.00
   25   27    2      1.17      0.00
   24   27    2     -5.63      0.00
   23   27    2     -1.03      0.00
   22   27    2      8.95      0.00
   21   27    2     -0.50      0.00
   20   27    2     -5.20      0.00
   19   27    2      2.37      0.00
   18   27    2      5.66      0.00
   17   27    2     -1.12      0.00
   16   27    2     -2.98      0.00
   15   27    2      0.94      0.00
   14   27    2     -3.23      0.00
   13   27    2      0.43      0.00
   12   27    2     -0.62      0.00
   11   27    2      3.52      0.00
   10   27    2     -1.08      0.00
    9   27    2      0.79      0.00
    8   27    2      0.08      0.00
    7   27    2      1.91      0.00
    6   27    2     -4.42      0.00
    5   27    2     -1.52      0.00
    4   27    2      0.32      0.00
    3   27    2      0.56      0.00
    2   27    2      0.38      0.00
    1   27    2     -0.61      0.00
   24   28    2     -0.56      0.00
   23   28    2      0.57      0.00
   22   28    2      2.28      0.00
   21   28    2      0.74      0.00
   20   28    2      1.46      0.00
   19   28    2    -11.98      0.00
   18   28    2      1.37      0.00
   17   28    2      0.18      0.00
   16   28    2     -1.43      0.00
   15   28    2     -1.67      0.00
   14   28    2      1.18      0.00
   13   28    2      0.12      0.00
   12   28    2      2.81      0.00
   11   28    2      1.29      0.00
   10   28    2      3.54      0.00
    9   28    2     -0.26      0.00
    8   28    2      4.86      0.00
    7   28    2     -0.46      0.00
    6   28    2     -2.32      0.00
    5   28    2      1.01      0.00
    4   28    2      8.71      0.00
    3   28    2      0.76      0.00
    2   28    2      1.86      0.00
    1   28    2     -5.59      0.00
    0   28    2     -1.01      0.00
   23   29    2      9.82      0.00
   22   29    2      0.35      0.00
   21   29    2     -6.60      0.00
   20   29    2     -0.76      0.00
   19   29    2      2.75      0.00
   18   29    2     -8.64      0.00
   17   29    2      3.18      0.00
   16   29    2      0.70      0.00
   15   29    2     -4.49      0.00
   14   29    2      1.49      0.00
   13   29    2     -2.03      0.00
   12   29    2      0.15      0.00
   11   29    2      7.13      0.00
   10   29    2      8.67      0.00
    9   29    2      5.52      0.00
    8   29    2      0.87      0.00
    7   29    2     -1.14      0.00
    6   29    2     -3.03      0.00
    5   29    2     -1.84      0.00
    4   29    2     -1.79      0.00
    3   29    2      1.83      0.00
    2   29    2     -0.81      0.00
    1   29    2      6.39      0.00
   22   30    2     -1.08      0.00
   21   30    2     -3.88      0.00
   20   30    2      7.84      0.00
   19   30    2      2.05      0.00
   18   30    2      1.67      0.00
   17   30    2      2.19      0.00
   16   30    2      2.63      0.00
   15   30    2     -3.58      0.00
   14   30    2      0.85      0.00
   13   30    2      0.95      0.00
   12   30    2      4.51      0.00
   11   30    2     -3.94      0.00
   10   30    2      0.76      0.00
    9   30    2      5.58      0.00
    8   30    2      1.45      0.00
    7   30    2     -8.99      0.00
    6   30    2     -1.18      0.00
    5   30    2      1.86      0.00
    4   30    2      1.89      0.00
    3   30    2     -1.61      0.00
    2   30    2     -2.37      0.00
    1   30    2     -2.83      0.00
    0   30    2      2.56      0.00
   20   31    2     -2.77      0.00
   19   31    2     -4.28      0.00
   18   31    2     -3.68      0.00
   17   31    2      3.12      0.00
   16   31    2     -2.74      0.00
   15   31    2     -8.70      0.00
   14   31    2     -6.51      0.00
   13   31    2     -9.67      0.00
   12   31    2      0.55      0.00
   11   31    2     -4.31      0.00
   10   31    2      0.50      0.00
    9   31    2      0.40      0.00
    8   31    2     -1.41      0.00
    7   31    2     -2.13      0.00
    6   31    2     -3.01      0.00
    5   31    2      5.43      0.00
    4   31    2      4.82      0.00
    3   31    2     -4.75      0.00
    2   31    2     -1.53      0.00
    1   31    2     -3.63      0.00
   19   32    2      9.99      0.00
   18   32    2     12.12      0.00
   17   32    2     -4.45      0.00
   16   32    2      1.88      0.00
   15   32    2      2.25      0.00
   14   32    2      1.83      0.00
   13   32    2     -3.35      0.00
   12   32    2      5.94      0.00
   11   32    2     -6.66      0.00
   10   32    2     -1.97      0.00
    9   32    2      3.89      0.00
    8   32    2     -5.61      0.00
    7   32    2      4.02      0.00
    6   32    2      2.81      0.00
    5   32    2     -8.53      0.00
    4   32    2     -6.22      0.00
    3   32    2      0.68      0.00
    2   32    2     -0.43      0.00
    1   32    2     -0.22      0.00
    0   32    2     -2.21      0.00
   17   33    2     10.62      0.00
   16   33    2     -2.65      0.00
   15   33    2      6.59      0.00
   14   33    2      9.97      0.00
   13   33    2      7.46      0.00
   12   33    2     -8.87      0.00
   11   33    2     -3.61      0.00
   10   33    2      1.98      0.00
    9   33    2    -11.30      0.00
    8   33    2      4.31      0.00
    7   33    2     -0.21      0.00
    6   33    2     -0.30      0.00
    5   33    2      1.65      0.00
    4   33    2     -8.87      0.00
    3   33    2      1.71      0.00
    2   33    2     -3.03      0.00
    1   33    2      0.15      0.00
   15   34    2    -12.19      0.00
   14   34    2     18.97      0.00
   13   34    2     -2.16      0.00
   12   34    2     -1.20      0.00
   11   34    2      8.00      0.00
   10   34    2     -8.90      0.00
    9   34    2     -1.22      0.00
    8   34    2      5.90      0.00
    7   34    2     -2.73      0.00
    6   34    2      5.44      0.00
    5   34    2      4.35      0.00
    4   34    2      0.24      0.00
    3   34    2     17.04      0.00
    2   34    2      2.04      0.00
    1   34    2      1.60      0.00
    0   34    2      1.39      0.00
   12   35    2      9.75      0.00
   11   35    2      3.78      0.00
   10   35    2      0.17      0.00
    9   35    2     10.94      0.00
    8   35    2     -6.49      0.00
    7   35    2     -1.96      0.00
    6   35    2     -5.39      0.00
    5   35    2      6.41      0.00
    4   35    2      5.48      0.00
    3   35    2      1.33      0.00
    2   35    2     -9.67      0.00
    1   35    2     -0.07      0.00
    9   36    2     -3.28      0.00
    8   36    2     -4.57      0.00
    7   36    2     -6.56      0.00
    6   36    2     -5.50      0.00
    5   36    2     -7.87      0.00
    4   36    2     -0.67      0.00
    3   36    2     -3.62      0.00
    2   36    2     -2.94      0.00
    1   36    2      2.33      0.00
    0   36    2    -10.16      0.00
    4   37    2      9.03      0.00
    3   37    2     -0.41      0.00
    2   37    2      1.66      0.00
    1   37    2     -2.67      0.00
    1    2    3    -73.53      0.00
    0    2    3     36.87      0.00
    2    3    3    269.79      0.00
    1    3    3    -22.32      0.00
    3    4    3     38.48      0.00
    2    4    3    -22.25      0.00
    1    4    3   -320.36      0.00
    0    4    3     66.03      0.00
    4    5    3     -5.71      0.00
    3    5    3     62.61      0.00
    2    5    3     39.43      0.00
    1    5    3    -57.81      0.00
    5    6    3     54.11      0.00
    4    6    3    -74.16      0.00
    3    6    3    -53.02      0.00
    2    6    3    -35.04      0.00
    1    6    3    289.43      0.00
    0    6    3    -26.70      0.00
    6    7    3     -8.76      0.00
    5    7    3      9.74      0.00
    4    7    3     56.33      0.00
    3    7    3     19.22      0.00
    2    7    3     28.19      0.00
    1    7    3    -31.48      0.00
    7    8    3     16.75      0.00
    6    8    3     22.59      0.00
    5    8    3    -13.53      0.00
    4    8    3     10.09      0.00
    3    8    3    -25.28      0.00
    2    8    3     32.42      0.00
    1    8    3      3.48      0.00
    0    8    3    -91.08      0.00
    8    9    3     24.39      0.00
    7    9    3     -7.90      0.00
    6    9    3    -32.27      0.00
    5    9    3    -12.60      0.00
    4    9    3     24.52      0.00
    3    9    3    -29.83      0.00
    2    9    3     25.29      0.00
    1    9    3     44.71      0.00
    9   10    3     -0.84      0.00
    8   10    3    -14.90      0.00
    7   10    3     -7.75      0.00
    6   10    3     -4.76      0.00
    5   10    3     20.24      0.00
    4   10    3      4.86      0.00
    3   10    3    -10.19      0.00
    2   10    3     14.59      0.00
    1   10    3     -4.29      0.00
    0   10    3    -31.35      0.00
   10   11    3      6.33      0.00
    9   11    3     -2.59      0.00
    8   11    3    -10.04      0.00
    7   11    3      6.95      0.00
    6   11    3     10.23      0.00
    5   11    3     -1.71      0.00
    4   11    3    -38.87      0.00
    3   11    3     25.84      0.00
    2   11    3      0.37      0.00
    1   11    3     -1.24      0.00
   11   12    3    -17.52      0.00
   10   12    3     -7.13      0.00
    9   12    3      7.56      0.00
    8   12    3      6.59      0.00
    7   12    3     11.49      0.00
    6   12    3     -1.26      0.00
    5   12    3    -38.19      0.00
    4   12    3     17.66      0.00
    3   12    3      1.65      0.00
    2   12    3     -7.53      0.00
    1   12    3    -11.05      0.00
    0   12    3     -1.09      0.00
   12   13    3     11.29      0.00
   11   13    3      2.18      0.00
   10   13    3      1.88      0.00
    9   13    3      9.34      0.00
    8   13    3     -7.93      0.00
    7   13    3      2.41      0.00
    6   13    3     -2.13      0.00
    5   13    3     -9.37      0.00
    4   13    3     12.78      0.00
    3   13    3      4.45      0.00
    2   13    3    -17.97      0.00
    1   13    3      3.53      0.00
   13   14    3      0.51      0.00
   12   14    3      1.44      0.00
   11   14    3     -9.36      0.00
   10   14    3      7.17      0.00
    9   14    3     -0.73      0.00
    8   14    3     -5.45      0.00
    7   14    3     12.10      0.00
    6   14    3     -1.05      0.00
    5   14    3     -7.65      0.00
    4   14    3     14.27      0.00
    3   14    3     -7.90      0.00
    2   14    3    -17.65      0.00
    1   14    3     14.13      0.00
    0   14    3     11.48      0.00
   14   15    3     -3.29      0.00
   13   15    3      1.37      0.00
   12   15    3     -2.02      0.00
   11   15    3      0.59      0.00
   10   15    3      9.15      0.00
    9   15    3     -9.22      0.00
    8   15    3      7.77      0.00
    7   15    3      1.36      0.00
    6   15    3      1.76      0.00
    5   15    3      4.88      0.00
    4   15    3     -2.31      0.00
    3   15    3     -6.00      0.00
    2   15    3    -15.22      0.00
    1   15    3      3.36      0.00
   15   16    3      7.61      0.00
   14   16    3      1.02      0.00
   13   16    3      1.41      0.00
   12   16    3     -2.55      0.00
   11   16    3      7.43      0.00
   10   16    3     -1.18      0.00
    9   16    3     -0.24      0.00
    8   16    3      0.76      0.00
    7   16    3    -14.10      0.00
    6   16    3      8.75      0.00
    5   16    3     12.31      0.00
    4   16    3     -4.72      0.00
    3   16    3     15.80      0.00
    2   16    3      8.01      0.00
    1   16    3      5.61      0.00
    0   16    3    -17.52      0.00
   16   17    3     -0.44      0.00
   15   17    3     -2.47      0.00
   14   17    3      7.74      0.00
   13   17    3     -5.09      0.00
   12   17    3      1.96      0.00
   11   17    3     -0.34      0.00
   10   17    3     -5.06      0.00
    9   17    3     -0.05      0.00
    8   17    3      7.29      0.00
    7   17    3     -7.48      0.00
    6   17    3     -2.21      0.00
    5   17    3     -5.68      0.00
    4   17    3     -2.38      0.00
    3   17    3     -5.11      0.00
    2   17    3     -2.05      0.00
    1   17    3      7.61      0.00
   17   18    3      2.06      0.00
   16   18    3     -1.22      0.00
   15   18    3      5.10      0.00
   14   18    3      2.07      0.00
   13   18    3     -2.18      0.00
   12   18    3      2.01      0.00
   11   18    3      2.61      0.00
   10   18    3     -1.79      0.00
    9   18    3      1.77      0.00
    8   18    3     -2.95      0.00
    7   18    3      6.82      0.00
    6   18    3      1.49      0.00
    5   18    3      1.13      0.00
    4   18    3      0.63      0.00
    3   18    3     -2.80      0.00
    2   18    3     -6.97      0.00
    1   18    3      0.67      0.00
    0   18    3      4.22      0.00
   18   19    3     -4.82      0.00
   17   19    3      3.02      0.00
   16   19    3      1.66      0.00
   15   19    3     -1.00      0.00
   14   19    3      0.34      0.00
   13   19    3     -2.08      0.00
   12   19    3     -7.17      0.00
   11   19    3      3.55      0.00
   10   19    3      3.35      0.00
    9   19    3      2.42      0.00
    8   19    3     -6.23      0.00
    7   19    3      3.21      0.00
    6   19    3     -1.16      0.00
    5   19    3     -0.38      0.00
    4   19    3      1.46      0.00
    3   19    3      0.02      0.00
    2   19    3     -3.59      0.00
    1   19    3     -2.60      0.00
   19   20    3     -4.04      0.00
   18   20    3     -2.83      0.00
   17   20    3      2.31      0.00
   16   20    3     -1.29      0.00
   15   20    3      5.93      0.00
   14   20    3     -3.01      0.00
   13   20    3      0.82      0.00
   12   20    3      0.86      0.00
   11   20    3     -2.22      0.00
   10   20    3     -4.31      0.00
    9   20    3      3.48      0.00
    8   20    3     -2.90      0.00
    7   20    3     -5.67      0.00
    6   20    3      1.31      0.00
    5   20    3      0.93      0.00
    4   20    3     -4.60      0.00
    3   20    3     -1.15      0.00
    2   20    3     11.03      0.00
    1   20    3      1.43      0.00
    0   20    3      7.30      0.00
   20   21    3      0.33      0.00
   19   21    3     -4.75      0.00
   18   21    3      8.64      0.00
   17   21    3     -1.71      0.00
   16   21    3      2.93      0.00
   15   21    3      0.63      0.00
   14   21    3     -4.72      0.00
   13   21    3     -4.53      0.00
   12   21    3      1.98      0.00
   11   21    3      5.59      0.00
   10   21    3     -0.20      0.00
    9   21    3     -5.36      0.00
    8   21    3     12.66      0.00
    7   21    3      6.66      0.00
    6   21    3      2.88      0.00
    5   21    3      1.35      0.00
    4   21    3      1.33      0.00
    3   21    3     -0.41      0.00
    2   21    3     -2.58      0.00
    1   21    3     -1.71      0.00
   21   22    3     -3.92      0.00
   20   22    3     -5.41      0.00
   19   22    3      5.90      0.00
   18   22    3     -1.35      0.00
   17   22    3     -2.16      0.00
   16   22    3     -6.04      0.00
   15   22    3      3.30      0.00
   14   22    3      1.99      0.00
   13   22    3     -1.98      0.00
   12   22    3     -1.39      0.00
   11   22    3      5.33      0.00
   10   22    3     -2.28      0.00
    9   22    3     -0.25      0.00
    8   22    3      8.88      0.00
    7   22    3      6.90      0.00
    6   22    3     -5.31      0.00
    5   22    3      7.13      0.00
    4   22    3      1.80      0.00
    3   22    3      3.88      0.00
    2   22    3      4.67      0.00
    1   22    3      2.26      0.00
    0   22    3     -0.79      0.00
   22   23    3     -3.12      0.00
   21   23    3     -0.41      0.00
   20   23    3     -6.74      0.00
   19   23    3      1.10      0.00
   18   23    3      1.64      0.00
   17   23    3      2.69      0.00
   16   23    3     -1.71      0.00
   15   23    3     -0.70      0.00
   14   23    3     -1.89      0.00
   13   23    3      2.01      0.00
   12   23    3     -7.00      0.00
   11   23    3      3.98      0.00
   10   23    3     12.70      0.00
    9   23    3     -0.01      0.00
    8   23    3     -6.13      0.00
    7   23    3     -6.29      0.00
    6   23    3      1.31      0.00
    5   23    3      5.69      0.00
    4   23    3      5.54      0.00
    3   23    3     -7.08      0.00
    2   23    3     -5.09      0.00
    1   23    3      0.98      0.00
   23   24    3      0.23      0.00
   22   24    3     -2.15      0.00
   21   24    3      1.80      0.00
   20   24    3     -4.45      0.00
   19   24    3      2.10      0.00
   18   24    3      0.19      0.00
   17   24    3     -2.77      0.00
   16   24    3      1.03      0.00
   15   24    3     -2.41      0.00
   14   24    3     -4.29      0.00
   13   24    3      4.21      0.00
   12   24    3      1.57      0.00
   11   24    3     -1.72      0.00
   10   24    3     -0.57      0.00
    9   24    3      4.55      0.00
    8   24    3      2.34      0.00
    7   24    3      3.08      0.00
    6   24    3     -3.42      0.00
    5   24    3     -2.77      0.00
    4   24    3      2.66      0.00
    3   24    3     -3.96      0.00
    2   24    3     -5.19      0.00
    1   24    3      0.79      0.00
    0   24    3      3.72      0.00
   24   25    3     -3.17      0.00
   23   25    3      9.00      0.00
   22   25    3     -0.84      0.00
   21   25    3     -5.07      0.00
   20   25    3     -4.22      0.00
   19   25    3     -0.59      0.00
   18   25    3     -3.36      0.00
   17   25    3      8.67      0.00
   16   25    3      0.14      0.00
   15   25    3     -1.01      0.00
   14   25    3      1.38      0.00
   13   25    3      0.34      0.00
   12   25    3     -1.41      0.00
   11   25    3      2.75      0.00
   10   25    3     -3.17      0.00
    9   25    3     -0.33      0.00
    8   25    3      0.44      0.00
    7   25    3      3.25      0.00
    6   25    3      5.12      0.00
    5   25    3      7.64      0.00
    4   25    3      2.83      0.00
    3   25    3      6.49      0.00
    2   25    3     -2.34      0.00
    1   25    3     -4.39      0.00
   25   26    3      2.68      0.00
   24   26    3      2.50      0.00
   23   26    3     -6.29      0.00
   22   26    3     -2.16      0.00
   21   26    3      2.57      0.00
   20   26    3     -3.89      0.00
   19   26    3      0.39      0.00
   18   26    3     -0.88      0.00
   17   26    3      0.40      0.00
   16   26    3     -5.89      0.00
   15   26    3      2.96      0.00
   14   26    3      6.36      0.00
   13   26    3     -1.02      0.00
   12   26    3      0.99      0.00
   11   26    3     -1.39      0.00
   10   26    3      1.20      0.00
    9   26    3      3.19      0.00
    8   26    3      1.64      0.00
    7   26    3     -1.95      0.00
    6   26    3      1.58      0.00
    5   26    3     -4.08      0.00
    4   26    3     -1.00      0.00
    3   26    3     -7.29      0.00
    2   26    3      5.43      0.00
    1   26    3      4.23      0.00
    0   26    3     -6.92      0.00
   25   27    3     -8.91      0.00
   24   27    3     -4.51      0.00
   23   27    3      3.28      0.00
   22   27    3      7.65      0.00
   21   27    3      2.94      0.00
   20   27    3      2.26      0.00
   19   27    3     -1.10      0.00
   18   27    3      7.19      0.00
   17   27    3     -2.43      0.00
   16   27    3      4.20      0.00
   15   27    3     -1.93      0.00
   14   27    3     -5.01      0.00
   13   27    3      1.70      0.00
   12   27    3      0.31      0.00
   11   27    3      0.69      0.00
   10   27    3     -3.35      0.00
    9   27    3      3.26      0.00
    8   27    3      0.80      0.00
    7   27    3      2.35      0.00
    6   27    3     -3.53      0.00
    5   27    3      5.33      0.00
    4   27    3      3.19      0.00
    3   27    3     -0.26      0.00
    2   27    3     -0.67      0.00
    1   27    3     -5.92      0.00
   24   28    3      2.35      0.00
   23   28    3      1.13      0.00
   22   28    3     -0.35      0.00
   21   28    3     -9.33      0.00
   20   28    3      0.24      0.00
   19   28    3     -0.34      0.00
   18   28    3      2.50      0.00
   17   28    3     -0.46      0.00
   16   28    3      5.06      0.00
   15   28    3     -7.35      0.00
   14   28    3      4.50      0.00
   13   28    3    -12.83      0.00
   12   28    3      5.27      0.00
   11   28    3     -2.36      0.00
   10   28    3     -6.94      0.00
    9   28    3     -1.28      0.00
    8   28    3      9.44      0.00
    7   28    3      7.98      0.00
    6   28    3      1.45      0.00
    5   28    3     -0.18      0.00
    4   28    3      9.42      0.00
    3   28    3     -6.22      0.00
    2   28    3     -4.15      0.00
    1   28    3      0.85      0.00
    0   28    3      4.61      0.00
   23   29    3      5.14      0.00
   22   29    3      3.68      0.00
   21   29    3      3.43      0.00
   20   29    3      1.58      0.00
   19   29    3     -2.31      0.00
   18   29    3     -2.69      0.00
   17   29    3     -3.67      0.00
   16   29    3     -2.47      0.00
   15   29    3     12.00      0.00
   14   29    3      4.38      0.00
   13   29    3      8.13      0.00
   12   29    3     -8.74      0.00
   11   29    3     -3.81      0.00
   10   29    3      4.39      0.00
    9   29    3      6.21      0.00
    8   29    3      0.45      0.00
    7   29    3      5.10      0.00
    6   29    3      4.05      0.00
    5   29    3     -3.04      0.00
    4   29    3      6.79      0.00
    3   29    3     -2.69      0.00
    2   29    3     -2.43      0.00
    1   29    3      3.23      0.00
   21   30    3     -4.88      0.00
   20   30    3      6.68      0.00
   19   30    3     -0.82      0.00
   18   30    3      5.45      0.00
   17   30    3     -4.35      0.00
   16   30    3     -5.06      0.00
   15   30    3     -6.23      0.00
   14   30    3      1.95      0.00
   13   30    3      1.32      0.00
   12   30    3      3.58      0.00
   11   30    3      4.50      0.00
   10   30    3      0.45      0.00
    9   30    3      5.97      0.00
    8   30    3      0.15      0.00
    7   30    3      0.29      0.00
    6   30    3      0.07      0.00
    5   30    3      3.74      0.00
    4   30    3      1.68      0.00
    3   30    3      7.77      0.00
    2   30    3      4.28      0.00
    1   30    3     -5.36      0.00
    0   30    3     -4.88      0.00
   20   31    3     -4.37      0.00
   19   31    3     -4.75      0.00
   18   31    3     -5.98      0.00
   17   31    3      5.77      0.00
   16   31    3     -5.89      0.00
   15   31    3      4.43      0.00
   14   31    3      1.27      0.00
   13   31    3      5.41      0.00
   12   31    3      6.75      0.00
   11   31    3      3.09      0.00
   10   31    3      6.26      0.00
    9   31    3      7.08      0.00
    8   31    3      0.87      0.00
    7   31    3      9.25      0.00
    6   31    3      0.95      0.00
    5   31    3      3.86      0.00
    4   31    3      1.53      0.00
    3   31    3     -5.49      0.00
    2   31    3      5.35      0.00
    1   31    3      2.11      0.00
   18   32    3     22.51      0.00
   17   32    3      0.14      0.00
   16   32    3      5.50      0.00
   15   32    3      1.38      0.00
   14   32    3      2.62      0.00
   13   32    3      1.56      0.00
   12   32    3     10.45      0.00
   11   32    3     -3.76      0.00
   10   32    3      4.51      0.00
    9   32    3      8.04      0.00
    8   32    3     -0.80      0.00
    7   32    3      4.07      0.00
    6   32    3     -5.60      0.00
    5   32    3     -3.34      0.00
    4   32    3     -5.82      0.00
    3   32    3     -3.82      0.00
    2   32    3     -0.10      0.00
    1   32    3      6.11      0.00
    0   32    3     -6.02      0.00
   17   33    3      9.07      0.00
   16   33    3      2.02      0.00
   15   33    3      2.55      0.00
   14   33    3     -8.09      0.00
   13   33    3      2.25      0.00
   12   33    3    -10.08      0.00
   11   33    3      8.90      0.00
   10   33    3      1.18      0.00
    9   33    3      3.00      0.00
    8   33    3     -1.67      0.00
    7   33    3     -6.32      0.00
    6   33    3     -8.02      0.00
    5   33    3     -4.88      0.00
    4   33    3      8.38      0.00
    3   33    3      6.78      0.00
    2   33    3      3.44      0.00
    1   33    3      4.25      0.00
   15   34    3    -21.90      0.00
   14   34    3    -10.93      0.00
   13   34    3     -5.68      0.00
   12   34    3    -12.06      0.00
   11   34    3     -2.73      0.00
   10   34    3      1.65      0.00
    9   34    3      1.66      0.00
    8   34    3      7.82      0.00
    7   34    3      0.52      0.00
    6   34    3      3.69      0.00
    5   34    3     -4.61      0.00
    4   34    3      2.31      0.00
    3   34    3     10.41      0.00
    2   34    3     -8.31      0.00
    1   34    3      2.56      0.00
    0   34    3      5.70      0.00
   12   35    3     -2.37      0.00
   11   35    3     -0.63      0.00
   10   35    3     14.42      0.00
    9   35    3     -3.73      0.00
    8   35    3      4.99      0.00
    7   35    3     -0.46      0.00
    6   35    3      2.47      0.00
    5   35    3     -3.01      0.00
    4   35    3     10.27      0.00
    3   35    3     -0.27      0.00
    2   35    3      0.65      0.00
    1   35    3     -1.68      0.00
    9   36    3      7.51      0.00
    8   36    3      4.08      0.00
    7   36    3    -19.30      0.00
    6   36    3      4.09      0.00
    5   36    3    -14.39      0.00
    4   36    3    -20.18      0.00
    3   36    3     15.98      0.00
    2   36    3    -11.49      0.00
    1   36    3      1.28      0.00
    0   36    3     14.23      0.00
    4   37    3     -8.22      0.00
    3   37    3     -3.13      0.00
    2   37    3     -4.16      0.00
    1   37    3      8.94      0.00
    0    0    4    389.16      0.00
    1    1    4     63.19      0.00
    1    2    4     98.52      0.00
    0    2    4     10.91      0.00
    2    2    4   -228.10      0.00
    2    3    4    -78.44      0.00
    1    3    4    -64.53      0.00
    3    3    4   -195.72      0.00
    3    4    4    228.56      0.00
    2    4    4      4.91      0.00
    1    4    4    115.82      0.00
    0    4    4    113.64      0.00
    4    4    4     87.87      0.00
    4    5    4     33.15      0.00
    3    5    4     13.60      0.00
    2    5    4    -40.51      0.00
    1    5    4     -8.57      0.00
    5    5    4    -59.97      0.00
    5    6    4     26.13      0.00
    4    6    4     46.98      0.00
    3    6    4     -7.94      0.00
    2    6    4     67.03      0.00
    1    6    4     78.54      0.00
    0    6    4    396.72      0.00
    6    6    4    -73.48      0.00
    6    7    4     58.09      0.00
    5    7    4      9.06      0.00
    4    7    4     32.82      0.00
    3    7    4     59.26      0.00
    2    7    4     36.62      0.00
    1    7    4    -80.48      0.00
    7    7    4     64.90      0.00
    7    8    4     -9.36      0.00
    6    8    4    -10.43      0.00
    5    8    4    -44.34      0.00
    4    8    4     17.68      0.00
    3    8    4    -30.78      0.00
    2    8    4     37.37      0.00
    1    8    4     -5.28      0.00
    0    8    4     91.17      0.00
    8    8    4    -20.74      0.00
    8    9    4     10.40      0.00
    7    9    4      5.10      0.00
    6    9    4     13.01      0.00
    5    9    4     28.97      0.00
    4    9    4      8.66      0.00
    3    9    4     26.17      0.00
    2    9    4     -8.76      0.00
    1    9    4    -16.00      0.00
    9    9    4      3.28      0.00
    9   10    4     28.04      0.00
    8   10    4     30.78      0.00
    7   10    4      4.71      0.00
    6   10    4    -12.15      0.00
    5   10    4     -2.04      0.00
    4   10    4     -7.13      0.00
    3   10    4     -4.23      0.00
    2   10    4     -9.84      0.00
    1   10    4     -8.89      0.00
    0   10    4    -28.39      0.00
   10   10    4     -0.59      0.00
   10   11    4     -5.39      0.00
    9   11    4    -13.75      0.00
    8   11    4    -31.40      0.00
    7   11    4    -19.86      0.00
    6   11    4     12.84      0.00
    5   11    4     18.26      0.00
    4   11    4     13.96      0.00
    3   11    4     -3.26      0.00
    2   11    4     45.68      0.00
    1   11    4    -15.25      0.00
   11   11    4    -10.09      0.00
   11   12    4      9.04      0.00
   10   12    4      8.13      0.00
    9   12    4      6.63      0.00
    8   12    4      5.07      0.00
    7   12    4     23.99      0.00
    6   12    4     -4.59      0.00
    5   12    4     -0.47      0.00
    4   12    4    -16.91      0.00
    3   12    4    -15.46      0.00
    2   12    4      9.45      0.00
    1   12    4    -37.52      0.00
    0   12    4     10.65      0.00
   12   12    4    -11.50      0.00
   12   13    4      0.10      0.00
   11   13    4     -8.27      0.00
   10   13    4      0.95      0.00
    9   13    4     -9.92      0.00
    8   13    4     -2.13      0.00
    7   13    4    -14.81      0.00
    6   13    4    -14.52      0.00
    5   13    4     -1.95      0.00
    4   13    4      2.38      0.00
    3   13    4     20.89      0.00
    2   13    4     12.10      0.00
    1   13    4     -3.49      0.00
   13   13    4      0.50      0.00
   13   14    4      2.33      0.00
   12   14    4     -3.88      0.00
   11   14    4      7.57      0.00
   10   14    4      5.93      0.00
    9   14    4      5.75      0.00
    8   14    4     10.87      0.00
    7   14    4      1.81      0.00
    6   14    4      4.75      0.00
    5   14    4      0.88      0.00
    4   14    4      9.22      0.00
    3   14    4     -8.55      0.00
    2   14    4     -8.30      0.00
    1   14    4     -3.29      0.00
    0   14    4      5.25      0.00
   14   14    4    -13.79      0.00
   14   15    4      3.41      0.00
   13   15    4      9.24      0.00
   12   15    4      3.91      0.00
   11   15    4      7.31      0.00
   10   15    4      2.22      0.00
    9   15    4     11.43      0.00
    8   15    4    -11.28      0.00
    7   15    4     -5.80      0.00
    6   15    4     -4.76      0.00
    5   15    4     -5.17      0.00
    4   15    4      2.80      0.00
    3   15    4     -2.81      0.00
    2   15    4      5.81      0.00
    1   15    4     13.34      0.00
   15   15    4      8.74      0.00
   15   16    4      1.02      0.00
   14   16    4      0.97      0.00
   13   16    4     -2.59      0.00
   12   16    4     -5.45      0.00
   11   16    4     -1.68      0.00
   10   16    4      8.14      0.00
    9   16    4      4.39      0.00
    8   16    4      5.77      0.00
    7   16    4     -0.01      0.00
    6   16    4     11.19      0.00
    5   16    4     -0.10      0.00
    4   16    4      8.12      0.00
    3   16    4    -14.49      0.00
    2   16    4     -2.98      0.00
    1   16    4      1.89      0.00
    0   16    4    -25.95      0.00
   16   16    4      4.49      0.00
   16   17    4      0.46      0.00
   15   17    4      0.72      0.00
   14   17    4     -1.54      0.00
   13   17    4      3.87      0.00
   12   17    4      0.82      0.00
   11   17    4      5.00      0.00
   10   17    4     -2.37      0.00
    9   17    4     -5.16      0.00
    8   17    4     -4.48      0.00
    7   17    4      0.33      0.00
    6   17    4     -1.79      0.00
    5   17    4     -2.36      0.00
    4   17    4      9.01      0.00
    3   17    4     -2.10      0.00
    2   17    4      2.84      0.00
    1   17    4     10.21      0.00
   17   17    4      3.38      0.00
   17   18    4      2.63      0.00
   16   18    4      3.66      0.00
   15   18    4     -3.38      0.00
   14   18    4     -0.85      0.00
   13   18    4      4.75      0.00
   12   18    4      0.52      0.00
   11   18    4      2.59      0.00
   10   18    4     -7.30      0.00
    9   18    4     -2.92      0.00
    8   18    4      6.04      0.00
    7   18    4     10.28      0.00
    6   18    4     -4.94      0.00
    5   18    4      4.96      0.00
    4   18    4      1.58      0.00
    3   18    4      7.42      0.00
    2   18    4     -3.97      0.00
    1   18    4      4.28      0.00
    0   18    4      3.48      0.00
   18   18    4     -6.38      0.00
   18   19    4      0.04      0.00
   17   19    4     -3.48      0.00
   16   19    4     -1.75      0.00
   15   19    4      2.32      0.00
   14   19    4     -0.44      0.00
   13   19    4     -2.08      0.00
   12   19    4      1.54      0.00
   11   19    4     -8.07      0.00
   10   19    4     11.03      0.00
    9   19    4      7.22      0.00
    8   19    4     -5.65      0.00
    7   19    4     -3.21      0.00
    6   19    4     -4.85      0.00
    5   19    4     -0.42      0.00
    4   19    4    -10.74      0.00
    3   19    4      5.17      0.00
    2   19    4     -1.72      0.00
    1   19    4      5.57      0.00
   19   19    4     -0.35      0.00
   19   20    4      1.30      0.00
   18   20    4      4.44      0.00
   17   20    4      1.57      0.00
   16   20    4      3.07      0.00
   15   20    4      0.87      0.00
   14   20    4     -5.75      0.00
   13   20    4      5.45      0.00
   12   20    4     -1.51      0.00
   11   20    4     -5.18      0.00
   10   20    4     -0.98      0.00
    9   20    4      3.31      0.00
    8   20    4     -3.81      0.00
    7   20    4      1.56      0.00
    6   20    4     11.43      0.00
    5   20    4      1.32      0.00
    4   20    4     -2.61      0.00
    3   20    4     -0.28      0.00
    2   20    4      4.68      0.00
    1   20    4      4.92      0.00
    0   20    4     -2.49      0.00
   20   20    4     -0.07      0.00
   20   21    4     -2.38      0.00
   19   21    4     -2.43      0.00
   18   21    4      1.28      0.00
   17   21    4     -1.01      0.00
   16   21    4     -7.04      0.00
   15   21    4     -2.35      0.00
   14   21    4     -3.32      0.00
   13   21    4      4.83      0.00
   12   21    4      2.47      0.00
   11   21    4     -0.23      0.00
   10   21    4      4.00      0.00
    9   21    4      0.82      0.00
    8   21    4      6.08      0.00
    7   21    4      4.81      0.00
    6   21    4     -7.03      0.00
    5   21    4      1.46      0.00
    4   21    4     -1.84      0.00
    3   21    4      6.10      0.00
    2   21    4     -0.35      0.00
    1   21    4      0.66      0.00
   21   21    4      3.05      0.00
   21   22    4     -4.49      0.00
   20   22    4      0.38      0.00
   19   22    4     -5.52      0.00
   18   22    4     -1.63      0.00
   17   22    4      0.77      0.00
   16   22    4     -6.81      0.00
   15   22    4      3.56      0.00
   14   22    4     -1.83      0.00
   13   22    4     -2.13      0.00
   12   22    4     -1.34      0.00
   11   22    4      6.84      0.00
   10   22    4      9.06      0.00
    9   22    4     -3.65      0.00
    8   22    4      2.39      0.00
    7   22    4      5.68      0.00
    6   22    4     -0.19      0.00
    5   22    4     -6.42      0.00
    4   22    4     -3.23      0.00
    3   22    4      3.42      0.00
    2   22    4      0.33      0.00
    1   22    4     -2.22      0.00
    0   22    4      5.89      0.00
   22   22    4     -5.99      0.00
   22   23    4      0.97      0.00
   21   23    4      0.28      0.00
   20   23    4     -3.83      0.00
   19   23    4      3.03      0.00
   18   23    4     -0.64      0.00
   17   23    4     -7.15      0.00
   16   23    4      2.19      0.00
   15   23    4      0.31      0.00
   14   23    4      3.05      0.00
   13   23    4      5.93      0.00
   12   23    4     -1.26      0.00
   11   23    4      0.86      0.00
   10   23    4      4.38      0.00
    9   23    4      2.21      0.00
    8   23    4      5.63      0.00
    7   23    4      3.77      0.00
    6   23    4     -9.05      0.00
    5   23    4      3.45      0.00
    4   23    4     -6.33      0.00
    3   23    4     -2.46      0.00
    2   23    4     -3.24      0.00
    1   23    4     -3.37      0.00
   23   23    4      5.45      0.00
   23   24    4     -0.48      0.00
   22   24    4     -1.21      0.00
   21   24    4     10.81      0.00
   20   24    4     -1.73      0.00
   19   24    4     -2.03      0.00
   18   24    4     -0.51      0.00
   17   24    4     -2.09      0.00
   16   24    4      5.37      0.00
   15   24    4     -2.58      0.00
   14   24    4     -4.79      0.00
   13   24    4     -1.35      0.00
   12   24    4      4.15      0.00
   11   24    4      3.72      0.00
   10   24    4     -3.06      0.00
    9   24    4      3.08      0.00
    8   24    4     -2.29      0.00
    7   24    4     -5.00      0.00
    6   24    4      4.83      0.00
    5   24    4     -5.72      0.00
    4   24    4      5.64      0.00
    3   24    4     -3.66      0.00
    2   24    4     -0.91      0.00
    1   24    4      1.17      0.00
    0   24    4      4.71      0.00
   24   24    4      2.07      0.00
   24   25    4      4.64      0.00
   23   25    4     -7.55      0.00
   22   25    4     -2.97      0.00
   21   25    4     -2.57      0.00
   20   25    4     -0.88      0.00
   19   25    4     -4.57      0.00
   18   25    4     -0.22      0.00
   17   25    4     -1.82      0.00
   16   25    4      0.36      0.00
   15   25    4      2.48      0.00
   14   25    4     -0.72      0.00
   13   25    4     -4.56      0.00
   12   25    4      0.52      0.00
   11   25    4     -0.52      0.00
   10   25    4     -1.33      0.00
    9   25    4     -3.83      0.00
    8   25    4      2.88      0.00
    7   25    4     11.70      0.00
    6   25    4     -4.29      0.00
    5   25    4     10.28      0.00
    4   25    4      2.89      0.00
    3   25    4     -3.53      0.00
    2   25    4     -1.43      0.00
    1   25    4     10.81      0.00
   25   25    4      0.14      0.00
   25   26    4      2.39      0.00
   24   26    4     -1.85      0.00
   23   26    4      5.09      0.00
   22   26    4      0.92      0.00
   21   26    4     -7.35      0.00
   20   26    4      1.86      0.00
   19   26    4      2.65      0.00
   18   26    4     -1.13      0.00
   17   26    4     -4.51      0.00
   16   26    4     -1.38      0.00
   15   26    4      4.01      0.00
   14   26    4     -0.44      0.00
   13   26    4     -1.83      0.00
   12   26    4     -2.25      0.00
   11   26    4     -3.80      0.00
   10   26    4      0.81      0.00
    9   26    4      4.42      0.00
    8   26    4     -0.08      0.00
    7   26    4      3.31      0.00
    6   26    4      3.03      0.00
    5   26    4     -0.41      0.00
    4   26    4      4.86      0.00
    3   26    4      3.64      0.00
    2   26    4      4.04      0.00
    1   26    4      8.30      0.00
    0   26    4     -2.94      0.00
   26   26    4      8.26      0.00
   25   27    4      0.08      0.00
   24   27    4     -0.24      0.00
   23   27    4      5.05      0.00
   22   27    4      3.53      0.00
   21   27    4    -10.70      0.00
   20   27    4     -0.55      0.00
   19   27    4      2.07      0.00
   18   27    4    -10.84      0.00
   17   27    4      0.85      0.00
   16   27    4      3.48      0.00
   15   27    4      0.81      0.00
   14   27    4      2.31      0.00
   13   27    4    -12.73      0.00
   12   27    4      0.89      0.00
   11   27    4     -0.65      0.00
   10   27    4     -4.95      0.00
    9   27    4      1.87      0.00
    8   27    4      0.62      0.00
    7   27    4      2.11      0.00
    6   27    4     -3.14      0.00
    5   27    4      6.52      0.00
    4   27    4     -5.43      0.00
    3   27    4      4.97      0.00
    2   27    4      1.81      0.00
    1   27    4     -1.34      0.00
   24   28    4     -5.53      0.00
   23   28    4     -4.28      0.00
   22   28    4     -9.06      0.00
   21   28    4      3.91      0.00
   20   28    4      9.43      0.00
   19   28    4     -8.16      0.00
   18   28    4      6.21      0.00
   17   28    4     -3.63      0.00
   16   28    4      4.94      0.00
   15   28    4     -1.28      0.00
   14   28    4      0.19      0.00
   13   28    4      6.03      0.00
   12   28    4      1.05      0.00
   11   28    4      2.00      0.00
   10   28    4     -4.51      0.00
    9   28    4     -8.25      0.00
    8   28    4     -1.21      0.00
    7   28    4      0.91      0.00
    6   28    4      2.56      0.00
    5   28    4      2.60      0.00
    4   28    4     -5.16      0.00
    3   28    4     -4.48      0.00
    2   28    4      4.60      0.00
    1   28    4      4.16      0.00
    0   28    4     -1.92      0.00
   23   29    4     -0.87      0.00
   22   29    4     11.23      0.00
   21   29    4      0.27      0.00
   20   29    4      8.27      0.00
   19   29    4      0.72      0.00
   18   29    4     -6.44      0.00
   17   29    4      5.83      0.00
   16   29    4     -3.95      0.00
   15   29    4    -14.06      0.00
   14   29    4     -0.60      0.00
   13   29    4      2.81      0.00
   12   29    4     -3.76      0.00
   11   29    4      6.70      0.00
   10   29    4      2.16      0.00
    9   29    4     -5.04      0.00
    8   29    4     -1.36      0.00
    7   29    4     -2.36      0.00
    6   29    4      2.40      0.00
    5   29    4      2.51      0.00
    4   29    4     -5.07      0.00
    3   29    4     -8.39      0.00
    2   29    4     -7.33      0.00
    1   29    4     -0.32      0.00
   21   30    4      2.54      0.00
   20   30    4     -8.74      0.00
   19   30    4    -11.17      0.00
   18   30    4      3.16      0.00
   17   30    4     -0.96      0.00
   16   30    4     -0.04      0.00
   15   30    4      5.35      0.00
   14   30    4      3.61      0.00
   13   30    4      3.37      0.00
   12   30    4     -3.53      0.00
   11   30    4     -3.80      0.00
   10   30    4      4.67      0.00
    9   30    4      3.34      0.00
    8   30    4      5.91      0.00
    7   30    4     -0.16      0.00
    6   30    4     -1.21      0.00
    5   30    4    -10.15      0.00
    4   30    4     -3.85      0.00
    3   30    4     -2.97      0.00
    2   30    4      1.55      0.00
    1   30    4     -4.34      0.00
    0   30    4      0.93      0.00
   20   31    4    -13.06      0.00
   19   31    4     -7.61      0.00
   18   31    4    -12.59      0.00
   17   31    4     -0.57      0.00
   16   31    4     -1.32      0.00
   15   31    4     -0.79      0.00
   14   31    4     -4.27      0.00
   13   31    4      5.86      0.00
   12   31    4      3.99      0.00
   11   31    4     -4.69      0.00
   10   31    4     -7.63      0.00
    9   31    4      1.07      0.00
    8   31    4     -0.59      0.00
    7   31    4      2.89      0.00
    6   31    4      1.85      0.00
    5   31    4      4.24      0.00
    4   31    4      5.45      0.00
    3   31    4      5.20      0.00
    2   31    4     -4.11      0.00
    1   31    4     -2.10      0.00
   18   32    4      0.44      0.00
   17   32    4     -2.41      0.00
   16   32    4     -5.49      0.00
   15   32    4      0.10      0.00
   14   32    4      6.68      0.00
   13   32    4     -3.22      0.00
   12   32    4      6.49      0.00
   11   32    4      1.50      0.00
   10   32    4     -1.20      0.00
    9   32    4      5.11      0.00
    8   32    4      4.71      0.00
    7   32    4     -3.72      0.00
    6   32    4      1.61      0.00
    5   32    4      3.38      0.00
    4   32    4      2.09      0.00
    3   32    4     -0.82      0.00
    2   32    4     -5.01      0.00
    1   32    4     -2.60      0.00
    0   32    4      8.35      0.00
   16   33    4      1.61      0.00
   15   33    4    -13.20      0.00
   14   33    4      9.57      0.00
   13   33    4     -4.88      0.00
   12   33    4      0.87      0.00
   11   33    4      1.92      0.00
   10   33    4     -0.03      0.00
    9   33    4      1.14      0.00
    8   33    4     -9.56      0.00
    7   33    4      0.57      0.00
    6   33    4      0.29      0.00
    5   33    4     -0.47      0.00
    4   33    4     -7.92      0.00
    3   33    4      2.85      0.00
    2   33    4      2.96      0.00
    1   33    4     -0.95      0.00
   14   34    4     -0.32      0.00
   13   34    4    -11.01      0.00
   12   34    4    -11.11      0.00
   11   34    4     -0.07      0.00
   10   34    4      9.90      0.00
    9   34    4      1.95      0.00
    8   34    4      2.49      0.00
    7   34    4      4.92      0.00
    6   34    4      2.72      0.00
    5   34    4      3.20      0.00
    4   34    4      0.13      0.00
    3   34    4      1.36      0.00
    2   34    4     -1.79      0.00
    1   34    4     -5.33      0.00
    0   34    4      1.66      0.00
   12   35    4     -4.33      0.00
   11   35    4     -4.58      0.00
   10   35    4      0.53      0.00
    9   35    4     -5.00      0.00
    8   35    4     -2.69      0.00
    7   35    4     -0.32      0.00
    6   35    4      4.40      0.00
    5   35    4      4.55      0.00
    4   35    4     -9.91      0.00
    3   35    4     -7.49      0.00
    2   35    4      1.12      0.00
    1   35    4      0.16      0.00
    8   36    4     -7.60      0.00
    7   36    4     -3.35      0.00
    6   36    4      0.08      0.00
    5   36    4     -3.91      0.00
    4   36    4      4.24      0.00
    3   36    4      3.92      0.00
    2   36    4     -4.38      0.00
    1   36    4     -0.25      0.00
    0   36    4     -2.59      0.00
    2   37    4      3.47      0.00
    1   37    4      6.47      0.00
    1    2    5      2.82      0.00
    0    2    5    -15.26      0.00
    2    3    5    -79.96      0.00
    1    3    5     24.79      0.00
    3    4    5    -40.66      0.00
    2    4    5     13.30      0.00
    1    4    5     68.79      0.00
    0    4    5     57.42      0.00
    4    5    5    -83.59      0.00
    3    5    5     84.68      0.00
    2    5    5    121.43      0.00
    1    5    5    -64.53      0.00
    5    6    5     15.78      0.00
    4    6    5     -4.12      0.00
    3    6    5     69.12      0.00
    2    6    5    -33.22      0.00
    1    6    5    -78.04      0.00
    0    6    5     33.41      0.00
    6    7    5     14.11      0.00
    5    7    5    -13.76      0.00
    4    7    5     14.09      0.00
    3    7    5     21.25      0.00
    2    7    5     77.43      0.00
    1    7    5    -14.94      0.00
    7    8    5      6.23      0.00
    6    8    5      9.81      0.00
    5    8    5     -9.61      0.00
    4    8    5     10.13      0.00
    3    8    5     16.32      0.00
    2    8    5     -9.98      0.00
    1    8    5    -22.05      0.00
    0    8    5      1.22      0.00
    8    9    5     14.25      0.00
    7    9    5     -1.61      0.00
    6    9    5     17.34      0.00
    5    9    5      9.96      0.00
    4    9    5     11.22      0.00
    3    9    5      1.30      0.00
    2    9    5      6.86      0.00
    1    9    5      5.93      0.00
    9   10    5     -0.44      0.00
    8   10    5    -15.75      0.00
    7   10    5     28.01      0.00
    6   10    5    -11.43      0.00
    5   10    5     -8.75      0.00
    4   10    5    -22.91      0.00
    3   10    5    -46.40      0.00
    2   10    5     14.46      0.00
    1   10    5     21.46      0.00
    0   10    5     -5.69      0.00
   10   11    5      4.80      0.00
    9   11    5      6.95      0.00
    8   11    5    -11.73      0.00
    7   11    5     -4.02      0.00
    6   11    5    -37.41      0.00
    5   11    5    -11.49      0.00
    4   11    5     18.30      0.00
    3   11    5     -6.15      0.00
    2   11    5      0.71      0.00
    1   11    5     19.24      0.00
   11   12    5     -3.44      0.00
   10   12    5      1.66      0.00
    9   12    5      9.19      0.00
    8   12    5     -6.54      0.00
    7   12    5      1.77      0.00
    6   12    5      4.61      0.00
    5   12    5    -11.83      0.00
    4   12    5     18.87      0.00
    3   12    5    -16.30      0.00
    2   12    5     11.28      0.00
    1   12    5     -7.50      0.00
    0   12    5    -35.29      0.00
   12   13    5     -3.52      0.00
   11   13    5      3.05      0.00
   10   13    5     -1.75      0.00
    9   13    5     -2.75      0.00
    8   13    5      2.75      0.00
    7   13    5      0.87      0.00
    6   13    5     -0.97      0.00
    5   13    5     -4.87      0.00
    4   13    5      2.01      0.00
    3   13    5     -5.80      0.00
    2   13    5      5.20      0.00
    1   13    5     18.15      0.00
   13   14    5     -2.05      0.00
   12   14    5     -1.23      0.00
   11   14    5      1.91      0.00
   10   14    5     -1.56      0.00
    9   14    5     -1.03      0.00
    8   14    5      7.89      0.00
    7   14    5     -2.83      0.00
    6   14    5      4.74      0.00
    5   14    5      2.54      0.00
    4   14    5      0.19      0.00
    3   14    5      0.30      0.00
    2   14    5      3.20      0.00
    1   14    5     11.10      0.00
    0   14    5     -8.98      0.00
   14   15    5      5.42      0.00
   13   15    5      5.60      0.00
   12   15    5      4.21      0.00
   11   15    5      6.23      0.00
   10   15    5      9.45      0.00
    9   15    5      3.53      0.00
    8   15    5      8.16      0.00
    7   15    5     -6.65      0.00
    6   15    5      6.41      0.00
    5   15    5    -15.12      0.00
    4   15    5      0.69      0.00
    3   15    5     12.37      0.00
    2   15    5      0.06      0.00
    1   15    5     -0.81      0.00
   15   16    5      7.26      0.00
   14   16    5      1.68      0.00
   13   16    5      5.29      0.00
   12   16    5      8.12      0.00
   11   16    5     -4.07      0.00
   10   16    5     -4.36      0.00
    9   16    5      5.21      0.00
    8   16    5      3.91      0.00
    7   16    5     18.12      0.00
    6   16    5      6.32      0.00
    5   16    5     -1.09      0.00
    4   16    5      3.31      0.00
    3   16    5     12.81      0.00
    2   16    5     -7.03      0.00
    1   16    5      1.71      0.00
    0   16    5     -9.35      0.00
   16   17    5      1.15      0.00
   15   17    5     -0.98      0.00
   14   17    5      0.22      0.00
   13   17    5     -3.45      0.00
   12   17    5     -2.36      0.00
   11   17    5     -1.78      0.00
   10   17    5      6.95      0.00
    9   17    5     -1.84      0.00
    8   17    5      8.45      0.00
    7   17    5      5.13      0.00
    6   17    5      4.89      0.00
    5   17    5    -17.61      0.00
    4   17    5     -3.81      0.00
    3   17    5     -0.74      0.00
    2   17    5     -8.95      0.00
    1   17    5     10.28      0.00
   17   18    5     -2.25      0.00
   16   18    5     -4.62      0.00
   15   18    5      4.70      0.00
   14   18    5      3.40      0.00
   13   18    5     -0.51      0.00
   12   18    5      0.32      0.00
   11   18    5      2.19      0.00
   10   18    5     -2.19      0.00
    9   18    5      0.94      0.00
    8   18    5      2.90      0.00
    7   18    5      3.66      0.00
    6   18    5     -0.65      0.00
    5   18    5      2.24      0.00
    4   18    5      9.83      0.00
    3   18    5      2.52      0.00
    2   18    5    -12.77      0.00
    1   18    5      2.69      0.00
    0   18    5      3.66      0.00
   18   19    5      4.53      0.00
   17   19    5     -0.31      0.00
   16   19    5      0.03      0.00
   15   19    5     -0.58      0.00
   14   19    5     -5.23      0.00
   13   19    5      2.73      0.00
   12   19    5     -0.25      0.00
   11   19    5      4.43      0.00
   10   19    5     -6.06      0.00
    9   19    5      8.06      0.00
    8   19    5      1.56      0.00
    7   19    5      1.96      0.00
    6   19    5     -1.63      0.00
    5   19    5      0.32      0.00
    4   19    5      2.93      0.00
    3   19    5     -7.76      0.00
    2   19    5     -3.85      0.00
    1   19    5      2.23      0.00
   19   20    5     -5.07      0.00
   18   20    5     -1.53      0.00
   17   20    5      4.01      0.00
   16   20    5     -4.07      0.00
   15   20    5     -3.10      0.00
   14   20    5      0.93      0.00
   13   20    5      0.42      0.00
   12   20    5     -2.05      0.00
   11   20    5      0.84      0.00
   10   20    5     -7.18      0.00
    9   20    5     -4.14      0.00
    8   20    5      2.63      0.00
    7   20    5     -5.06      0.00
    6   20    5     -5.44      0.00
    5   20    5      2.09      0.00
    4   20    5      1.62      0.00
    3   20    5     -1.75      0.00
    2   20    5      6.20      0.00
    1   20    5      7.54      0.00
    0   20    5     -1.76      0.00
   20   21    5      4.29      0.00
   19   21    5      6.03      0.00
   18   21    5     -1.23      0.00
   17   21    5     -1.00      0.00
   16   21    5      4.17      0.00
   15   21    5      4.87      0.00
   14   21    5     -1.97      0.00
   13   21    5     -3.85      0.00
   12   21    5     -3.64      0.00
   11   21    5      5.24      0.00
   10   21    5      7.29      0.00
    9   21    5     -5.62      0.00
    8   21    5     -0.06      0.00
    7   21    5      0.12      0.00
    6   21    5     -2.58      0.00
    5   21    5     -0.91      0.00
    4   21    5     -1.97      0.00
    3   21    5      0.93      0.00
    2   21    5     -7.89      0.00
    1   21    5     -4.37      0.00
   21   22    5     -0.12      0.00
   20   22    5     -2.01      0.00
   19   22    5      1.99      0.00
   18   22    5      4.72      0.00
   17   22    5     -1.34      0.00
   16   22    5     -3.94      0.00
   15   22    5      4.08      0.00
   14   22    5      9.74      0.00
   13   22    5     -1.41      0.00
   12   22    5     -1.00      0.00
   11   22    5      5.33      0.00
   10   22    5     -0.58      0.00
    9   22    5     -0.11      0.00
    8   22    5     -0.72      0.00
    7   22    5      4.76      0.00
    6   22    5     -0.24      0.00
    5   22    5     -4.06      0.00
    4   22    5      2.42      0.00
    3   22    5      6.76      0.00
    2   22    5     -0.07      0.00
    1   22    5     -2.30      0.00
    0   22    5      4.24      0.00
   22   23    5      0.01      0.00
   21   23    5      2.63      0.00
   20   23    5     -2.48      0.00
   19   23    5      2.35      0.00
   18   23    5     -8.75      0.00
   17   23    5     -1.91      0.00
   16   23    5     -0.22      0.00
   15   23    5      8.77      0.00
   14   23    5      5.46      0.00
   13   23    5     -1.39      0.00
   12   23    5      1.91      0.00
   11   23    5     -4.12      0.00
   10   23    5      4.48      0.00
    9   23    5      2.93      0.00
    8   23    5      3.65      0.00
    7   23    5     -5.81      0.00
    6   23    5     -0.01      0.00
    5   23    5      9.75      0.00
    4   23    5     -0.40      0.00
    3   23    5     -2.44      0.00
    2   23    5      0.01      0.00
    1   23    5     -0.14      0.00
   23   24    5     -5.77      0.00
   22   24    5      8.65      0.00
   21   24    5      4.81      0.00
   20   24    5     -4.67      0.00
   19   24    5     -4.07      0.00
   18   24    5     -1.79      0.00
   17   24    5     -1.18      0.00
   16   24    5      5.23      0.00
   15   24    5      0.70      0.00
   14   24    5      6.00      0.00
   13   24    5      7.46      0.00
   12   24    5     -2.89      0.00
   11   24    5     -2.92      0.00
   10   24    5     -3.48      0.00
    9   24    5     -2.80      0.00
    8   24    5     -0.19      0.00
    7   24    5     -1.90      0.00
    6   24    5     -4.21      0.00
    5   24    5     -5.77      0.00
    4   24    5     -2.97      0.00
    3   24    5      0.13      0.00
    2   24    5     -2.97      0.00
    1   24    5      4.60      0.00
    0   24    5     10.64      0.00
   24   25    5     -0.43      0.00
   23   25    5      3.23      0.00
   22   25    5      0.07      0.00
   21   25    5      6.81      0.00
   20   25    5     -7.56      0.00
   19   25    5     -4.77      0.00
   18   25    5     -2.36      0.00
   17   25    5     -6.20      0.00
   16   25    5     -1.89      0.00
   15   25    5     11.76      0.00
   14   25    5      2.04      0.00
   13   25    5      8.68      0.00
   12   25    5     -6.66      0.00
   11   25    5     10.60      0.00
   10   25    5     -8.09      0.00
    9   25    5     -2.19      0.00
    8   25    5      2.69      0.00
    7   25    5      1.37      0.00
    6   25    5      1.12      0.00
    5   25    5      2.56      0.00
    4   25    5      3.46      0.00
    3   25    5      0.20      0.00
    2   25    5     -2.60      0.00
    1   25    5      1.75      0.00
   25   26    5      4.29      0.00
   24   26    5     11.61      0.00
   23   26    5     -3.20      0.00
   22   26    5      1.98      0.00
   21   26    5     -7.81      0.00
   20   26    5      3.81      0.00
   19   26    5      5.40      0.00
   18   26    5     -5.92      0.00
   17   26    5      1.07      0.00
   16   26    5     -6.33      0.00
   15   26    5      5.42      0.00
   14   26    5      3.13      0.00
   13   26    5      1.52      0.00
   12   26    5      0.20      0.00
   11   26    5      0.83      0.00
   10   26    5      3.46      0.00
    9   26    5     -1.54      0.00
    8   26    5      0.11      0.00
    7   26    5      1.26      0.00
    6   26    5      3.40      0.00
    5   26    5      3.21      0.00
    4   26    5     -3.37      0.00
    3   26    5     -4.89      0.00
    2   26    5      2.98      0.00
    1   26    5      1.48      0.00
    0   26    5      8.18      0.00
   25   27    5     -5.45      0.00
   24   27    5      5.03      0.00
   23   27    5      2.05      0.00
   22   27    5     -0.63      0.00
   21   27    5     -0.03      0.00
   20   27    5      4.87      0.00
   19   27    5      4.91      0.00
   18   27    5     -1.37      0.00
   17   27    5     -0.62      0.00
   16   27    5      1.68      0.00
   15   27    5     -3.45      0.00
   14   27    5      7.19      0.00
   13   27    5     -7.83      0.00
   12   27    5      0.78      0.00
   11   27    5      0.26      0.00
   10   27    5      3.95      0.00
    9   27    5     -0.56      0.00
    8   27    5     -3.28      0.00
    7   27    5      2.24      0.00
    6   27    5      1.90      0.00
    5   27    5      0.71      0.00
    4   27    5      2.52      0.00
    3   27    5     -3.39      0.00
    2   27    5      3.93      0.00
    1   27    5     -2.32      0.00
   24   28    5      0.00      0.00
   23   28    5     -7.66      0.00
   22   28    5     -9.09      0.00
   21   28    5      2.32      0.00
   20   28    5     -4.69      0.00
   19   28    5      0.76      0.00
   18   28    5      9.53      0.00
   17   28    5      4.12      0.00
   16   28    5      5.05      0.00
   15   28    5     -7.57      0.00
   14   28    5      0.71      0.00
   13   28    5      6.61      0.00
   12   28    5      2.35      0.00
   11   28    5     -1.23      0.00
   10   28    5      9.78      0.00
    9   28    5     -6.64      0.00
    8   28    5     -2.38      0.00
    7   28    5      6.19      0.00
    6   28    5      0.50      0.00
    5   28    5     -5.97      0.00
    4   28    5      1.34      0.00
    3   28    5     -2.10      0.00
    2   28    5      2.91      0.00
    1   28    5     -3.70      0.00
    0   28    5     -1.47      0.00
   22   29    5      7.43      0.00
   21   29    5      4.36      0.00
   20   29    5      2.00      0.00
   19   29    5     -7.77      0.00
   18   29    5      6.54      0.00
   17   29    5      8.49      0.00
   16   29    5     -0.90      0.00
   15   29    5      6.03      0.00
   14   29    5      4.66      0.00
   13   29    5      3.27      0.00
   12   29    5      2.57      0.00
   11   29    5      6.82      0.00
   10   29    5      2.20      0.00
    9   29    5     -1.15      0.00
    8   29    5      1.42      0.00
    7   29    5      3.84      0.00
    6   29    5      3.12      0.00
    5   29    5     -0.52      0.00
    4   29    5      1.35      0.00
    3   29    5     -3.26      0.00
    2   29    5     -0.16      0.00
    1   29    5      1.35      0.00
   21   30    5      6.19      0.00
   20   30    5     -0.81      0.00
   19   30    5      3.42      0.00
   18   30    5     -1.58      0.00
   17   30    5      4.45      0.00
   16   30    5      6.10      0.00
   15   30    5    -12.14      0.00
   14   30    5      2.61      0.00
   13   30    5      0.57      0.00
   12   30    5     -0.69      0.00
   11   30    5      1.07      0.00
   10   30    5     -2.06      0.00
    9   30    5     -1.55      0.00
    8   30    5      1.59      0.00
    7   30    5      2.14      0.00
    6   30    5     -6.42      0.00
    5   30    5      0.48      0.00
    4   30    5      0.01      0.00
    3   30    5      6.62      0.00
    2   30    5     -1.16      0.00
    1   30    5    -10.27      0.00
    0   30    5     -0.14      0.00
   20   31    5      5.63      0.00
   19   31    5    -10.37      0.00
   18   31    5     -1.40      0.00
   17   31    5      2.52      0.00
   16   31    5    -11.00      0.00
   15   31    5      0.24      0.00
   14   31    5     -3.18      0.00
   13   31    5     -2.12      0.00
   12   31    5      7.95      0.00
   11   31    5      7.42      0.00
   10   31    5      2.70      0.00
    9   31    5      0.49      0.00
    8   31    5     -1.29      0.00
    7   31    5      8.55      0.00
    6   31    5     -0.70      0.00
    5   31    5      1.79      0.00
    4   31    5     -0.93      0.00
    3   31    5      1.37      0.00
    2   31    5     -7.07      0.00
    1   31    5      0.18      0.00
   18   32    5      9.87      0.00
   17   32    5      6.57      0.00
   16   32    5     -7.02      0.00
   15   32    5     -1.11      0.00
   14   32    5      2.66      0.00
   13   32    5      2.78      0.00
   12   32    5      1.78      0.00
   11   32    5     -9.01      0.00
   10   32    5     -5.82      0.00
    9   32    5      0.87      0.00
    8   32    5      0.12      0.00
    7   32    5     -2.27      0.00
    6   32    5      0.87      0.00
    5   32    5     -2.10      0.00
    4   32    5     -3.51      0.00
    3   32    5     -3.17      0.00
    2   32    5      0.17      0.00
    1   32    5     -1.45      0.00
    0   32    5      1.23      0.00
   16   33    5      7.49      0.00
   15   33    5     -1.40      0.00
   14   33    5      2.35      0.00
   13   33    5      2.58      0.00
   12   33    5      1.26      0.00
   11   33    5    -12.19      0.00
   10   33    5     -1.74      0.00
    9   33    5     -5.06      0.00
    8   33    5    -13.44      0.00
    7   33    5      9.69      0.00
    6   33    5     -2.99      0.00
    5   33    5     11.81      0.00
    4   33    5      4.51      0.00
    3   33    5      0.48      0.00
    2   33    5      0.72      0.00
    1   33    5      2.58      0.00
   14   34    5    -10.12      0.00
   13   34    5      2.90      0.00
   12   34    5     10.76      0.00
   11   34    5      2.69      0.00
   10   34    5    -14.38      0.00
    9   34    5     13.07      0.00
    8   34    5      9.07      0.00
    7   34    5     -1.82      0.00
    6   34    5      8.21      0.00
    5   34    5     -7.06      0.00
    4   34    5     -0.14      0.00
    3   34    5     -1.53      0.00
    2   34    5      3.70      0.00
    1   34    5     -5.02      0.00
    0   34    5    -11.33      0.00
   11   35    5     15.93      0.00
   10   35    5     -8.10      0.00
    9   35    5     -3.19      0.00
    8   35    5      9.56      0.00
    7   35    5      2.71      0.00
    6   35    5     -0.81      0.00
    5   35    5     -7.40      0.00
    4   35    5      1.15      0.00
    3   35    5     -0.97      0.00
    2   35    5     -9.43      0.00
    1   35    5      3.26      0.00
    8   36    5    -18.62      0.00
    7   36    5    -12.54      0.00
    6   36    5     -3.37      0.00
    5   36    5    -14.71      0.00
    4   36    5      1.16      0.00
    3   36    5     -6.26      0.00
    2   36    5     -7.30      0.00
    1   36    5      1.38      0.00
    0   36    5     -5.42      0.00
    0    0    6    589.27      0.00
    1    1    6    -34.88      0.00
    1    2    6     -1.37      0.00
    0    2    6   -167.68      0.00
    2    2    6     29.98      0.00
    2    3    6    -68.26      0.00
    1    3    6     76.46      0.00
    3    3    6    -94.58      0.00
    3    4    6     77.79      0.00
    2    4    6     21.90      0.00
    1    4    6     49.95      0.00
    0    4    6     84.38      0.00
    4    4    6     84.18      0.00
    4    5    6    -36.28      0.00
    3    5    6    -83.84      0.00
    2    5    6    -70.05      0.00
    1    5    6    -81.30      0.00
    5    5    6    141.56      0.00
    5    6    6    -57.26      0.00
    4    6    6     -6.00      0.00
    3    6    6    -10.14      0.00
    2    6    6     -2.08      0.00
    1    6    6     14.84      0.00
    0    6    6    -10.82      0.00
    6    6    6     43.80      0.00
    6    7    6     17.50      0.00
    5    7    6    -30.40      0.00
    4    7    6    -28.68      0.00
    3    7    6    -39.92      0.00
    2    7    6     21.19      0.00
    1    7    6    -72.56      0.00
    7    7    6     43.11      0.00
    7    8    6    -51.93      0.00
    6    8    6      1.61      0.00
    5    8    6      0.32      0.00
    4    8    6      7.83      0.00
    3    8    6     21.41      0.00
    2    8    6     -4.34      0.00
    1    8    6    -40.45      0.00
    0    8    6     35.63      0.00
    8    8    6     -7.53      0.00
    8    9    6     -1.76      0.00
    7    9    6     11.08      0.00
    6    9    6     -1.28      0.00
    5    9    6      0.92      0.00
    4    9    6    -13.06      0.00
    3    9    6     16.42      0.00
    2    9    6      0.73      0.00
    1    9    6      7.72      0.00
    9    9    6     -5.54      0.00
    9   10    6     28.04      0.00
    8   10    6     15.28      0.00
    7   10    6      9.51      0.00
    6   10    6    -19.38      0.00
    5   10    6      5.86      0.00
    4   10    6     -9.85      0.00
    3   10    6     -4.03      0.00
    2   10    6    -20.03      0.00
    1   10    6     58.56      0.00
    0   10    6    102.91      0.00
   10   10    6     26.97      0.00
   10   11    6    -10.29      0.00
    9   11    6    -21.26      0.00
    8   11    6     -5.92      0.00
    7   11    6      4.08      0.00
    6   11    6     -0.10      0.00
    5   11    6     14.07      0.00
    4   11    6      7.75      0.00
    3   11    6     34.97      0.00
    2   11    6     -7.88      0.00
    1   11    6     -0.06      0.00
   11   11    6      7.15      0.00
   11   12    6     -2.53      0.00
   10   12    6    -10.14      0.00
    9   12    6      4.15      0.00
    8   12    6     11.04      0.00
    7   12    6      6.19      0.00
    6   12    6      0.88      0.00
    5   12    6     -1.64      0.00
    4   12    6     -6.03      0.00
    3   12    6      3.74      0.00
    2   12    6     12.82      0.00
    1   12    6      0.29      0.00
    0   12    6      8.71      0.00
   12   12    6     -7.11      0.00
   12   13    6     -3.88      0.00
   11   13    6      0.14      0.00
   10   13    6     -0.05      0.00
    9   13    6     -1.16      0.00
    8   13    6     -6.51      0.00
    7   13    6      5.20      0.00
    6   13    6    -13.93      0.00
    5   13    6      6.98      0.00
    4   13    6      3.09      0.00
    3   13    6    -17.65      0.00
    2   13    6     14.94      0.00
    1   13    6      9.14      0.00
   13   13    6     -0.56      0.00
   13   14    6     -8.83      0.00
   12   14    6      7.52      0.00
   11   14    6      1.67      0.00
   10   14    6     -0.49      0.00
    9   14    6      1.65      0.00
    8   14    6      0.65      0.00
    7   14    6      5.40      0.00
    6   14    6    -10.56      0.00
    5   14    6     15.84      0.00
    4   14    6      2.94      0.00
    3   14    6    -11.23      0.00
    2   14    6      8.92      0.00
    1   14    6    -12.88      0.00
    0   14    6      5.31      0.00
   14   14    6    -11.41      0.00
   14   15    6     -5.48      0.00
   13   15    6     10.39      0.00
   12   15    6     -1.20      0.00
   11   15    6     -2.57      0.00
   10   15    6      4.72      0.00
    9   15    6     -0.12      0.00
    8   15    6    -11.46      0.00
    7   15    6      1.47      0.00
    6   15    6     -1.51      0.00
    5   15    6      4.08      0.00
    4   15    6     -8.20      0.00
    3   15    6      3.08      0.00
    2   15    6      9.77      0.00
    1   15    6     -3.53      0.00
   15   15    6      7.88      0.00
   15   16    6      2.88      0.00
   14   16    6      1.43      0.00
   13   16    6      4.26      0.00
   12   16    6     -4.51      0.00
   11   16    6     -0.38      0.00
   10   16    6      0.41      0.00
    9   16    6      4.56      0.00
    8   16    6      7.23      0.00
    7   16    6      2.93      0.00
    6   16    6      9.00      0.00
    5   16    6     -9.00      0.00
    4   16    6     -7.30      0.00
    3   16    6      3.47      0.00
    2   16    6      8.22      0.00
    1   16    6    -11.31      0.00
    0   16    6     -2.75      0.00
   16   16    6     -0.22      0.00
   16   17    6     -2.67      0.00
   15   17    6     -4.77      0.00
   14   17    6     -0.53      0.00
   13   17    6      0.88      0.00
   12   17    6      1.26      0.00
   11   17    6      5.29      0.00
   10   17    6      4.12      0.00
    9   17    6     -2.16      0.00
    8   17    6     -8.41      0.00
    7   17    6      3.38      0.00
    6   17    6      3.03      0.00
    5   17    6     10.91      0.00
    4   17    6      9.23      0.00
    3   17    6      9.69      0.00
    2   17    6      3.26      0.00
    1   17    6      5.69      0.00
   17   17    6      4.34      0.00
   17   18    6     -4.87      0.00
   16   18    6     -1.55      0.00
   15   18    6      2.93      0.00
   14   18    6      0.92      0.00
   13   18    6      2.58      0.00
   12   18    6     -1.59      0.00
   11   18    6      0.24      0.00
   10   18    6      4.02      0.00
    9   18    6      4.04      0.00
    8   18    6     -6.01      0.00
    7   18    6     10.87      0.00
    6   18    6     -0.65      0.00
    5   18    6    -11.64      0.00
    4   18    6      8.78      0.00
    3   18    6      5.27      0.00
    2   18    6     -4.43      0.00
    1   18    6     -4.62      0.00
    0   18    6      9.13      0.00
   18   18    6     -4.80      0.00
   18   19    6     -1.23      0.00
   17   19    6     -0.77      0.00
   16   19    6      1.67      0.00
   15   19    6      1.68      0.00
   14   19    6     -4.36      0.00
   13   19    6     -1.17      0.00
   12   19    6     -3.92      0.00
   11   19    6     -1.71      0.00
   10   19    6      0.40      0.00
    9   19    6     -1.73      0.00
    8   19    6     -7.44      0.00
    7   19    6     -5.09      0.00
    6   19    6     -4.83      0.00
    5   19    6      1.02      0.00
    4   19    6      3.28      0.00
    3   19    6      4.34      0.00
    2   19    6      0.45      0.00
    1   19    6      4.81      0.00
   19   19    6      5.72      0.00
   19   20    6      1.37      0.00
   18   20    6     -0.88      0.00
   17   20    6     -2.85      0.00
   16   20    6      0.83      0.00
   15   20    6     -1.88      0.00
   14   20    6     -3.07      0.00
   13   20    6      2.79      0.00
   12   20    6      3.56      0.00
   11   20    6     -7.42      0.00
   10   20    6     -1.64      0.00
    9   20    6      5.11      0.00
    8   20    6     -4.52      0.00
    7   20    6     -3.33      0.00
    6   20    6      3.73      0.00
    5   20    6     11.18      0.00
    4   20    6     -1.47      0.00
    3   20    6     -5.38      0.00
    2   20    6     -1.10      0.00
    1   20    6     11.44      0.00
    0   20    6     -2.22      0.00
   20   20    6     10.18      0.00
   20   21    6     -3.94      0.00
   19   21    6      1.06      0.00
   18   21    6     -0.65      0.00
   17   21    6      1.30      0.00
   16   21    6     -0.37      0.00
   15   21    6      0.02      0.00
   14   21    6      2.87      0.00
   13   21    6      2.79      0.00
   12   21    6     -4.77      0.00
   11   21    6     -5.16      0.00
   10   21    6     -5.08      0.00
    9   21    6     -0.94      0.00
    8   21    6     -1.48      0.00
    7   21    6     -0.28      0.00
    6   21    6     -0.73      0.00
    5   21    6     -1.72      0.00
    4   21    6      6.81      0.00
    3   21    6      4.84      0.00
    2   21    6     -4.43      0.00
    1   21    6      6.69      0.00
   21   21    6      7.57      0.00
   21   22    6     10.72      0.00
   20   22    6     -0.42      0.00
   19   22    6     -6.67      0.00
   18   22    6      4.63      0.00
   17   22    6     -3.89      0.00
   16   22    6     -3.32      0.00
   15   22    6      2.45      0.00
   14   22    6     -5.33      0.00
   13   22    6     -3.21      0.00
   12   22    6     -1.71      0.00
   11   22    6     -0.12      0.00
   10   22    6      0.53      0.00
    9   22    6     -3.25      0.00
    8   22    6     -3.75      0.00
    7   22    6      3.76      0.00
    6   22    6     -2.70      0.00
    5   22    6      8.51      0.00
    4   22    6      1.87      0.00
    3   22    6      7.94      0.00
    2   22    6      8.42      0.00
    1   22    6      0.67      0.00
    0   22    6     -0.72      0.00
   22   22    6     -2.71      0.00
   22   23    6      2.94      0.00
   21   23    6      3.68      0.00
   20   23    6     -0.74      0.00
   19   23    6      0.06      0.00
   18   23    6     -1.21      0.00
   17   23    6     -3.87      0.00
   16   23    6      2.16      0.00
   15   23    6      1.05      0.00
   14   23    6      8.32      0.00
   13   23    6      6.02      0.00
   12   23    6      1.53      0.00
   11   23    6      2.86      0.00
   10   23    6     -9.96      0.00
    9   23    6     -5.40      0.00
    8   23    6      5.46      0.00
    7   23    6     -2.78      0.00
    6   23    6      3.03      0.00
    5   23    6     -0.07      0.00
    4   23    6      1.14      0.00
    3   23    6      3.05      0.00
    2   23    6      1.83      0.00
    1   23    6      1.06      0.00
   23   23    6      0.31      0.00
   23   24    6      3.87      0.00
   22   24    6     -5.18      0.00
   21   24    6      2.45      0.00
   20   24    6      3.29      0.00
   19   24    6      1.82      0.00
   18   24    6      0.70      0.00
   17   24    6     -1.37      0.00
   16   24    6     -1.79      0.00
   15   24    6      2.59      0.00
   14   24    6     -0.55      0.00
   13   24    6      2.36      0.00
   12   24    6      2.37      0.00
   11   24    6      1.26      0.00
   10   24    6      0.32      0.00
    9   24    6     -4.53      0.00
    8   24    6      1.04      0.00
    7   24    6     -1.00      0.00
    6   24    6     -9.57      0.00
    5   24    6     11.23      0.00
    4   24    6      5.13      0.00
    3   24    6     -4.25      0.00
    2   24    6      5.81      0.00
    1   24    6      5.15      0.00
    0   24    6     -9.82      0.00
   24   24    6      8.74      0.00
   24   25    6     -0.16      0.00
   23   25    6      1.97      0.00
   22   25    6      4.94      0.00
   21   25    6    -10.06      0.00
   20   25    6     -3.10      0.00
   19   25    6      1.89      0.00
   18   25    6      3.77      0.00
   17   25    6     -7.94      0.00
   16   25    6      1.04      0.00
   15   25    6      0.53      0.00
   14   25    6     11.47      0.00
   13   25    6      1.46      0.00
   12   25    6     -5.22      0.00
   11   25    6     -0.34      0.00
   10   25    6      2.80      0.00
    9   25    6      1.87      0.00
    8   25    6      0.55      0.00
    7   25    6     -2.00      0.00
    6   25    6      0.35      0.00
    5   25    6      2.17      0.00
    4   25    6     -0.34      0.00
    3   25    6      0.48      0.00
    2   25    6      1.06      0.00
    1   25    6     -7.23      0.00
   25   25    6     -5.63      0.00
   25   26    6      0.18      0.00
   24   26    6      0.47      0.00
   23   26    6      6.63      0.00
   22   26    6     -1.61      0.00
   21   26    6      4.42      0.00
   20   26    6      2.01      0.00
   19   26    6     -2.86      0.00
   18   26    6     -3.16      0.00
   17   26    6     -8.48      0.00
   16   26    6     -0.13      0.00
   15   26    6      6.17      0.00
   14   26    6     -6.51      0.00
   13   26    6      6.39      0.00
   12   26    6     -1.48      0.00
   11   26    6     -0.67      0.00
   10   26    6     -3.07      0.00
    9   26    6     -1.38      0.00
    8   26    6     -3.09      0.00
    7   26    6      6.09      0.00
    6   26    6     -2.74      0.00
    5   26    6      2.08      0.00
    4   26    6     -6.74      0.00
    3   26    6     -2.38      0.00
    2   26    6     -3.75      0.00
    1   26    6     -6.61      0.00
    0   26    6     -0.39      0.00
   24   27    6     -3.79      0.00
   23   27    6     -2.30      0.00
   22   27    6      6.11      0.00
   21   27    6     -7.21      0.00
   20   27    6      3.54      0.00
   19   27    6     -3.11      0.00
   18   27    6     -6.73      0.00
   17   27    6      0.06      0.00
   16   27    6      1.18      0.00
   15   27    6     -8.49      0.00
   14   27    6      1.99      0.00
   13   27    6      2.48      0.00
   12   27    6      5.71      0.00
   11   27    6     -4.99      0.00
   10   27    6     -3.78      0.00
    9   27    6      0.18      0.00
    8   27    6      4.52      0.00
    7   27    6     -8.05      0.00
    6   27    6      4.26      0.00
    5   27    6     -6.07      0.00
    4   27    6      3.67      0.00
    3   27    6      1.29      0.00
    2   27    6     -4.04      0.00
    1   27    6      0.89      0.00
   23   28    6     -2.70      0.00
   22   28    6     -6.39      0.00
   21   28    6     -1.48      0.00
   20   28    6     12.12      0.00
   19   28    6      3.45      0.00
   18   28    6     -1.95      0.00
   17   28    6     -1.37      0.00
   16   28    6      7.12      0.00
   15   28    6      5.16      0.00
   14   28    6      1.36      0.00
   13   28    6     -2.44      0.00
   12   28    6     -0.76      0.00
   11   28    6     -1.93      0.00
   10   28    6     -0.20      0.00
    9   28    6      4.30      0.00
    8   28    6      3.07      0.00
    7   28    6     -0.68      0.00
    6   28    6     -3.99      0.00
    5   28    6     -0.26      0.00
    4   28    6      1.10      0.00
    3   28    6      6.11      0.00
    2   28    6      2.55      0.00
    1   28    6     -3.61      0.00
    0   28    6     -0.84      0.00
   22   29    6     -2.85      0.00
   21   29    6     -4.29      0.00
   20   29    6     -0.36      0.00
   19   29    6      3.82      0.00
   18   29    6    -11.06      0.00
   17   29    6     -1.33      0.00
   16   29    6     -0.17      0.00
   15   29    6     -2.23      0.00
   14   29    6      1.81      0.00
   13   29    6      0.61      0.00
   12   29    6     -3.29      0.00
   11   29    6      0.03      0.00
   10   29    6     -1.01      0.00
    9   29    6     -4.57      0.00
    8   29    6      2.02      0.00
    7   29    6      2.40      0.00
    6   29    6     -3.63      0.00
    5   29    6      2.29      0.00
    4   29    6     -1.52      0.00
    3   29    6      5.45      0.00
    2   29    6      2.46      0.00
    1   29    6     -3.27      0.00
   21   30    6     -7.79      0.00
   20   30    6      4.09      0.00
   19   30    6     -3.45      0.00
   18   30    6      8.19      0.00
   17   30    6      6.79      0.00
   16   30    6      3.12      0.00
   15   30    6     -3.36      0.00
   14   30    6     -3.24      0.00
   13   30    6     -4.78      0.00
   12   30    6     -3.14      0.00
   11   30    6      3.86      0.00
   10   30    6      1.54      0.00
    9   30    6      2.08      0.00
    8   30    6      7.68      0.00
    7   30    6      0.96      0.00
    6   30    6     -4.19      0.00
    5   30    6      4.98      0.00
    4   30    6     -1.91      0.00
    3   30    6     -5.22      0.00
    2   30    6      2.16      0.00
    1   30    6     -0.16      0.00
    0   30    6     -0.14      0.00
   19   31    6     -7.46      0.00
   18   31    6      5.70      0.00
   17   31    6      9.24      0.00
   16   31    6     -2.96      0.00
   15   31    6     -4.58      0.00
   14   31    6     -4.68      0.00
   13   31    6      4.83      0.00
   12   31    6      0.40      0.00
   11   31    6      4.49      0.00
   10   31    6      3.45      0.00
    9   31    6      1.46      0.00
    8   31    6      2.45      0.00
    7   31    6     -2.26      0.00
    6   31    6     -4.95      0.00
    5   31    6      4.51      0.00
    4   31    6      4.22      0.00
    3   31    6     -3.32      0.00
    2   31    6     -0.77      0.00
    1   31    6     -0.91      0.00
   18   32    6      4.26      0.00
   17   32    6      0.68      0.00
   16   32    6     -2.28      0.00
   15   32    6     10.37      0.00
   14   32    6     12.27      0.00
   13   32    6      3.73      0.00
   12   32    6      0.38      0.00
   11   32    6      7.03      0.00
   10   32    6     -2.71      0.00
    9   32    6     -4.54      0.00
    8   32    6      4.43      0.00
    7   32    6      9.08      0.00
    6   32    6      0.01      0.00
    5   32    6     -0.35      0.00
    4   32    6     -2.20      0.00
    3   32    6     -1.38      0.00
    2   32    6     -4.00      0.00
    1   32    6     -2.52      0.00
    0   32    6     14.51      0.00
   16   33    6      7.41      0.00
   15   33    6     -3.78      0.00
   14   33    6     20.90      0.00
   13   33    6     10.68      0.00
   12   33    6      8.98      0.00
   11   33    6     -5.40      0.00
   10   33    6      7.33      0.00
    9   33    6      0.37      0.00
    8   33    6      3.02      0.00
    7   33    6      0.44      0.00
    6   33    6      2.24      0.00
    5   33    6     -0.76      0.00
    4   33    6      0.17      0.00
    3   33    6      3.53      0.00
    2   33    6     -0.66      0.00
    1   33    6      2.31      0.00
   13   34    6     -4.02      0.00
   12   34    6      8.18      0.00
   11   34    6     10.50      0.00
   10   34    6    -12.70      0.00
    9   34    6     10.22      0.00
    8   34    6      1.14      0.00
    7   34    6      3.06      0.00
    6   34    6      3.02      0.00
    5   34    6     12.33      0.00
    4   34    6      6.62      0.00
    3   34    6      4.67      0.00
    2   34    6      2.68      0.00
    1   34    6     -5.34      0.00
    0   34    6     -0.92      0.00
   11   35    6     -2.53      0.00
   10   35    6      4.66      0.00
    9   35    6     -4.77      0.00
    8   35    6      4.48      0.00
    7   35    6      5.17      0.00
    6   35    6     -2.01      0.00
    5   35    6      0.10      0.00
    4   35    6      8.95      0.00
    3   35    6     -5.85      0.00
    2   35    6     -0.55      0.00
    1   35    6      7.17      0.00
    7   36    6    -11.31      0.00
    6   36    6      3.47      0.00
    5   36    6     -6.66      0.00
    4   36    6      8.83      0.00
    3   36    6     10.68      0.00
    2   36    6     -0.12      0.00
    1   36    6     -2.74      0.00
    0   36    6      2.92      0.00
    1    2    7     46.87      0.00
    0    2    7    -17.02      0.00
    2    3    7      5.21      0.00
    1    3    7      2.91      0.00
    3    4    7     39.79      0.00
    2    4    7    -14.19      0.00
    1    4    7    -18.94      0.00
    0    4    7    -12.09      0.00
    4    5    7      3.68      0.00
    3    5    7     10.77      0.00
    2    5    7    -66.75      0.00
    1    5    7     27.69      0.00
    5    6    7      8.12      0.00
    4    6    7    -23.17      0.00
    3    6    7    -37.93      0.00
    2    6    7    -17.87      0.00
    1    6    7    -15.00      0.00
    0    6    7     33.50      0.00
    6    7    7      9.80      0.00
    5    7    7     15.94      0.00
    4    7    7    -36.82      0.00
    3    7    7      7.66      0.00
    2    7    7    -13.69      0.00
    1    7    7    -28.84      0.00
    7    8    7     -2.66      0.00
    6    8    7    -13.51      0.00
    5    8    7     -7.04      0.00
    4    8    7    -16.08      0.00
    3    8    7     -1.88      0.00
    2    8    7     35.83      0.00
    1    8    7    -12.46      0.00
    0    8    7      7.04      0.00
    8    9    7     -3.41      0.00
    7    9    7     31.79      0.00
    6    9    7     22.82      0.00
    5    9    7     -7.17      0.00
    4    9    7     -7.65      0.00
    3    9    7      6.39      0.00
    2    9    7     34.43      0.00
    1    9    7     -4.09      0.00
    9   10    7      0.14      0.00
    8   10    7     -1.74      0.00
    7   10    7      8.53      0.00
    6   10    7    -13.10      0.00
    5   10    7    -14.52      0.00
    4   10    7     27.66      0.00
    3   10    7     29.84      0.00
    2   10    7    -20.76      0.00
    1   10    7     -8.77      0.00
    0   10    7      5.85      0.00
   10   11    7    -12.34      0.00
    9   11    7      4.88      0.00
    8   11    7    -12.60      0.00
    7   11    7     -1.24      0.00
    6   11    7     17.79      0.00
    5   11    7    -10.76      0.00
    4   11    7      2.34      0.00
    3   11    7      1.85      0.00
    2   11    7      8.43      0.00
    1   11    7    -10.56      0.00
   11   12    7      1.93      0.00
   10   12    7     10.30      0.00
    9   12    7     -4.49      0.00
    8   12    7      4.37      0.00
    7   12    7     14.98      0.00
    6   12    7     -2.86      0.00
    5   12    7     -1.57      0.00
    4   12    7    -23.96      0.00
    3   12    7    -13.15      0.00
    2   12    7     13.34      0.00
    1   12    7      3.17      0.00
    0   12    7     -5.45      0.00
   12   13    7     -0.96      0.00
   11   13    7     -1.32      0.00
   10   13    7      6.21      0.00
    9   13    7      3.93      0.00
    8   13    7     13.05      0.00
    7   13    7     -3.99      0.00
    6   13    7     -2.59      0.00
    5   13    7     -3.02      0.00
    4   13    7     -1.99      0.00
    3   13    7      4.18      0.00
    2   13    7      5.84      0.00
    1   13    7     -8.89      0.00
   13   14    7      8.30      0.00
   12   14    7     -2.27      0.00
   11   14    7      6.56      0.00
   10   14    7      1.79      0.00
    9   14    7     -2.31      0.00
    8   14    7      6.22      0.00
    7   14    7      7.26      0.00
    6   14    7    -14.01      0.00
    5   14    7     -2.38      0.00
    4   14    7      5.98      0.00
    3   14    7    -15.11      0.00
    2   14    7     -3.40      0.00
    1   14    7     -0.83      0.00
    0   14    7    -10.18      0.00
   14   15    7     -2.46      0.00
   13   15    7      2.54      0.00
   12   15    7     -0.53      0.00
   11   15    7     -2.15      0.00
   10   15    7      4.87      0.00
    9   15    7      5.51      0.00
    8   15    7     -3.36      0.00
    7   15    7     -3.45      0.00
    6   15    7     -1.97      0.00
    5   15    7      5.69      0.00
    4   15    7      5.44      0.00
    3   15    7     -6.61      0.00
    2   15    7      4.81      0.00
    1   15    7      8.91      0.00
   15   16    7     -1.50      0.00
   14   16    7      0.55      0.00
   13   16    7     -4.07      0.00
   12   16    7      4.72      0.00
   11   16    7     -3.07      0.00
   10   16    7      4.25      0.00
    9   16    7      3.23      0.00
    8   16    7     -0.35      0.00
    7   16    7      5.65      0.00
    6   16    7      8.47      0.00
    5   16    7     -1.68      0.00
    4   16    7     -3.74      0.00
    3   16    7     -1.36      0.00
    2   16    7     14.60      0.00
    1   16    7      1.54      0.00
    0   16    7    -14.33      0.00
   16   17    7     -7.64      0.00
   15   17    7      6.05      0.00
   14   17    7     -5.77      0.00
   13   17    7     -2.73      0.00
   12   17    7      2.71      0.00
   11   17    7      1.48      0.00
   10   17    7     -1.56      0.00
    9   17    7      0.13      0.00
    8   17    7     -5.34      0.00
    7   17    7     -2.98      0.00
    6   17    7     -1.64      0.00
    5   17    7     -1.90      0.00
    4   17    7      2.66      0.00
    3   17    7      4.49      0.00
    2   17    7      1.21      0.00
    1   17    7     -5.51      0.00
   17   18    7     -2.69      0.00
   16   18    7      1.12      0.00
   15   18    7      7.19      0.00
   14   18    7      4.85      0.00
   13   18    7     -2.37      0.00
   12   18    7     -3.02      0.00
   11   18    7      9.45      0.00
   10   18    7     -7.22      0.00
    9   18    7     -4.23      0.00
    8   18    7      4.68      0.00
    7   18    7      2.85      0.00
    6   18    7     -1.00      0.00
    5   18    7     -5.14      0.00
    4   18    7      6.67      0.00
    3   18    7      1.62      0.00
    2   18    7     -9.03      0.00
    1   18    7     -7.68      0.00
    0   18    7     -3.66      0.00
   18   19    7     -4.04      0.00
   17   19    7     -3.96      0.00
   16   19    7     -3.27      0.00
   15   19    7      4.93      0.00
   14   19    7     -3.38      0.00
   13   19    7     -0.09      0.00
   12   19    7     -4.03      0.00
   11   19    7      6.11      0.00
   10   19    7      0.76      0.00
    9   19    7      1.93      0.00
    8   19    7      3.40      0.00
    7   19    7     -0.68      0.00
    6   19    7     -3.28      0.00
    5   19    7     -7.92      0.00
    4   19    7     -0.02      0.00
    3   19    7      3.46      0.00
    2   19    7      4.11      0.00
    1   19    7     -5.27      0.00
   19   20    7     -1.15      0.00
   18   20    7     -5.15      0.00
   17   20    7      1.98      0.00
   16   20    7     -1.36      0.00
   15   20    7     -3.25      0.00
   14   20    7     -5.32      0.00
   13   20    7      0.17      0.00
   12   20    7     -0.14      0.00
   11   20    7      1.29      0.00
   10   20    7     -1.69      0.00
    9   20    7     -7.51      0.00
    8   20    7      2.01      0.00
    7   20    7      3.19      0.00
    6   20    7      1.02      0.00
    5   20    7      0.04      0.00
    4   20    7      6.60      0.00
    3   20    7    -10.86      0.00
    2   20    7     -7.30      0.00
    1   20    7      1.26      0.00
    0   20    7     -0.40      0.00
   20   21    7      5.78      0.00
   19   21    7      1.74      0.00
   18   21    7      1.29      0.00
   17   21    7     -1.95      0.00
   16   21    7      3.17      0.00
   15   21    7      5.92      0.00
   14   21    7      3.10      0.00
   13   21    7     -1.64      0.00
   12   21    7     -1.83      0.00
   11   21    7      7.65      0.00
   10   21    7     -2.72      0.00
    9   21    7     -0.71      0.00
    8   21    7      0.53      0.00
    7   21    7     -1.21      0.00
    6   21    7     -2.22      0.00
    5   21    7      0.95      0.00
    4   21    7     -3.40      0.00
    3   21    7     -6.15      0.00
    2   21    7     -2.97      0.00
    1   21    7      1.37      0.00
   21   22    7      2.79      0.00
   20   22    7     -5.08      0.00
   19   22    7      2.53      0.00
   18   22    7     -1.95      0.00
   17   22    7     -2.39      0.00
   16   22    7      0.65      0.00
   15   22    7      1.56      0.00
   14   22    7     -0.12      0.00
   13   22    7     -0.54      0.00
   12   22    7      0.89      0.00
   11   22    7     -1.81      0.00
   10   22    7      9.01      0.00
    9   22    7     -4.01      0.00
    8   22    7     -3.43      0.00
    7   22    7      5.30      0.00
    6   22    7      3.00      0.00
    5   22    7     -6.68      0.00
    4   22    7     -1.24      0.00
    3   22    7      2.26      0.00
    2   22    7     -3.07      0.00
    1   22    7      0.35      0.00
    0   22    7     -2.65      0.00
   22   23    7     -0.36      0.00
   21   23    7     -1.46      0.00
   20   23    7     -3.97      0.00
   19   23    7     -1.57      0.00
   18   23    7     -5.58      0.00
   17   23    7      1.73      0.00
   16   23    7     -0.49      0.00
   15   23    7     -4.78      0.00
   14   23    7     -5.13      0.00
   13   23    7     -9.75      0.00
   12   23    7      1.83      0.00
   11   23    7      2.83      0.00
   10   23    7      0.56      0.00
    9   23    7     -0.17      0.00
    8   23    7      3.02      0.00
    7   23    7     -0.24      0.00
    6   23    7      0.33      0.00
    5   23    7     -2.47      0.00
    4   23    7      1.75      0.00
    3   23    7      5.94      0.00
    2   23    7      6.07      0.00
    1   23    7      6.75      0.00
   23   24    7     -0.77      0.00
   22   24    7     -4.93      0.00
   21   24    7     -1.02      0.00
   20   24    7      2.00      0.00
   19   24    7     -1.42      0.00
   18   24    7      8.99      0.00
   17   24    7     -3.70      0.00
   16   24    7     -4.17      0.00
   15   24    7     -5.44      0.00
   14   24    7      2.86      0.00
   13   24    7     -0.29      0.00
   12   24    7     -1.65      0.00
   11   24    7     -0.22      0.00
   10   24    7     -9.68      0.00
    9   24    7      4.68      0.00
    8   24    7      2.74      0.00
    7   24    7     -4.74      0.00
    6   24    7      9.74      0.00
    5   24    7      2.25      0.00
    4   24    7     -6.52      0.00
    3   24    7     -6.17      0.00
    2   24    7      2.44      0.00
    1   24    7     -2.29      0.00
    0   24    7    -10.01      0.00
   24   25    7     -4.29      0.00
   23   25    7     -5.59      0.00
   22   25    7     -2.93      0.00
   21   25    7     -2.71      0.00
   20   25    7     -5.28      0.00
   19   25    7      5.90      0.00
   18   25    7     -0.91      0.00
   17   25    7      8.58      0.00
   16   25    7     -1.11      0.00
   15   25    7     -3.53      0.00
   14   25    7     -4.74      0.00
   13   25    7      3.24      0.00
   12   25    7     -4.05      0.00
   11   25    7      2.49      0.00
   10   25    7      4.93      0.00
    9   25    7      7.10      0.00
    8   25    7      1.59      0.00
    7   25    7      6.92      0.00
    6   25    7     -1.59      0.00
    5   25    7      2.70      0.00
    4   25    7     -6.24      0.00
    3   25    7     -3.47      0.00
    2   25    7     -1.55      0.00
    1   25    7     -8.19      0.00
   25   26    7     -4.33      0.00
   24   26    7      5.87      0.00
   23   26    7     -9.31      0.00
   22   26    7      5.15      0.00
   21   26    7     -2.30      0.00
   20   26    7     -0.49      0.00
   19   26    7      0.20      0.00
   18   26    7      6.34      0.00
   17   26    7     -3.02      0.00
   16   26    7     -2.77      0.00
   15   26    7      2.19      0.00
   14   26    7      2.57      0.00
   13   26    7     -0.59      0.00
   12   26    7     -9.28      0.00
   11   26    7      5.03      0.00
   10   26    7      4.05      0.00
    9   26    7      0.67      0.00
    8   26    7      1.66      0.00
    7   26    7      5.14      0.00
    6   26    7      2.98      0.00
    5   26    7     -2.83      0.00
    4   26    7      1.76      0.00
    3   26    7      0.86      0.00
    2   26    7      4.51      0.00
    1   26    7     -5.81      0.00
    0   26    7      4.01      0.00
   24   27    7     -6.42      0.00
   23   27    7      0.47      0.00
   22   27    7      8.00      0.00
   21   27    7      1.46      0.00
   20   27    7      4.92      0.00
   19   27    7      4.65      0.00
   18   27    7      3.77      0.00
   17   27    7     -2.32      0.00
   16   27    7     -5.31      0.00
   15   27    7     14.10      0.00
   14   27    7     -1.75      0.00
   13   27    7      5.54      0.00
   12   27    7      0.28      0.00
   11   27    7     -1.18      0.00
   10   27    7      4.80      0.00
    9   27    7    -13.47      0.00
    8   27    7      4.10      0.00
    7   27    7      6.38      0.00
    6   27    7      1.32      0.00
    5   27    7     -0.18      0.00
    4   27    7     -6.07      0.00
    3   27    7     -5.32      0.00
    2   27    7     -4.06      0.00
    1   27    7     -1.88      0.00
   23   28    7      0.69      0.00
   22   28    7     -4.37      0.00
   21   28    7     -2.20      0.00
   20   28    7      4.40      0.00
   19   28    7      7.81      0.00
   18   28    7      3.57      0.00
   17   28    7     11.99      0.00
   16   28    7      5.51      0.00
   15   28    7     -2.95      0.00
   14   28    7      4.48      0.00
   13   28    7     -4.61      0.00
   12   28    7     -3.39      0.00
   11   28    7     -5.56      0.00
   10   28    7      0.98      0.00
    9   28    7     -1.00      0.00
    8   28    7      3.30      0.00
    7   28    7     -5.91      0.00
    6   28    7     -0.40      0.00
    5   28    7     -7.78      0.00
    4   28    7      1.38      0.00
    3   28    7      1.16      0.00
    2   28    7     -4.09      0.00
    1   28    7      2.85      0.00
    0   28    7      7.93      0.00
   22   29    7      1.57      0.00
   21   29    7      6.03      0.00
   20   29    7      8.89      0.00
   19   29    7      0.79      0.00
   18   29    7     -9.79      0.00
   17   29    7     10.60      0.00
   16   29    7      7.11      0.00
   15   29    7      9.00      0.00
   14   29    7      7.12      0.00
   13   29    7     -4.44      0.00
   12   29    7     -5.57      0.00
   11   29    7     -2.59      0.00
   10   29    7      3.23      0.00
    9   29    7     -6.20      0.00
    8   29    7     -0.47      0.00
    7   29    7      9.45      0.00
    6   29    7      0.55      0.00
    5   29    7     -4.26      0.00
    4   29    7      5.86      0.00
    3   29    7      5.46      0.00
    2   29    7      5.08      0.00
    1   29    7      2.08      0.00
   20   30    7     16.42      0.00
   19   30    7     -2.94      0.00
   18   30    7      1.70      0.00
   17   30    7      0.75      0.00
   16   30    7     11.08      0.00
   15   30    7      3.38      0.00
   14   30    7     -1.21      0.00
   13   30    7     -3.00      0.00
   12   30    7     -6.07      0.00
   11   30    7    -10.59      0.00
   10   30    7     -5.31      0.00
    9   30    7      4.81      0.00
    8   30    7     -5.69      0.00
    7   30    7      0.98      0.00
    6   30    7     -0.94      0.00
    5   30    7      0.69      0.00
    4   30    7      5.30      0.00
    3   30    7      1.95      0.00
    2   30    7     -0.65      0.00
    1   30    7      7.07      0.00
    0   30    7     -7.57      0.00
   19   31    7     -9.26      0.00
   18   31    7     -4.26      0.00
   17   31    7     -3.99      0.00
   16   31    7      1.22      0.00
   15   31    7     -3.76      0.00
   14   31    7      5.79      0.00
   13   31    7     -2.89      0.00
   12   31    7      1.24      0.00
   11   31    7      1.73      0.00
   10   31    7      6.07      0.00
    9   31    7     -0.78      0.00
    8   31    7      2.37      0.00
    7   31    7      2.54      0.00
    6   31    7     -8.18      0.00
    5   31    7      4.42      0.00
    4   31    7     -0.06      0.00
    3   31    7     -2.15      0.00
    2   31    7      4.15      0.00
    1   31    7     -6.80      0.00
   17   32    7     10.27      0.00
   16   32    7     -8.82      0.00
   15   32    7      5.91      0.00
   14   32    7     -8.34      0.00
   13   32    7     -6.67      0.00
   12   32    7     -2.78      0.00
   11   32    7     -9.25      0.00
   10   32    7     -0.48      0.00
    9   32    7     -4.39      0.00
    8   32    7     -7.74      0.00
    7   32    7     -5.22      0.00
    6   32    7      0.69      0.00
    5   32    7      7.16      0.00
    4   32    7     -2.52      0.00
    3   32    7      0.29      0.00
    2   32    7     -9.61      0.00
    1   32    7     -2.93      0.00
    0   32    7      3.33      0.00
   15   33    7      1.94      0.00
   14   33    7     -1.81      0.00
   13   33    7     -2.91      0.00
   12   33    7      0.22      0.00
   11   33    7     -0.25      0.00
   10   33    7     -2.81      0.00
    9   33    7      1.85      0.00
    8   33    7      8.12      0.00
    7   33    7     -1.94      0.00
    6   33    7     -6.62      0.00
    5   33    7     -8.59      0.00
    4   33    7     -0.47      0.00
    3   33    7      6.52      0.00
    2   33    7      6.84      0.00
    1   33    7      0.98      0.00
   13   34    7     -3.05      0.00
   12   34    7      5.23      0.00
   11   34    7     -1.84      0.00
   10   34    7     -6.70      0.00
    9   34    7      8.84      0.00
    8   34    7     -7.87      0.00
    7   34    7     10.20      0.00
    6   34    7     -9.27      0.00
    5   34    7     -1.11      0.00
    4   34    7     -9.36      0.00
    3   34    7     -0.95      0.00
    2   34    7      1.40      0.00
    1   34    7     -0.22      0.00
    0   34    7      9.31      0.00
   10   35    7    -16.72      0.00
    9   35    7      2.63      0.00
    8   35    7      3.07      0.00
    7   35    7     10.69      0.00
    6   35    7      7.62      0.00
    5   35    7     -8.51      0.00
    4   35    7     10.11      0.00
    3   35    7     -5.01      0.00
    2   35    7      1.14      0.00
    1   35    7     10.45      0.00
    6   36    7      1.28      0.00
    5   36    7    -13.60      0.00
    4   36    7     -8.67      0.00
    3   36    7      9.44      0.00
    2   36    7      2.39      0.00
    1   36    7      7.59      0.00
    0   36    7      2.82      0.00
    0    0    8    293.82      0.00
    1    1    8   -113.10      0.00
    1    2    8    -47.50      0.00
    0    2    8     70.89      0.00
    2    2    8      4.17      0.00
    2    3    8     17.69      0.00
    1    3    8    -11.73      0.00
    3    3    8    -42.82      0.00
    3    4    8    -58.12      0.00
    2    4    8    -58.17      0.00
    1    4    8    -10.64      0.00
    0    4    8     -3.22      0.00
    4    4    8     52.46      0.00
    4    5    8     31.79      0.00
    3    5    8      7.32      0.00
    2    5    8     24.40      0.00
    1    5    8     76.99      0.00
    5    5    8    -45.27      0.00
    5    6    8     -2.82      0.00
    4    6    8     26.77      0.00
    3    6    8      5.31      0.00
    2    6    8      1.77      0.00
    1    6    8      0.48      0.00
    0    6    8    -28.00      0.00
    6    6    8     10.21      0.00
    6    7    8      0.38      0.00
    5    7    8     -5.47      0.00
    4    7    8    -26.17      0.00
    3    7    8    -10.57      0.00
    2    7    8      2.15      0.00
    1    7    8     41.80      0.00
    7    7    8    -43.66      0.00
    7    8    8     11.09      0.00
    6    8    8     29.89      0.00
    5    8    8     39.23      0.00
    4    8    8     26.54      0.00
    3    8    8      3.95      0.00
    2    8    8     -8.30      0.00
    1    8    8     -6.24      0.00
    0    8    8      5.01      0.00
    8    8    8     12.74      0.00
    8    9    8    -10.29      0.00
    7    9    8     -5.95      0.00
    6    9    8    -12.31      0.00
    5    9    8     -1.58      0.00
    4    9    8    -43.12      0.00
    3    9    8    -31.95      0.00
    2    9    8     -2.05      0.00
    1    9    8      2.90      0.00
    9    9    8      4.50      0.00
    9   10    8      2.15      0.00
    8   10    8      4.70      0.00
    7   10    8    -10.10      0.00
    6   10    8      2.81      0.00
    5   10    8     23.10      0.00
    4   10    8      7.61      0.00
    3   10    8     47.25      0.00
    2   10    8      6.10      0.00
    1   10    8      8.14      0.00
    0   10    8    -38.62      0.00
   10   10    8     -5.85      0.00
   10   11    8     -5.96      0.00
    9   11    8      8.32      0.00
    8   11    8      7.07      0.00
    7   11    8      8.29      0.00
    6   11    8      2.24      0.00
    5   11    8     -3.98      0.00
    4   11    8    -24.05      0.00
    3   11    8     -2.62      0.00
    2   11    8    -27.13      0.00
    1   11    8      4.23      0.00
   11   11    8      5.14      0.00
   11   12    8    -12.18      0.00
   10   12    8      5.92      0.00
    9   12    8     -1.40      0.00
    8   12    8     -0.33      0.00
    7   12    8     -8.35      0.00
    6   12    8     -9.69      0.00
    5   12    8      5.61      0.00
    4   12    8      3.40      0.00
    3   12    8     18.02      0.00
    2   12    8      2.35      0.00
    1   12    8      8.21      0.00
    0   12    8     25.78      0.00
   12   12    8    -27.78      0.00
   12   13    8      2.95      0.00
   11   13    8      3.87      0.00
   10   13    8      4.69      0.00
    9   13    8      4.44      0.00
    8   13    8     -3.57      0.00
    7   13    8     10.39      0.00
    6   13    8    -16.00      0.00
    5   13    8      1.94      0.00
    4   13    8     10.04      0.00
    3   13    8     20.59      0.00
    2   13    8     -5.39      0.00
    1   13    8      4.39      0.00
   13   13    8     -4.42      0.00
   13   14    8      2.18      0.00
   12   14    8      4.00      0.00
   11   14    8      3.66      0.00
   10   14    8     -8.11      0.00
    9   14    8     -4.48      0.00
    8   14    8     -6.24      0.00
    7   14    8      3.53      0.00
    6   14    8     -2.59      0.00
    5   14    8     13.22      0.00
    4   14    8      7.04      0.00
    3   14    8     -8.26      0.00
    2   14    8      5.69      0.00
    1   14    8     11.27      0.00
    0   14    8     29.30      0.00
   14   14    8     10.43      0.00
   14   15    8     -4.31      0.00
   13   15    8      0.64      0.00
   12   15    8     -4.10      0.00
   11   15    8     -4.38      0.00
   10   15    8      5.72      0.00
    9   15    8      4.45      0.00
    8   15    8     -3.72      0.00
    7   15    8      9.03      0.00
    6   15    8     -6.96      0.00
    5   15    8      3.22      0.00
    4   15    8     -2.40      0.00
    3   15    8     -1.43      0.00
    2   15    8     -3.14      0.00
    1   15    8     -5.25      0.00
   15   15    8      5.41      0.00
   15   16    8      1.88      0.00
   14   16    8      2.88      0.00
   13   16    8      2.66      0.00
   12   16    8      1.86      0.00
   11   16    8      0.61      0.00
   10   16    8      0.94      0.00
    9   16    8      9.58      0.00
    8   16    8     -3.03      0.00
    7   16    8     -2.63      0.00
    6   16    8     -9.53      0.00
    5   16    8     10.33      0.00
    4   16    8     -4.96      0.00
    3   16    8      9.41      0.00
    2   16    8      7.04      0.00
    1   16    8     12.99      0.00
    0   16    8      5.72      0.00
   16   16    8     -6.29      0.00
   16   17    8      3.82      0.00
   15   17    8      4.00      0.00
   14   17    8     -1.49      0.00
   13   17    8     -0.59      0.00
   12   17    8     -3.14      0.00
   11   17    8     -0.41      0.00
   10   17    8     -4.09      0.00
    9   17    8     -3.75      0.00
    8   17    8      1.71      0.00
    7   17    8      9.78      0.00
    6   17    8      9.51      0.00
    5   17    8     -0.91      0.00
    4   17    8      2.72      0.00
    3   17    8     -3.86      0.00
    2   17    8     -8.07      0.00
    1   17    8     -2.93      0.00
   17   17    8     -5.42      0.00
   17   18    8      0.07      0.00
   16   18    8      5.05      0.00
   15   18    8      6.12      0.00
   14   18    8     -1.55      0.00
   13   18    8     -5.64      0.00
   12   18    8     -7.04      0.00
   11   18    8      1.91      0.00
   10   18    8      0.67      0.00
    9   18    8      2.47      0.00
    8   18    8      2.86      0.00
    7   18    8      1.51      0.00
    6   18    8    -13.44      0.00
    5   18    8     -8.74      0.00
    4   18    8     -2.23      0.00
    3   18    8     -1.77      0.00
    2   18    8      1.50      0.00
    1   18    8      1.79      0.00
    0   18    8      1.37      0.00
   18   18    8     -9.34      0.00
   18   19    8     -0.80      0.00
   17   19    8      3.86      0.00
   16   19    8      6.29      0.00
   15   19    8     -0.25      0.00
   14   19    8     -7.57      0.00
   13   19    8     -6.58      0.00
   12   19    8     -9.62      0.00
   11   19    8     -1.44      0.00
   10   19    8      4.52      0.00
    9   19    8      1.62      0.00
    8   19    8     -7.74      0.00
    7   19    8      8.16      0.00
    6   19    8      5.24      0.00
    5   19    8      0.90      0.00
    4   19    8     -3.31      0.00
    3   19    8     -1.42      0.00
    2   19    8      5.49      0.00
    1   19    8     -0.67      0.00
   19   19    8     -4.02      0.00
   19   20    8     -2.99      0.00
   18   20    8     -1.04      0.00
   17   20    8      0.02      0.00
   16   20    8     -5.92      0.00
   15   20    8      3.13      0.00
   14   20    8      6.08      0.00
   13   20    8      3.20      0.00
   12   20    8      4.23      0.00
   11   20    8      4.90      0.00
   10   20    8     -1.21      0.00
    9   20    8     10.20      0.00
    8   20    8      1.69      0.00
    7   20    8     -2.52      0.00
    6   20    8      2.35      0.00
    5   20    8     -6.43      0.00
    4   20    8     -4.84      0.00
    3   20    8     -4.30      0.00
    2   20    8     -1.05      0.00
    1   20    8      1.54      0.00
    0   20    8     12.47      0.00
   20   20    8      2.70      0.00
   20   21    8     -5.15      0.00
   19   21    8      2.10      0.00
   18   21    8      3.41      0.00
   17   21    8      3.69      0.00
   16   21    8      3.92      0.00
   15   21    8     -2.70      0.00
   14   21    8      7.99      0.00
   13   21    8      4.06      0.00
   12   21    8     -0.74      0.00
   11   21    8      1.60      0.00
   10   21    8     -6.25      0.00
    9   21    8      2.53      0.00
    8   21    8     -1.09      0.00
    7   21    8      1.22      0.00
    6   21    8      0.44      0.00
    5   21    8      6.51      0.00
    4   21    8      2.83      0.00
    3   21    8      4.24      0.00
    2   21    8     12.05      0.00
    1   21    8      1.83      0.00
   21   21    8      3.97      0.00
   21   22    8      1.74      0.00
   20   22    8      0.53      0.00
   19   22    8     -1.59      0.00
   18   22    8      4.47      0.00
   17   22    8     -3.48      0.00
   16   22    8     -4.36      0.00
   15   22    8     -5.87      0.00
   14   22    8     -8.01      0.00
   13   22    8      0.56      0.00
   12   22    8     -0.69      0.00
   11   22    8      2.04      0.00
   10   22    8      5.55      0.00
    9   22    8     -1.88      0.00
    8   22    8      8.14      0.00
    7   22    8      3.22      0.00
    6   22    8     -3.87      0.00
    5   22    8      3.58      0.00
    4   22    8     -1.70      0.00
    3   22    8      8.73      0.00
    2   22    8     -5.20      0.00
    1   22    8     -3.01      0.00
    0   22    8      2.94      0.00
   22   22    8      4.30      0.00
   22   23    8     -6.88      0.00
   21   23    8      3.43      0.00
   20   23    8     -7.43      0.00
   19   23    8      1.85      0.00
   18   23    8      1.16      0.00
   17   23    8     -3.77      0.00
   16   23    8      0.81      0.00
   15   23    8      7.00      0.00
   14   23    8     -0.92      0.00
   13   23    8      1.28      0.00
   12   23    8      1.51      0.00
   11   23    8     -3.28      0.00
   10   23    8     -9.07      0.00
    9   23    8     -7.64      0.00
    8   23    8      1.35      0.00
    7   23    8      3.72      0.00
    6   23    8     -5.53      0.00
    5   23    8      2.93      0.00
    4   23    8     -2.43      0.00
    3   23    8    -11.61      0.00
    2   23    8      5.58      0.00
    1   23    8      4.91      0.00
   23   23    8      0.35      0.00
   23   24    8     -5.69      0.00
   22   24    8     -1.91      0.00
   21   24    8      5.89      0.00
   20   24    8      6.20      0.00
   19   24    8      0.90      0.00
   18   24    8      3.95      0.00
   17   24    8      0.95      0.00
   16   24    8      5.13      0.00
   15   24    8     -0.51      0.00
   14   24    8     -5.03      0.00
   13   24    8     -3.79      0.00
   12   24    8     -3.82      0.00
   11   24    8     -3.43      0.00
   10   24    8      3.11      0.00
    9   24    8    -14.90      0.00
    8   24    8      2.28      0.00
    7   24    8      4.23      0.00
    6   24    8     -0.79      0.00
    5   24    8      2.47      0.00
    4   24    8      0.74      0.00
    3   24    8     -5.77      0.00
    2   24    8      2.93      0.00
    1   24    8      4.40      0.00
    0   24    8      1.22      0.00
   24   24    8     -1.43      0.00
   24   25    8      1.89      0.00
   23   25    8     -3.58      0.00
   22   25    8     -1.03      0.00
   21   25    8     -2.40      0.00
   20   25    8      1.87      0.00
   19   25    8      0.46      0.00
   18   25    8      4.98      0.00
   17   25    8      1.29      0.00
   16   25    8     -1.44      0.00
   15   25    8     -2.13      0.00
   14   25    8      0.47      0.00
   13   25    8      7.42      0.00
   12   25    8     -4.83      0.00
   11   25    8      7.13      0.00
   10   25    8      0.15      0.00
    9   25    8      0.43      0.00
    8   25    8     -3.48      0.00
    7   25    8     -3.43      0.00
    6   25    8     -1.37      0.00
    5   25    8      1.13      0.00
    4   25    8      6.43      0.00
    3   25    8      4.94      0.00
    2   25    8     -4.89      0.00
    1   25    8      1.86      0.00
   25   25    8      5.45      0.00
   25   26    8      0.28      0.00
   24   26    8     -4.36      0.00
   23   26    8      6.84      0.00
   22   26    8      4.18      0.00
   21   26    8     -6.09      0.00
   20   26    8     -4.54      0.00
   19   26    8     -2.32      0.00
   18   26    8     -1.98      0.00
   17   26    8     -2.11      0.00
   16   26    8      7.08      0.00
   15   26    8     -0.67      0.00
   14   26    8     -2.72      0.00
   13   26    8     -8.13      0.00
   12   26    8     -1.02      0.00
   11   26    8      0.14      0.00
   10   26    8      2.86      0.00
    9   26    8     -0.21      0.00
    8   26    8      5.61      0.00
    7   26    8      2.63      0.00
    6   26    8      4.70      0.00
    5   26    8     -3.16      0.00
    4   26    8     -3.62      0.00
    3   26    8      1.33      0.00
    2   26    8      2.03      0.00
    1   26    8     -2.25      0.00
    0   26    8     -3.62      0.00
   24   27    8     -8.13      0.00
   23   27    8      1.84      0.00
   22   27    8     -0.29      0.00
   21   27    8      2.10      0.00
   20   27    8     -0.02      0.00
   19   27    8     -9.68      0.00
   18   27    8      2.74      0.00
   17   27    8     -2.55      0.00
   16   27    8     -2.27      0.00
   15   27    8     -5.89      0.00
   14   27    8      0.82      0.00
   13   27    8      0.27      0.00
   12   27    8     -2.13      0.00
   11   27    8     -0.33      0.00
   10   27    8     -4.43      0.00
    9   27    8     -1.46      0.00
    8   27    8      1.01      0.00
    7   27    8      3.22      0.00
    6   27    8     -2.14      0.00
    5   27    8      2.26      0.00
    4   27    8      8.45      0.00
    3   27    8      0.39      0.00
    2   27    8      5.33      0.00
    1   27    8      0.73      0.00
   23   28    8     -5.45      0.00
   22   28    8     -2.87      0.00
   21   28    8      0.54      0.00
   20   28    8     -2.19      0.00
   19   28    8      5.60      0.00
   18   28    8      0.96      0.00
   17   28    8    -10.07      0.00
   16   28    8     -1.29      0.00
   15   28    8     14.18      0.00
   14   28    8     -4.28      0.00
   13   28    8     -6.83      0.00
   12   28    8      6.72      0.00
   11   28    8     -6.71      0.00
   10   28    8      0.72      0.00
    9   28    8      2.47      0.00
    8   28    8      4.35      0.00
    7   28    8     -3.28      0.00
    6   28    8     -2.69      0.00
    5   28    8      6.35      0.00
    4   28    8     -1.56      0.00
    3   28    8      0.24      0.00
    2   28    8      4.44      0.00
    1   28    8     -1.94      0.00
    0   28    8      3.48      0.00
   21   29    8     -6.82      0.00
   20   29    8     -2.97      0.00
   19   29    8      2.17      0.00
   18   29    8    -11.60      0.00
   17   29    8    -11.68      0.00
   16   29    8     -3.97      0.00
   15   29    8     -3.32      0.00
   14   29    8     -0.10      0.00
   13   29    8     13.45      0.00
   12   29    8      0.66      0.00
   11   29    8     -4.36      0.00
   10   29    8     -4.22      0.00
    9   29    8     -5.63      0.00
    8   29    8      6.54      0.00
    7   29    8     -2.75      0.00
    6   29    8     -6.35      0.00
    5   29    8     -4.59      0.00
    4   29    8     -7.34      0.00
    3   29    8     -0.48      0.00
    2   29    8      4.76      0.00
    1   29    8      1.04      0.00
   20   30    8     -0.26      0.00
   19   30    8    -11.82      0.00
   18   30    8    -14.51      0.00
   17   30    8     -3.83      0.00
   16   30    8      1.82      0.00
   15   30    8     -4.03      0.00
   14   30    8      2.06      0.00
   13   30    8      2.15      0.00
   12   30    8     -3.87      0.00
   11   30    8      3.38      0.00
   10   30    8     -5.66      0.00
    9   30    8     -3.62      0.00
    8   30    8     -0.32      0.00
    7   30    8     -1.97      0.00
    6   30    8     -8.12      0.00
    5   30    8      0.96      0.00
    4   30    8      1.04      0.00
    3   30    8      4.54      0.00
    2   30    8      0.78      0.00
    1   30    8     -2.93      0.00
    0   30    8     -0.93      0.00
   18   31    8    -10.24      0.00
   17   31    8      5.34      0.00
   16   31    8      4.06      0.00
   15   31    8    -10.87      0.00
   14   31    8      2.65      0.00
   13   31    8     -0.72      0.00
   12   31    8      0.97      0.00
   11   31    8     -2.04      0.00
   10   31    8      1.59      0.00
    9   31    8      3.36      0.00
    8   31    8      1.58      0.00
    7   31    8      2.45      0.00
    6   31    8     -4.42      0.00
    5   31    8     -3.76      0.00
    4   31    8      1.47      0.00
    3   31    8      1.22      0.00
    2   31    8      1.18      0.00
    1   31    8     -1.37      0.00
   17   32    8      6.49      0.00
   16   32    8     -3.35      0.00
   15   32    8     -7.43      0.00
   14   32    8      5.85      0.00
   13   32    8     -1.60      0.00
   12   32    8      1.28      0.00
   11   32    8      1.15      0.00
   10   32    8     -1.43      0.00
    9   32    8      1.19      0.00
    8   32    8    -11.54      0.00
    7   32    8      6.34      0.00
    6   32    8     12.03      0.00
    5   32    8     -2.49      0.00
    4   32    8      2.23      0.00
    3   32    8     -0.67      0.00
    2   32    8     -0.54      0.00
    1   32    8     -2.67      0.00
    0   32    8      0.71      0.00
   15   33    8      4.70      0.00
   14   33    8     13.92      0.00
   13   33    8     -1.46      0.00
   12   33    8      7.07      0.00
   11   33    8     -1.58      0.00
   10   33    8     -2.80      0.00
    9   33    8      2.12      0.00
    8   33    8      1.62      0.00
    7   33    8      3.49      0.00
    6   33    8     -2.46      0.00
    5   33    8      1.58      0.00
    4   33    8     -8.62      0.00
    3   33    8      4.56      0.00
    2   33    8     -0.92      0.00
    1   33    8     -1.00      0.00
   12   34    8     -9.62      0.00
   11   34    8     -2.93      0.00
   10   34    8      6.92      0.00
    9   34    8     -2.22      0.00
    8   34    8      2.86      0.00
    7   34    8     -3.08      0.00
    6   34    8     -1.72      0.00
    5   34    8     -0.81      0.00
    4   34    8      2.12      0.00
    3   34    8    -16.59      0.00
    2   34    8     -0.68      0.00
    1   34    8      0.03      0.00
    0   34    8      2.86      0.00
    9   35    8      6.56      0.00
    8   35    8     -1.48      0.00
    7   35    8     -3.00      0.00
    6   35    8      3.31      0.00
    5   35    8      4.23      0.00
    4   35    8     -3.19      0.00
    3   35    8    -11.40      0.00
    2   35    8      2.70      0.00
    1   35    8     -2.87      0.00
    4   36    8     -8.95      0.00
    3   36    8     15.43      0.00
    2   36    8     -5.40      0.00
    1   36    8     -7.12      0.00
    0   36    8    -10.48      0.00
    1    2    9     10.80      0.00
    0    2    9    -28.48      0.00
    2    3    9     -5.73      0.00
    1    3    9    -10.98      0.00
    3    4    9     28.44      0.00
    2    4    9    -39.22      0.00
    1    4    9    -10.40      0.00
    0    4    9     14.65      0.00
    4    5    9    -30.06      0.00
    3    5    9     15.33      0.00
    2    5    9     10.95      0.00
    1    5    9     27.93      0.00
    5    6    9      4.53      0.00
    4    6    9     -2.07      0.00
    3    6    9     15.23      0.00
    2    6    9     -0.56      0.00
    1    6    9     35.67      0.00
    0    6    9    -16.82      0.00
    6    7    9     11.60      0.00
    5    7    9     -1.36      0.00
    4    7    9      8.86      0.00
    3    7    9     -6.89      0.00
    2    7    9      1.73      0.00
    1    7    9    -13.48      0.00
    7    8    9     23.88      0.00
    6    8    9    -16.04      0.00
    5    8    9    -14.85      0.00
    4    8    9      3.50      0.00
    3    8    9     11.09      0.00
    2    8    9     13.85      0.00
    1    8    9    -14.86      0.00
    0    8    9     10.14      0.00
    8    9    9     10.15      0.00
    7    9    9     -9.66      0.00
    6    9    9      1.82      0.00
    5    9    9     12.22      0.00
    4    9    9     -0.34      0.00
    3    9    9     -5.50      0.00
    2    9    9     -4.31      0.00
    1    9    9      3.20      0.00
    9   10    9      9.43      0.00
    8   10    9     -4.84      0.00
    7   10    9    -13.11      0.00
    6   10    9      7.32      0.00
    5   10    9     -9.61      0.00
    4   10    9     -0.34      0.00
    3   10    9     -0.31      0.00
    2   10    9     10.28      0.00
    1   10    9     13.57      0.00
    0   10    9     -3.63      0.00
   10   11    9     -4.08      0.00
    9   11    9    -22.51      0.00
    8   11    9     -9.28      0.00
    7   11    9      6.88      0.00
    6   11    9     19.02      0.00
    5   11    9     -7.20      0.00
    4   11    9    -21.38      0.00
    3   11    9      1.27      0.00
    2   11    9    -15.02      0.00
    1   11    9     -7.93      0.00
   11   12    9      3.59      0.00
   10   12    9     -6.46      0.00
    9   12    9     -5.95      0.00
    8   12    9      2.20      0.00
    7   12    9    -17.99      0.00
    6   12    9     -2.20      0.00
    5   12    9     -4.91      0.00
    4   12    9      6.51      0.00
    3   12    9     24.75      0.00
    2   12    9      5.52      0.00
    1   12    9     -0.77      0.00
    0   12    9     -4.41      0.00
   12   13    9     -1.04      0.00
   11   13    9     -3.59      0.00
   10   13    9      6.85      0.00
    9   13    9     -5.04      0.00
    8   13    9      2.66      0.00
    7   13    9     20.08      0.00
    6   13    9      7.88      0.00
    5   13    9      2.47      0.00
    4   13    9     -2.99      0.00
    3   13    9      1.41      0.00
    2   13    9     13.57      0.00
    1   13    9    -15.47      0.00
   13   14    9     -0.13      0.00
   12   14    9      0.73      0.00
   11   14    9      9.17      0.00
   10   14    9      7.31      0.00
    9   14    9    -11.81      0.00
    8   14    9      8.11      0.00
    7   14    9     11.40      0.00
    6   14    9    -14.80      0.00
    5   14    9      8.02      0.00
    4   14    9     -5.02      0.00
    3   14    9     -3.65      0.00
    2   14    9    -23.30      0.00
    1   14    9     -6.47      0.00
    0   14    9     26.09      0.00
   14   15    9      0.17      0.00
   13   15    9      2.13      0.00
   12   15    9      2.12      0.00
   11   15    9     -4.07      0.00
   10   15    9      4.67      0.00
    9   15    9     -1.07      0.00
    8   15    9     -4.39      0.00
    7   15    9      4.75      0.00
    6   15    9      3.14      0.00
    5   15    9      5.42      0.00
    4   15    9     -0.33      0.00
    3   15    9      8.26      0.00
    2   15    9      3.94      0.00
    1   15    9    -13.99      0.00
   15   16    9      4.45      0.00
   14   16    9      3.46      0.00
   13   16    9      1.69      0.00
   12   16    9      7.33      0.00
   11   16    9     -0.48      0.00
   10   16    9      5.86      0.00
    9   16    9     -5.37      0.00
    8   16    9     -0.26      0.00
    7   16    9      4.19      0.00
    6   16    9     -2.73      0.00
    5   16    9    -10.06      0.00
    4   16    9     -7.95      0.00
    3   16    9     -6.42      0.00
    2   16    9     10.88      0.00
    1   16    9      1.11      0.00
    0   16    9      2.78      0.00
   16   17    9      0.25      0.00
   15   17    9      3.23      0.00
   14   17    9      5.88      0.00
   13   17    9     -3.73      0.00
   12   17    9     -7.95      0.00
   11   17    9     -3.41      0.00
   10   17    9     -6.65      0.00
    9   17    9     -1.69      0.00
    8   17    9    -10.73      0.00
    7   17    9      1.25      0.00
    6   17    9     -3.06      0.00
    5   17    9     -1.54      0.00
    4   17    9      1.15      0.00
    3   17    9     -4.96      0.00
    2   17    9     -3.75      0.00
    1   17    9     -2.72      0.00
   17   18    9      7.84      0.00
   16   18    9      4.63      0.00
   15   18    9      4.94      0.00
   14   18    9      1.83      0.00
   13   18    9      1.75      0.00
   12   18    9     -3.75      0.00
   11   18    9      4.76      0.00
   10   18    9     -3.03      0.00
    9   18    9     -1.29      0.00
    8   18    9      8.41      0.00
    7   18    9      2.51      0.00
    6   18    9     -2.84      0.00
    5   18    9     -4.37      0.00
    4   18    9      5.04      0.00
    3   18    9    -12.02      0.00
    2   18    9      0.27      0.00
    1   18    9     -7.15      0.00
    0   18    9      5.13      0.00
   18   19    9     -0.34      0.00
   17   19    9     -0.72      0.00
   16   19    9      2.50      0.00
   15   19    9     -2.97      0.00
   14   19    9      0.76      0.00
   13   19    9      4.44      0.00
   12   19    9     -4.84      0.00
   11   19    9      5.99      0.00
   10   19    9     -4.53      0.00
    9   19    9      8.53      0.00
    8   19    9     -0.94      0.00
    7   19    9     -5.14      0.00
    6   19    9     -2.44      0.00
    5   19    9      3.05      0.00
    4   19    9     13.49      0.00
    3   19    9      2.00      0.00
    2   19    9     -1.51      0.00
    1   19    9      4.28      0.00
   19   20    9      5.54      0.00
   18   20    9     -3.11      0.00
   17   20    9      0.06      0.00
   16   20    9      3.80      0.00
   15   20    9      2.27      0.00
   14   20    9     -6.41      0.00
   13   20    9     -7.84      0.00
   12   20    9     -5.06      0.00
   11   20    9     -3.37      0.00
   10   20    9      0.56      0.00
    9   20    9      0.51      0.00
    8   20    9      5.05      0.00
    7   20    9      2.83      0.00
    6   20    9     -0.23      0.00
    5   20    9      3.95      0.00
    4   20    9     -8.22      0.00
    3   20    9      0.01      0.00
    2   20    9     13.21      0.00
    1   20    9     -7.14      0.00
    0   20    9    -12.20      0.00
   20   21    9     -3.79      0.00
   19   21    9      7.42      0.00
   18   21    9      6.25      0.00
   17   21    9     -0.71      0.00
   16   21    9      8.80      0.00
   15   21    9      6.33      0.00
   14   21    9     -5.48      0.00
   13   21    9      0.79      0.00
   12   21    9      1.57      0.00
   11   21    9      6.77      0.00
   10   21    9      8.58      0.00
    9   21    9     -3.19      0.00
    8   21    9      0.55      0.00
    7   21    9      2.89      0.00
    6   21    9      2.80      0.00
    5   21    9      0.49      0.00
    4   21    9      6.74      0.00
    3   21    9      0.20      0.00
    2   21    9     14.97      0.00
    1   21    9     -6.33      0.00
   21   22    9      5.44      0.00
   20   22    9     -8.21      0.00
   19   22    9     -2.06      0.00
   18   22    9      6.70      0.00
   17   22    9      3.94      0.00
   16   22    9     -5.73      0.00
   15   22    9      2.15      0.00
   14   22    9      4.05      0.00
   13   22    9      2.46      0.00
   12   22    9     -3.32      0.00
   11   22    9     -2.43      0.00
   10   22    9      2.20      0.00
    9   22    9      5.38      0.00
    8   22    9     -1.79      0.00
    7   22    9      5.20      0.00
    6   22    9      9.43      0.00
    5   22    9      5.91      0.00
    4   22    9      4.25      0.00
    3   22    9      1.02      0.00
    2   22    9    -19.11      0.00
    1   22    9    -15.85      0.00
    0   22    9     -6.66      0.00
   22   23    9     -2.68      0.00
   21   23    9      1.04      0.00
   20   23    9     -0.66      0.00
   19   23    9     -1.88      0.00
   18   23    9      4.67      0.00
   17   23    9     -4.90      0.00
   16   23    9     -8.53      0.00
   15   23    9     -0.86      0.00
   14   23    9      2.21      0.00
   13   23    9     -9.71      0.00
   12   23    9      0.98      0.00
   11   23    9     -3.46      0.00
   10   23    9     -3.18      0.00
    9   23    9      3.94      0.00
    8   23    9     -3.62      0.00
    7   23    9    -12.77      0.00
    6   23    9      9.01      0.00
    5   23    9      1.18      0.00
    4   23    9      3.60      0.00
    3   23    9      9.96      0.00
    2   23    9     -2.55      0.00
    1   23    9     -5.40      0.00
   23   24    9      3.94      0.00
   22   24    9      0.20      0.00
   21   24    9      0.04      0.00
   20   24    9     -0.50      0.00
   19   24    9      0.34      0.00
   18   24    9     -5.81      0.00
   17   24    9     -1.18      0.00
   16   24    9     -2.99      0.00
   15   24    9     -2.16      0.00
   14   24    9     -1.02      0.00
   13   24    9     -1.27      0.00
   12   24    9     -2.45      0.00
   11   24    9     -0.44      0.00
   10   24    9      0.47      0.00
    9   24    9     -2.60      0.00
    8   24    9      2.02      0.00
    7   24    9     -5.24      0.00
    6   24    9      2.92      0.00
    5   24    9     -2.74      0.00
    4   24    9      6.53      0.00
    3   24    9     -8.52      0.00
    2   24    9    -11.51      0.00
    1   24    9      5.83      0.00
    0   24    9     -6.64      0.00
   24   25    9    -10.51      0.00
   23   25    9      2.45      0.00
   22   25    9     -6.11      0.00
   21   25    9     -4.92      0.00
   20   25    9     11.40      0.00
   19   25    9     -2.26      0.00
   18   25    9     -6.95      0.00
   17   25    9     -2.86      0.00
   16   25    9      4.04      0.00
   15   25    9     -2.31      0.00
   14   25    9     -3.56      0.00
   13   25    9     -5.34      0.00
   12   25    9     -2.15      0.00
   11   25    9      3.88      0.00
   10   25    9     -6.09      0.00
    9   25    9     -0.19      0.00
    8   25    9     -1.93      0.00
    7   25    9     10.08      0.00
    6   25    9      0.05      0.00
    5   25    9     -4.01      0.00
    4   25    9     -1.72      0.00
    3   25    9      4.34      0.00
    2   25    9     -0.87      0.00
    1   25    9    -14.24      0.00
   24   26    9      4.31      0.00
   23   26    9      1.19      0.00
   22   26    9     -9.09      0.00
   21   26    9      4.77      0.00
   20   26    9     -4.08      0.00
   19   26    9      3.74      0.00
   18   26    9     -1.71      0.00
   17   26    9      2.81      0.00
   16   26    9     -0.90      0.00
   15   26    9     -1.44      0.00
   14   26    9     -6.76      0.00
   13   26    9     -9.14      0.00
   12   26    9     -5.26      0.00
   11   26    9     -2.04      0.00
   10   26    9      4.49      0.00
    9   26    9    -10.53      0.00
    8   26    9     -9.08      0.00
    7   26    9     -3.62      0.00
    6   26    9      2.75      0.00
    5   26    9     14.20      0.00
    4   26    9     -7.14      0.00
    3   26    9      3.08      0.00
    2   26    9      4.15      0.00
    1   26    9      2.64      0.00
    0   26    9      0.40      0.00
   23   27    9     -1.05      0.00
   22   27    9      3.69      0.00
   21   27    9     -4.45      0.00
   20   27    9     -2.98      0.00
   19   27    9     -2.10      0.00
   18   27    9     17.51      0.00
   17   27    9     -1.28      0.00
   16   27    9     -6.85      0.00
   15   27    9      5.23      0.00
   14   27    9     -1.73      0.00
   13   27    9     -6.10      0.00
   12   27    9     10.61      0.00
   11   27    9      3.15      0.00
   10   27    9      0.88      0.00
    9   27    9      0.94      0.00
    8   27    9      0.21      0.00
    7   27    9     -9.59      0.00
    6   27    9     -5.91      0.00
    5   27    9      7.59      0.00
    4   27    9     -4.21      0.00
    3   27    9     -8.69      0.00
    2   27    9      0.25      0.00
    1   27    9     -5.02      0.00
   22   28    9     -7.01      0.00
   21   28    9     -6.83      0.00
   20   28    9      1.90      0.00
   19   28    9     -4.81      0.00
   18   28    9      2.07      0.00
   17   28    9      2.15      0.00
   16   28    9     -1.84      0.00
   15   28    9      6.59      0.00
   14   28    9      0.20      0.00
   13   28    9     -0.29      0.00
   12   28    9     -4.47      0.00
   11   28    9      7.59      0.00
   10   28    9      0.81      0.00
    9   28    9      6.04      0.00
    8   28    9      0.73      0.00
    7   28    9      4.80      0.00
    6   28    9      0.27      0.00
    5   28    9     -8.63      0.00
    4   28    9      6.67      0.00
    3   28    9     -7.39      0.00
    2   28    9      0.30      0.00
    1   28    9     -7.51      0.00
    0   28    9    -10.87      0.00
   21   29    9      0.95      0.00
   20   29    9     -1.80      0.00
   19   29    9    -12.67      0.00
   18   29    9      2.01      0.00
   17   29    9      3.38      0.00
   16   29    9     -1.99      0.00
   15   29    9     -1.59      0.00
   14   29    9     12.81      0.00
   13   29    9     14.09      0.00
   12   29    9      1.47      0.00
   11   29    9     18.98      0.00
   10   29    9      3.42      0.00
    9   29    9      2.41      0.00
    8   29    9      6.89      0.00
    7   29    9      0.79      0.00
    6   29    9      4.42      0.00
    5   29    9     -3.90      0.00
    4   29    9      5.39      0.00
    3   29    9      4.27      0.00
    2   29    9      2.01      0.00
    1   29    9     -3.85      0.00
   19   30    9      1.26      0.00
   18   30    9     -0.04      0.00
   17   30    9     -0.71      0.00
   16   30    9      9.82      0.00
   15   30    9     -2.45      0.00
   14   30    9      3.96      0.00
   13   30    9      6.87      0.00
   12   30    9      2.93      0.00
   11   30    9      1.11      0.00
   10   30    9      4.90      0.00
    9   30    9      2.68      0.00
    8   30    9     -0.09      0.00
    7   30    9      2.39      0.00
    6   30    9     -0.55      0.00
    5   30    9      9.57      0.00
    4   30    9      4.13      0.00
    3   30    9     -3.78      0.00
    2   30    9      2.26      0.00
    1   30    9     -8.93      0.00
    0   30    9      0.01      0.00
   18   31    9    -14.21      0.00
   17   31    9     -2.59      0.00
   16   31    9    -13.87      0.00
   15   31    9      5.42      0.00
   14   31    9      1.33      0.00
   13   31    9     -4.61      0.00
   12   31    9     12.43      0.00
   11   31    9      1.73      0.00
   10   31    9      4.09      0.00
    9   31    9      0.61      0.00
    8   31    9     13.08      0.00
    7   31    9      1.19      0.00
    6   31    9     -4.04      0.00
    5   31    9     -3.85      0.00
    4   31    9     -2.36      0.00
    3   31    9      1.56      0.00
    2   31    9     -2.36      0.00
    1   31    9      1.08      0.00
   16   32    9     -4.38      0.00
   15   32    9     -0.02      0.00
   14   32    9    -18.76      0.00
   13   32    9      1.85      0.00
   12   32    9      5.42      0.00
   11   32    9     -4.09      0.00
   10   32    9     -3.75      0.00
    9   32    9      1.81      0.00
    8   32    9      1.51      0.00
    7   32    9     -9.96      0.00
    6   32    9     -1.89      0.00
    5   32    9      1.62      0.00
    4   32    9      0.17      0.00
    3   32    9      1.08      0.00
    2   32    9      1.48      0.00
    1   32    9      2.01      0.00
    0   32    9     -3.35      0.00
   14   33    9     -2.84      0.00
   13   33    9     10.43      0.00
   12   33    9     -4.00      0.00
   11   33    9      0.39      0.00
   10   33    9     -3.31      0.00
    9   33    9      7.40      0.00
    8   33    9     11.01      0.00
    7   33    9      1.05      0.00
    6   33    9     -0.34      0.00
    5   33    9      1.11      0.00
    4   33    9      2.11      0.00
    3   33    9     12.74      0.00
    2   33    9      5.75      0.00
    1   33    9      1.18      0.00
   11   34    9     12.72      0.00
   10   34    9      4.39      0.00
    9   34    9     -6.13      0.00
    8   34    9      4.34      0.00
    7   34    9      0.78      0.00
    6   34    9      6.88      0.00
    5   34    9      6.51      0.00
    4   34    9     -0.21      0.00
    3   34    9     -2.79      0.00
    2   34    9     -3.51      0.00
    1   34    9     -0.28      0.00
    0   34    9      5.58      0.00
    8   35    9     16.74      0.00
    7   35    9      0.46      0.00
    6   35    9     -3.42      0.00
    5   35    9     -8.17      0.00
    4   35    9      1.77      0.00
    3   35    9     19.52      0.00
    2   35    9      0.19      0.00
    1   35    9      3.61      0.00
    0    0   10    157.05      0.00
    1    1   10    -79.75      0.00
    1    2   10    -26.99      0.00
    0    2   10     44.46      0.00
    2    2   10     19.47      0.00
    2    3   10     36.31      0.00
    1    3   10     12.75      0.00
    3    3   10     -2.43      0.00
    3    4   10      0.03      0.00
    2    4   10      7.05      0.00
    1    4   10    -21.40      0.00
    0    4   10    -22.17      0.00
    4    4   10     -1.84      0.00
    4    5   10     23.42      0.00
    3    5   10     23.82      0.00
    2    5   10     -2.71      0.00
    1    5   10     47.60      0.00
    5    5   10     24.83      0.00
    5    6   10     11.28      0.00
    4    6   10      7.36      0.00
    3    6   10    -27.33      0.00
    2    6   10    -28.08      0.00
    1    6   10     15.28      0.00
    0    6   10     -4.94      0.00
    6    6   10      6.66      0.00
    6    7   10    -25.83      0.00
    5    7   10    -16.98      0.00
    4    7   10     -7.33      0.00
    3    7   10     -6.76      0.00
    2    7   10     20.31      0.00
    1    7   10     19.73      0.00
    7    7   10      1.29      0.00
    7    8   10     30.02      0.00
    6    8   10     13.79      0.00
    5    8   10     19.55      0.00
    4    8   10     13.86      0.00
    3    8   10      8.66      0.00
    2    8   10     12.57      0.00
    1    8   10    -10.08      0.00
    0    8   10     -2.41      0.00
    8    8   10     -5.80      0.00
    8    9   10     -5.70      0.00
    7    9   10     -7.20      0.00
    6    9   10    -21.44      0.00
    5    9   10    -23.57      0.00
    4    9   10    -14.85      0.00
    3    9   10     -3.41      0.00
    2    9   10      0.05      0.00
    1    9   10      9.74      0.00
    9    9   10     11.84      0.00
    9   10   10      6.21      0.00
    8   10   10      3.46      0.00
    7   10   10      1.78      0.00
    6   10   10     -1.58      0.00
    5   10   10     28.30      0.00
    4   10   10     34.81      0.00
    3   10   10     -2.50      0.00
    2   10   10      5.88      0.00
    1   10   10     -5.05      0.00
    0   10   10      1.17      0.00
   10   10   10    -15.70      0.00
   10   11   10      3.09      0.00
    9   11   10      6.06      0.00
    8   11   10     -7.17      0.00
    7   11   10     -2.49      0.00
    6   11   10      9.85      0.00
    5   11   10      9.73      0.00
    4   11   10    -22.47      0.00
    3   11   10     -8.73      0.00
    2   11   10     -0.05      0.00
    1   11   10     16.48      0.00
   11   11   10      6.42      0.00
   11   12   10      1.94      0.00
   10   12   10     -3.73      0.00
    9   12   10      6.52      0.00
    8   12   10     -4.45      0.00
    7   12   10      0.90      0.00
    6   12   10     15.77      0.00
    5   12   10     -4.31      0.00
    4   12   10      4.88      0.00
    3   12   10      8.65      0.00
    2   12   10      1.47      0.00
    1   12   10      1.60      0.00
    0   12   10    -19.09      0.00
   12   12   10    -18.01      0.00
   12   13   10      1.91      0.00
   11   13   10      2.66      0.00
   10   13   10      5.70      0.00
    9   13   10      1.00      0.00
    8   13   10     -5.00      0.00
    7   13   10      0.70      0.00
    6   13   10      1.56      0.00
    5   13   10      1.18      0.00
    4   13   10     -6.11      0.00
    3   13   10     -4.17      0.00
    2   13   10    -13.76      0.00
    1   13   10      9.69      0.00
   13   13   10     -4.34      0.00
   13   14   10      3.18      0.00
   12   14   10      8.28      0.00
   11   14   10      3.51      0.00
   10   14   10     -5.74      0.00
    9   14   10     -1.23      0.00
    8   14   10     -1.20      0.00
    7   14   10      1.43      0.00
    6   14   10      2.41      0.00
    5   14   10     -2.64      0.00
    4   14   10     -1.55      0.00
    3   14   10      7.26      0.00
    2   14   10     -5.82      0.00
    1   14   10      2.61      0.00
    0   14   10      1.85      0.00
   14   14   10      0.50      0.00
   14   15   10      2.23      0.00
   13   15   10      3.47      0.00
   12   15   10     -4.01      0.00
   11   15   10     -4.16      0.00
   10   15   10     -0.61      0.00
    9   15   10      5.60      0.00
    8   15   10      1.42      0.00
    7   15   10     -3.69      0.00
    6   15   10    -11.91      0.00
    5   15   10     -1.09      0.00
    4   15   10    -11.19      0.00
    3   15   10     -4.49      0.00
    2   15   10      2.33      0.00
    1   15   10      3.73      0.00
   15   15   10      1.66      0.00
   15   16   10     -5.52      0.00
   14   16   10     -0.68      0.00
   13   16   10      4.58      0.00
   12   16   10     -6.90      0.00
   11   16   10     -0.81      0.00
   10   16   10      4.28      0.00
    9   16   10      0.12      0.00
    8   16   10     -3.73      0.00
    7   16   10      5.08      0.00
    6   16   10      2.45      0.00
    5   16   10     12.61      0.00
    4   16   10      3.81      0.00
    3   16   10      6.88      0.00
    2   16   10      6.77      0.00
    1   16   10      9.56      0.00
    0   16   10     10.20      0.00
   16   16   10     -2.64      0.00
   16   17   10     -1.98      0.00
   15   17   10     -0.45      0.00
   14   17   10      5.38      0.00
   13   17   10      3.53      0.00
   12   17   10     -0.60      0.00
   11   17   10     -1.05      0.00
   10   17   10      3.05      0.00
    9   17   10     -7.43      0.00
    8   17   10      8.48      0.00
    7   17   10      8.67      0.00
    6   17   10      3.10      0.00
    5   17   10      5.31      0.00
    4   17   10     -3.07      0.00
    3   17   10      1.58      0.00
    2   17   10     -6.93      0.00
    1   17   10      0.21      0.00
   17   17   10     -1.74      0.00
   17   18   10     -3.85      0.00
   16   18   10     -4.66      0.00
   15   18   10      2.57      0.00
   14   18   10      2.47      0.00
   13   18   10      3.53      0.00
   12   18   10      2.84      0.00
   11   18   10     -0.35      0.00
   10   18   10     -4.70      0.00
    9   18   10     -1.22      0.00
    8   18   10      2.93      0.00
    7   18   10     12.98      0.00
    6   18   10     -4.40      0.00
    5   18   10     -2.37      0.00
    4   18   10      3.76      0.00
    3   18   10      4.81      0.00
    2   18   10      0.38      0.00
    1   18   10     12.84      0.00
    0   18   10      5.76      0.00
   18   18   10     -0.21      0.00
   18   19   10     -1.09      0.00
   17   19   10      0.03      0.00
   16   19   10     -5.38      0.00
   15   19   10     -2.51      0.00
   14   19   10     -2.87      0.00
   13   19   10      5.07      0.00
   12   19   10      2.45      0.00
   11   19   10     -0.87      0.00
   10   19   10     -1.54      0.00
    9   19   10      4.36      0.00
    8   19   10      5.15      0.00
    7   19   10      1.00      0.00
    6   19   10      4.00      0.00
    5   19   10      6.32      0.00
    4   19   10      4.96      0.00
    3   19   10     -7.08      0.00
    2   19   10     -4.71      0.00
    1   19   10     -1.44      0.00
   19   19   10     -3.69      0.00
   19   20   10     -5.60      0.00
   18   20   10     -1.54      0.00
   17   20   10     -3.19      0.00
   16   20   10     -4.26      0.00
   15   20   10     -0.23      0.00
   14   20   10      3.45      0.00
   13   20   10      2.49      0.00
   12   20   10      1.76      0.00
   11   20   10     -3.46      0.00
   10   20   10     -5.52      0.00
    9   20   10      2.72      0.00
    8   20   10      4.40      0.00
    7   20   10      4.34      0.00
    6   20   10      5.36      0.00
    5   20   10     -2.90      0.00
    4   20   10    -21.32      0.00
    3   20   10     -2.37      0.00
    2   20   10      0.01      0.00
    1   20   10      1.51      0.00
    0   20   10      6.25      0.00
   20   20   10      7.33      0.00
   20   21   10     -6.14      0.00
   19   21   10     -2.27      0.00
   18   21   10      9.42      0.00
   17   21   10     -3.65      0.00
   16   21   10     -0.20      0.00
   15   21   10     -5.75      0.00
   14   21   10      1.23      0.00
   13   21   10      1.33      0.00
   12   21   10      2.08      0.00
   11   21   10      2.69      0.00
   10   21   10      0.49      0.00
    9   21   10      1.67      0.00
    8   21   10     -0.50      0.00
    7   21   10      3.05      0.00
    6   21   10     -2.07      0.00
    5   21   10      8.56      0.00
    4   21   10      0.61      0.00
    3   21   10     -9.47      0.00
    2   21   10     -1.04      0.00
    1   21   10     -2.86      0.00
   21   21   10     -0.03      0.00
   21   22   10      1.53      0.00
   20   22   10      1.20      0.00
   19   22   10      1.77      0.00
   18   22   10      3.28      0.00
   17   22   10      2.44      0.00
   16   22   10     -0.80      0.00
   15   22   10      1.43      0.00
   14   22   10     -3.42      0.00
   13   22   10     -4.04      0.00
   12   22   10     -1.13      0.00
   11   22   10     -0.25      0.00
   10   22   10      1.91      0.00
    9   22   10      7.18      0.00
    8   22   10    -10.96      0.00
    7   22   10     -2.43      0.00
    6   22   10     -4.09      0.00
    5   22   10     -8.30      0.00
    4   22   10      7.61      0.00
    3   22   10      0.48      0.00
    2   22   10     -3.83      0.00
    1   22   10      1.70      0.00
    0   22   10     -1.29      0.00
   22   22   10      1.58      0.00
   22   23   10      3.39      0.00
   21   23   10     -1.71      0.00
   20   23   10     -3.60      0.00
   19   23   10      4.25      0.00
   18   23   10      5.53      0.00
   17   23   10      2.55      0.00
   16   23   10     -3.47      0.00
   15   23   10      3.45      0.00
   14   23   10     -3.20      0.00
   13   23   10      1.08      0.00
   12   23   10     -2.46      0.00
   11   23   10     -2.79      0.00
   10   23   10     -1.69      0.00
    9   23   10     -6.49      0.00
    8   23   10      3.43      0.00
    7   23   10     -0.88      0.00
    6   23   10      3.76      0.00
    5   23   10     -5.28      0.00
    4   23   10     -7.02      0.00
    3   23   10     -1.28      0.00
    2   23   10      2.47      0.00
    1   23   10      4.16      0.00
   23   23   10     -0.75      0.00
   23   24   10      4.07      0.00
   22   24   10     -2.05      0.00
   21   24   10      3.55      0.00
   20   24   10     -0.32      0.00
   19   24   10     -1.24      0.00
   18   24   10      1.40      0.00
   17   24   10     -0.80      0.00
   16   24   10     -1.96      0.00
   15   24   10     -1.09      0.00
   14   24   10      1.31      0.00
   13   24   10     -2.30      0.00
   12   24   10     -5.41      0.00
   11   24   10      1.31      0.00
   10   24   10      4.29      0.00
    9   24   10     -2.14      0.00
    8   24   10      4.20      0.00
    7   24   10     -7.26      0.00
    6   24   10     -5.53      0.00
    5   24   10      9.27      0.00
    4   24   10     -1.16      0.00
    3   24   10     -2.20      0.00
    2   24   10     -1.54      0.00
    1   24   10      0.02      0.00
    0   24   10     -0.97      0.00
   24   24   10     13.22      0.00
   24   25   10      5.87      0.00
   23   25   10     -0.67      0.00
   22   25   10     -1.66      0.00
   21   25   10      1.21      0.00
   20   25   10     -4.64      0.00
   19   25   10      0.24      0.00
   18   25   10      1.62      0.00
   17   25   10      1.78      0.00
   16   25   10     -1.23      0.00
   15   25   10      5.41      0.00
   14   25   10      4.08      0.00
   13   25   10      1.84      0.00
   12   25   10      3.77      0.00
   11   25   10      3.14      0.00
   10   25   10     -0.46      0.00
    9   25   10     -3.90      0.00
    8   25   10     15.00      0.00
    7   25   10      5.02      0.00
    6   25   10    -10.90      0.00
    5   25   10      1.43      0.00
    4   25   10      7.69      0.00
    3   25   10     -0.92      0.00
    2   25   10      4.59      0.00
    1   25   10      2.18      0.00
   25   25   10     -4.81      0.00
   24   26   10     -4.12      0.00
   23   26   10     -3.16      0.00
   22   26   10     -8.04      0.00
   21   26   10      2.46      0.00
   20   26   10     -3.40      0.00
   19   26   10     -8.51      0.00
   18   26   10      0.78      0.00
   17   26   10     -3.10      0.00
   16   26   10      5.21      0.00
   15   26   10      9.01      0.00
   14   26   10      3.33      0.00
   13   26   10      3.42      0.00
   12   26   10      1.37      0.00
   11   26   10     -0.53      0.00
   10   26   10      9.63      0.00
    9   26   10      5.95      0.00
    8   26   10     -0.15      0.00
    7   26   10      4.31      0.00
    6   26   10      3.11      0.00
    5   26   10      2.17      0.00
    4   26   10     -6.23      0.00
    3   26   10     -2.30      0.00
    2   26   10      3.82      0.00
    1   26   10     13.91      0.00
    0   26   10      0.77      0.00
   23   27   10      1.04      0.00
   22   27   10      3.25      0.00
   21   27   10      3.76      0.00
   20   27   10     -1.19      0.00
   19   27   10     -2.23      0.00
   18   27   10     -1.78      0.00
   17   27   10    -12.38      0.00
   16   27   10      0.09      0.00
   15   27   10     -5.88      0.00
   14   27   10     -3.36      0.00
   13   27   10      4.36      0.00
   12   27   10      9.64      0.00
   11   27   10     -0.76      0.00
   10   27   10     -0.05      0.00
    9   27   10     -0.44      0.00
    8   27   10      0.34      0.00
    7   27   10      1.23      0.00
    6   27   10      1.21      0.00
    5   27   10     -0.09      0.00
    4   27   10      4.27      0.00
    3   27   10     -0.21      0.00
    2   27   10     11.12      0.00
    1   27   10     -2.50      0.00
   22   28   10     -6.83      0.00
   21   28   10      2.85      0.00
   20   28   10     -2.29      0.00
   19   28   10     -2.09      0.00
   18   28   10     -2.81      0.00
   17   28   10      1.01      0.00
   16   28   10     -2.57      0.00
   15   28   10    -12.17      0.00
   14   28   10      5.34      0.00
   13   28   10      2.01      0.00
   12   28   10      2.99      0.00
   11   28   10      1.39      0.00
   10   28   10     -1.95      0.00
    9   28   10     -4.40      0.00
    8   28   10      2.18      0.00
    7   28   10      5.90      0.00
    6   28   10      1.11      0.00
    5   28   10     -7.03      0.00
    4   28   10     -0.33      0.00
    3   28   10     -0.39      0.00
    2   28   10      1.34      0.00
    1   28   10      6.64      0.00
    0   28   10     -1.91      0.00
   20   29   10     -2.36      0.00
   19   29   10     -3.15      0.00
   18   29   10     -1.82      0.00
   17   29   10     13.27      0.00
   16   29   10     -1.36      0.00
   15   29   10      1.70      0.00
   14   29   10      2.82      0.00
   13   29   10      3.45      0.00
   12   29   10     -2.22      0.00
   11   29   10     -4.52      0.00
   10   29   10     -1.14      0.00
    9   29   10     -2.66      0.00
    8   29   10    -11.05      0.00
    7   29   10     -0.49      0.00
    6   29   10      3.62      0.00
    5   29   10     -4.18      0.00
    4   29   10     -3.39      0.00
    3   29   10      3.27      0.00
    2   29   10      1.56      0.00
    1   29   10     -0.73      0.00
   19   30   10      1.30      0.00
   18   30   10     11.30      0.00
   17   30   10     -1.80      0.00
   16   30   10      2.41      0.00
   15   30   10      1.70      0.00
   14   30   10     -7.81      0.00
   13   30   10      0.68      0.00
   12   30   10      0.19      0.00
   11   30   10     -3.86      0.00
   10   30   10     -1.05      0.00
    9   30   10     -8.15      0.00
    8   30   10     -4.62      0.00
    7   30   10     -3.45      0.00
    6   30   10     -4.55      0.00
    5   30   10     -1.31      0.00
    4   30   10      2.78      0.00
    3   30   10     -0.87      0.00
    2   30   10      7.38      0.00
    1   30   10     -4.48      0.00
    0   30   10     -3.40      0.00
   17   31   10      2.64      0.00
   16   31   10     -1.86      0.00
   15   31   10     -2.59      0.00
   14   31   10      1.48      0.00
   13   31   10     -1.88      0.00
   12   31   10      3.04      0.00
   11   31   10     -1.79      0.00
   10   31   10     -3.26      0.00
    9   31   10      6.25      0.00
    8   31   10     -0.83      0.00
    7   31   10      0.35      0.00
    6   31   10     -2.70      0.00
    5   31   10      4.73      0.00
    4   31   10      2.31      0.00
    3   31   10     -5.95      0.00
    2   31   10     -3.44      0.00
    1   31   10     -2.51      0.00
   15   32   10     -7.75      0.00
   14   32   10      1.47      0.00
   13   32   10     -3.24      0.00
   12   32   10      2.57      0.00
   11   32   10      6.69      0.00
   10   32   10      2.12      0.00
    9   32   10      3.99      0.00
    8   32   10      2.09      0.00
    7   32   10     -3.59      0.00
    6   32   10      1.71      0.00
    5   32   10     12.80      0.00
    4   32   10     -1.25      0.00
    3   32   10      2.85      0.00
    2   32   10     -8.52      0.00
    1   32   10     -3.25      0.00
    0   32   10     -2.08      0.00
   13   33   10     -5.55      0.00
   12   33   10    -11.98      0.00
   11   33   10      2.26      0.00
   10   33   10      7.60      0.00
    9   33   10      6.47      0.00
    8   33   10     -3.63      0.00
    7   33   10     -7.61      0.00
    6   33   10      5.79      0.00
    5   33   10      6.52      0.00
    4   33   10      1.86      0.00
    3   33   10      4.42      0.00
    2   33   10      6.27      0.00
    1   33   10     -9.49      0.00
   10   34   10     11.86      0.00
    9   34   10      9.50      0.00
    8   34   10      1.42      0.00
    7   34   10      0.45      0.00
    6   34   10      8.80      0.00
    5   34   10      2.44      0.00
    4   34   10      2.58      0.00
    3   34   10      5.35      0.00
    2   34   10    -11.76      0.00
    1   34   10     -8.88      0.00
    0   34   10     -7.74      0.00
    6   35   10      6.80      0.00
    5   35   10     -5.69      0.00
    4   35   10     -6.25      0.00
    3   35   10     -5.35      0.00
    2   35   10     12.10      0.00
    1   35   10    -11.63      0.00
    1    2   11     -7.95      0.00
    0    2   11     15.84      0.00
    2    3   11     -1.31      0.00
    1    3   11     -4.53      0.00
    3    4   11     15.41      0.00
    2    4   11     -5.06      0.00
    1    4   11     -4.88      0.00
    0    4   11      0.04      0.00
    4    5   11      3.55      0.00
    3    5   11     21.93      0.00
    2    5   11     16.73      0.00
    1    5   11    -10.26      0.00
    5    6   11     16.74      0.00
    4    6   11     -0.03      0.00
    3    6   11      0.17      0.00
    2    6   11     -3.14      0.00
    1    6   11    -11.97      0.00
    0    6   11      7.76      0.00
    6    7   11      3.37      0.00
    5    7   11     -6.99      0.00
    4    7   11     11.60      0.00
    3    7   11     -8.44      0.00
    2    7   11     20.17      0.00
    1    7   11      1.92      0.00
    7    8   11     -1.11      0.00
    6    8   11      5.34      0.00
    5    8   11     -2.29      0.00
    4    8   11     11.79      0.00
    3    8   11     -4.04      0.00
    2    8   11     -1.69      0.00
    1    8   11    -11.36      0.00
    0    8   11     -4.96      0.00
    8    9   11    -15.68      0.00
    7    9   11     13.60      0.00
    6    9   11     14.77      0.00
    5    9   11     -3.01      0.00
    4    9   11     -1.35      0.00
    3    9   11      5.25      0.00
    2    9   11     -2.75      0.00
    1    9   11      7.66      0.00
    9   10   11     -9.42      0.00
    8   10   11     14.69      0.00
    7   10   11      6.32      0.00
    6   10   11     -3.54      0.00
    5   10   11     -5.65      0.00
    4   10   11      3.38      0.00
    3   10   11     10.05      0.00
    2   10   11      7.26      0.00
    1   10   11     13.45      0.00
    0   10   11     -2.79      0.00
   10   11   11     -4.00      0.00
    9   11   11     12.05      0.00
    8   11   11     11.96      0.00
    7   11   11     -9.83      0.00
    6   11   11      6.78      0.00
    5   11   11    -14.20      0.00
    4   11   11     -3.07      0.00
    3   11   11     -6.06      0.00
    2   11   11    -19.42      0.00
    1   11   11      1.65      0.00
   11   12   11     -1.56      0.00
   10   12   11     -0.96      0.00
    9   12   11      7.11      0.00
    8   12   11      3.50      0.00
    7   12   11     -0.12      0.00
    6   12   11     -4.69      0.00
    5   12   11      0.29      0.00
    4   12   11      4.82      0.00
    3   12   11      2.40      0.00
    2   12   11      1.60      0.00
    1   12   11     -3.15      0.00
    0   12   11      3.43      0.00
   12   13   11      5.02      0.00
   11   13   11     -2.71      0.00
   10   13   11      1.19      0.00
    9   13   11     -1.71      0.00
    8   13   11      7.97      0.00
    7   13   11     -1.66      0.00
    6   13   11      1.26      0.00
    5   13   11     -3.08      0.00
    4   13   11     -6.41      0.00
    3   13   11     -6.53      0.00
    2   13   11     -3.94      0.00
    1   13   11     -2.29      0.00
   13   14   11      5.65      0.00
   12   14   11      3.25      0.00
   11   14   11      2.47      0.00
   10   14   11     -4.16      0.00
    9   14   11    -12.49      0.00
    8   14   11     -2.36      0.00
    7   14   11     -3.66      0.00
    6   14   11     -9.43      0.00
    5   14   11     -2.09      0.00
    4   14   11     -5.96      0.00
    3   14   11     -0.52      0.00
    2   14   11      6.89      0.00
    1   14   11     -0.72      0.00
    0   14   11     -2.84      0.00
   14   15   11     -3.95      0.00
   13   15   11      3.40      0.00
   12   15   11     -4.00      0.00
   11   15   11    -11.02      0.00
   10   15   11      3.55      0.00
    9   15   11     -7.63      0.00
    8   15   11      1.43      0.00
    7   15   11      9.18      0.00
    6   15   11     -2.36      0.00
    5   15   11      5.29      0.00
    4   15   11     -0.37      0.00
    3   15   11      0.93      0.00
    2   15   11     -1.73      0.00
    1   15   11     -3.78      0.00
   15   16   11      0.59      0.00
   14   16   11     -5.35      0.00
   13   16   11      1.04      0.00
   12   16   11      2.58      0.00
   11   16   11     -7.01      0.00
   10   16   11      2.98      0.00
    9   16   11      0.53      0.00
    8   16   11      8.76      0.00
    7   16   11     -0.87      0.00
    6   16   11      7.07      0.00
    5   16   11     -3.86      0.00
    4   16   11     -1.09      0.00
    3   16   11     10.85      0.00
    2   16   11     -1.88      0.00
    1   16   11      4.25      0.00
    0   16   11      0.75      0.00
   16   17   11     -2.05      0.00
   15   17   11     -8.93      0.00
   14   17   11      0.86      0.00
   13   17   11    -10.73      0.00
   12   17   11     -0.68      0.00
   11   17   11     -5.02      0.00
   10   17   11      0.53      0.00
    9   17   11      0.18      0.00
    8   17   11     -7.10      0.00
    7   17   11      2.91      0.00
    6   17   11     10.45      0.00
    5   17   11     -2.75      0.00
    4   17   11     -0.51      0.00
    3   17   11      2.39      0.00
    2   17   11     -1.90      0.00
    1   17   11    -11.39      0.00
   17   18   11      5.22      0.00
   16   18   11     -0.68      0.00
   15   18   11     -1.91      0.00
   14   18   11     -3.87      0.00
   13   18   11    -11.56      0.00
   12   18   11      0.70      0.00
   11   18   11     16.49      0.00
   10   18   11      8.34      0.00
    9   18   11      2.21      0.00
    8   18   11     -2.55      0.00
    7   18   11     -2.80      0.00
    6   18   11     -8.82      0.00
    5   18   11      5.52      0.00
    4   18   11     -0.39      0.00
    3   18   11     -8.19      0.00
    2   18   11    -12.13      0.00
    1   18   11     -7.45      0.00
    0   18   11     13.33      0.00
   18   19   11      4.48      0.00
   17   19   11      3.45      0.00
   16   19   11     -1.13      0.00
   15   19   11     -3.27      0.00
   14   19   11    -10.17      0.00
   13   19   11    -10.11      0.00
   12   19   11      0.66      0.00
   11   19   11      3.42      0.00
   10   19   11     -7.32      0.00
    9   19   11      3.65      0.00
    8   19   11     -2.06      0.00
    7   19   11     -0.95      0.00
    6   19   11     -5.60      0.00
    5   19   11      3.21      0.00
    4   19   11      6.03      0.00
    3   19   11     -1.82      0.00
    2   19   11      0.54      0.00
    1   19   11     -2.82      0.00
   19   20   11     -3.71      0.00
   18   20   11     -0.57      0.00
   17   20   11     -0.49      0.00
   16   20   11      0.83      0.00
   15   20   11     -9.94      0.00
   14   20   11     -6.78      0.00
   13   20   11     -4.67      0.00
   12   20   11     -5.84      0.00
   11   20   11     -4.77      0.00
   10   20   11      1.96      0.00
    9   20   11     -1.25      0.00
    8   20   11      8.88      0.00
    7   20   11     -8.89      0.00
    6   20   11     -8.52      0.00
    5   20   11    -11.41      0.00
    4   20   11     -4.94      0.00
    3   20   11     -2.15      0.00
    2   20   11     -0.89      0.00
    1   20   11     -8.72      0.00
    0   20   11     -1.58      0.00
   20   21   11      6.55      0.00
   19   21   11     -4.28      0.00
   18   21   11      0.89      0.00
   17   21   11      2.73      0.00
   16   21   11      5.81      0.00
   15   21   11      2.83      0.00
   14   21   11      8.91      0.00
   13   21   11      0.28      0.00
   12   21   11      3.74      0.00
   11   21   11     23.79      0.00
   10   21   11     14.59      0.00
    9   21   11      2.04      0.00
    8   21   11    -16.93      0.00
    7   21   11      8.36      0.00
    6   21   11    -11.95      0.00
    5   21   11     -0.79      0.00
    4   21   11      4.08      0.00
    3   21   11      0.53      0.00
    2   21   11     -7.14      0.00
    1   21   11     -4.20      0.00
   21   22   11     -3.39      0.00
   20   22   11      5.98      0.00
   19   22   11      1.92      0.00
   18   22   11      1.67      0.00
   17   22   11      3.90      0.00
   16   22   11     18.49      0.00
   15   22   11      8.02      0.00
   14   22   11     -3.78      0.00
   13   22   11     10.34      0.00
   12   22   11      0.70      0.00
   11   22   11      6.69      0.00
   10   22   11     -2.14      0.00
    9   22   11      4.74      0.00
    8   22   11     20.19      0.00
    7   22   11     -2.99      0.00
    6   22   11     -2.19      0.00
    5   22   11     -3.36      0.00
    4   22   11      4.54      0.00
    3   22   11     13.04      0.00
    2   22   11      0.63      0.00
    1   22   11      6.59      0.00
    0   22   11     -7.83      0.00
   22   23   11      6.10      0.00
   21   23   11      2.02      0.00
   20   23   11      1.84      0.00
   19   23   11      8.39      0.00
   18   23   11      2.09      0.00
   17   23   11     -1.49      0.00
   16   23   11     -0.88      0.00
   15   23   11     -0.13      0.00
   14   23   11      4.78      0.00
   13   23   11      5.54      0.00
   12   23   11      6.74      0.00
   11   23   11      7.52      0.00
   10   23   11      2.71      0.00
    9   23   11     -0.79      0.00
    8   23   11      5.34      0.00
    7   23   11     -6.58      0.00
    6   23   11      8.67      0.00
    5   23   11      7.80      0.00
    4   23   11      6.95      0.00
    3   23   11      6.16      0.00
    2   23   11     14.99      0.00
    1   23   11     -1.14      0.00
   23   24   11      0.88      0.00
   22   24   11      2.47      0.00
   21   24   11      0.69      0.00
   20   24   11     -4.45      0.00
   19   24   11      5.70      0.00
   18   24   11     -2.23      0.00
   17   24   11     -8.47      0.00
   16   24   11      1.77      0.00
   15   24   11      6.81      0.00
   14   24   11      5.44      0.00
   13   24   11      3.97      0.00
   12   24   11      0.45      0.00
   11   24   11      7.96      0.00
   10   24   11     12.48      0.00
    9   24   11      7.95      0.00
    8   24   11      3.55      0.00
    7   24   11     -3.64      0.00
    6   24   11      7.26      0.00
    5   24   11     11.68      0.00
    4   24   11     -6.77      0.00
    3   24   11     -0.84      0.00
    2   24   11     -1.82      0.00
    1   24   11    -10.21      0.00
    0   24   11      9.76      0.00
   24   25   11     -3.60      0.00
   23   25   11      6.97      0.00
   22   25   11     -1.07      0.00
   21   25   11     -5.92      0.00
   20   25   11      1.37      0.00
   19   25   11      0.31      0.00
   18   25   11      2.74      0.00
   17   25   11      2.29      0.00
   16   25   11     -5.20      0.00
   15   25   11      4.92      0.00
   14   25   11      7.38      0.00
   13   25   11      8.75      0.00
   12   25   11     -2.42      0.00
   11   25   11      6.77      0.00
   10   25   11     12.86      0.00
    9   25   11     10.65      0.00
    8   25   11      3.96      0.00
    7   25   11      6.37      0.00
    6   25   11      1.89      0.00
    5   25   11      2.24      0.00
    4   25   11      5.89      0.00
    3   25   11      1.43      0.00
    2   25   11      5.64      0.00
    1   25   11     -3.54      0.00
   23   26   11      6.93      0.00
   22   26   11     -2.81      0.00
   21   26   11     10.36      0.00
   20   26   11     -2.70      0.00
   19   26   11      5.05      0.00
   18   26   11      4.35      0.00
   17   26   11     -0.99      0.00
   16   26   11     -3.03      0.00
   15   26   11      1.30      0.00
   14   26   11      2.82      0.00
   13   26   11     -4.91      0.00
   12   26   11      5.24      0.00
   11   26   11     -5.03      0.00
   10   26   11      3.97      0.00
    9   26   11      0.96      0.00
    8   26   11     -0.19      0.00
    7   26   11     10.72      0.00
    6   26   11     -1.78      0.00
    5   26   11      0.12      0.00
    4   26   11     -5.75      0.00
    3   26   11      1.98      0.00
    2   26   11      5.81      0.00
    1   26   11      5.62      0.00
    0   26   11     -2.18      0.00
   22   27   11      3.16      0.00
   21   27   11     -2.04      0.00
   20   27   11     20.83      0.00
   19   27   11      6.42      0.00
   18   27   11     -2.72      0.00
   17   27   11     -3.44      0.00
   16   27   11     -5.65      0.00
   15   27   11     -3.24      0.00
   14   27   11      5.89      0.00
   13   27   11     -5.28      0.00
   12   27   11     17.36      0.00
   11   27   11     -4.12      0.00
   10   27   11     -9.37      0.00
    9   27   11     10.31      0.00
    8   27   11     -0.30      0.00
    7   27   11     -1.22      0.00
    6   27   11      8.31      0.00
    5   27   11      2.45      0.00
    4   27   11      0.83      0.00
    3   27   11     -4.49      0.00
    2   27   11      4.41      0.00
    1   27   11    -13.66      0.00
   21   28   11     -4.46      0.00
   20   28   11     -7.10      0.00
   19   28   11     -4.78      0.00
   18   28   11      1.34      0.00
   17   28   11      5.53      0.00
   16   28   11     -0.18      0.00
   15   28   11      8.66      0.00
   14   28   11     -6.92      0.00
   13   28   11      5.78      0.00
   12   28   11     -7.69      0.00
   11   28   11      1.19      0.00
   10   28   11      0.21      0.00
    9   28   11     -1.13      0.00
    8   28   11     -0.05      0.00
    7   28   11      0.24      0.00
    6   28   11      0.15      0.00
    5   28   11     -1.65      0.00
    4   28   11     -0.16      0.00
    3   28   11      3.88      0.00
    2   28   11     -6.22      0.00
    1   28   11     -4.33      0.00
    0   28   11     -3.24      0.00
   20   29   11     11.72      0.00
   19   29   11     -4.04      0.00
   18   29   11      4.79      0.00
   17   29   11     -5.27      0.00
   16   29   11      1.27      0.00
   15   29   11     -0.07      0.00
   14   29   11      7.87      0.00
   13   29   11      3.18      0.00
   12   29   11      3.41      0.00
   11   29   11      3.40      0.00
   10   29   11      9.60      0.00
    9   29   11     12.38      0.00
    8   29   11      3.66      0.00
    7   29   11      3.20      0.00
    6   29   11     -7.70      0.00
    5   29   11     -8.32      0.00
    4   29   11     -2.66      0.00
    3   29   11     -6.86      0.00
    2   29   11      9.43      0.00
    1   29   11      0.01      0.00
   18   30   11      3.41      0.00
   17   30   11     -4.72      0.00
   16   30   11      8.08      0.00
   15   30   11     13.78      0.00
   14   30   11     10.96      0.00
   13   30   11      1.18      0.00
   12   30   11     -6.96      0.00
   11   30   11     17.04      0.00
   10   30   11     -4.20      0.00
    9   30   11      2.74      0.00
    8   30   11      6.29      0.00
    7   30   11     -1.79      0.00
    6   30   11      3.65      0.00
    5   30   11      7.93      0.00
    4   30   11      4.15      0.00
    3   30   11     -7.41      0.00
    2   30   11     -2.31      0.00
    1   30   11      0.87      0.00
    0   30   11     -3.15      0.00
   16   31   11     -3.30      0.00
   15   31   11      9.66      0.00
   14   31   11      8.47      0.00
   13   31   11      6.65      0.00
   12   31   11     -5.96      0.00
   11   31   11     -3.64      0.00
   10   31   11     -0.53      0.00
    9   31   11      1.35      0.00
    8   31   11     15.09      0.00
    7   31   11     -2.05      0.00
    6   31   11     -2.01      0.00
    5   31   11      4.03      0.00
    4   31   11     -1.21      0.00
    3   31   11     -2.87      0.00
    2   31   11     -0.14      0.00
    1   31   11     -3.50      0.00
   14   32   11     11.37      0.00
   13   32   11      5.69      0.00
   12   32   11     -2.85      0.00
   11   32   11     -4.62      0.00
   10   32   11     -7.21      0.00
    9   32   11      1.20      0.00
    8   32   11      2.29      0.00
    7   32   11     -2.79      0.00
    6   32   11      6.25      0.00
    5   32   11     -2.93      0.00
    4   32   11      4.40      0.00
    3   32   11     -0.38      0.00
    2   32   11     -4.12      0.00
    1   32   11     -2.80      0.00
    0   32   11     -1.67      0.00
   12   33   11     -9.23      0.00
   11   33   11     -3.20      0.00
   10   33   11     -0.93      0.00
    9   33   11    -17.37      0.00
    8   33   11      4.97      0.00
    7   33   11     -2.28      0.00
    6   33   11     18.00      0.00
    5   33   11      8.25      0.00
    4   33   11      8.62      0.00
    3   33   11      4.57      0.00
    2   33   11     -0.55      0.00
    1   33   11      9.66      0.00
    9   34   11     -4.86      0.00
    8   34   11     -8.85      0.00
    7   34   11     11.43      0.00
    6   34   11     13.15      0.00
    5   34   11     -2.18      0.00
    4   34   11    -14.10      0.00
    3   34   11     -9.27      0.00
    2   34   11      0.26      0.00
    1   34   11     -6.75      0.00
    0   34   11      7.49      0.00
    4   35   11    -12.17      0.00
    3   35   11      6.59      0.00
    2   35   11      3.00      0.00
    1   35   11     -3.10      0.00
    0    0   12     16.59      0.00
    1    1   12      5.53      0.00
    1    2   12     -6.12      0.00
    0    2   12    -14.12      0.00
    2    2   12    -13.35      0.00
    2    3   12    -16.32      0.00
    1    3   12     12.87      0.00
    3    3   12    -19.63      0.00
    3    4   12     52.03      0.00
    2    4   12     -6.24      0.00
    1    4   12     25.96      0.00
    0    4   12     -5.55      0.00
    4    4   12      5.65      0.00
    4    5   12    -20.63      0.00
    3    5   12     -6.68      0.00
    2    5   12    -34.29      0.00
    1    5   12     -0.13      0.00
    5    5   12     34.25      0.00
    5    6   12     -1.80      0.00
    4    6   12     -0.84      0.00
    3    6   12      2.90      0.00
    2    6   12      6.51      0.00
    1    6   12     14.98      0.00
    0    6   12     21.08      0.00
    6    6   12    -22.29      0.00
    6    7   12    -10.83      0.00
    5    7   12     13.76      0.00
    4    7   12      0.85      0.00
    3    7   12      5.99      0.00
    2    7   12      6.85      0.00
    1    7   12    -17.75      0.00
    7    7   12     15.35      0.00
    7    8   12     17.08      0.00
    6    8   12     -6.59      0.00
    5    8   12      0.00      0.00
    4    8   12     -6.31      0.00
    3    8   12    -11.49      0.00
    2    8   12     10.69      0.00
    1    8   12    -19.10      0.00
    0    8   12     23.55      0.00
    8    8   12    -18.71      0.00
    8    9   12     -7.17      0.00
    7    9   12      4.59      0.00
    6    9   12    -12.58      0.00
    5    9   12     -6.62      0.00
    4    9   12     -3.60      0.00
    3    9   12    -10.88      0.00
    2    9   12     18.12      0.00
    1    9   12    -10.52      0.00
    9    9   12      2.18      0.00
    9   10   12      6.43      0.00
    8   10   12      0.59      0.00
    7   10   12     -0.10      0.00
    6   10   12     -3.46      0.00
    5   10   12      2.46      0.00
    4   10   12     -8.94      0.00
    3   10   12    -13.61      0.00
    2   10   12      5.47      0.00
    1   10   12      4.78      0.00
    0   10   12      2.91      0.00
   10   10   12     -8.97      0.00
   10   11   12    -16.87      0.00
    9   11   12      0.01      0.00
    8   11   12    -11.74      0.00
    7   11   12      0.90      0.00
    6   11   12      6.19      0.00
    5   11   12     -4.48      0.00
    4   11   12      5.46      0.00
    3   11   12     -1.89      0.00
    2   11   12      4.95      0.00
    1   11   12      6.43      0.00
   11   11   12      0.04      0.00
   11   12   12      6.36      0.00
   10   12   12      1.85      0.00
    9   12   12      9.70      0.00
    8   12   12      6.99      0.00
    7   12   12      5.68      0.00
    6   12   12      4.30      0.00
    5   12   12      0.07      0.00
    4   12   12      1.54      0.00
    3   12   12      0.91      0.00
    2   12   12      3.43      0.00
    1   12   12     -3.95      0.00
    0   12   12     -3.90      0.00
   12   12   12     -0.69      0.00
   12   13   12     -7.08      0.00
   11   13   12      3.24      0.00
   10   13   12      0.69      0.00
    9   13   12      3.01      0.00
    8   13   12     -2.22      0.00
    7   13   12     -2.71      0.00
    6   13   12     -9.62      0.00
    5   13   12     -4.74      0.00
    4   13   12      9.10      0.00
    3   13   12      2.23      0.00
    2   13   12     -0.22      0.00
    1   13   12     10.02      0.00
   13   13   12      0.90      0.00
   13   14   12     -2.74      0.00
   12   14   12     -3.25      0.00
   11   14   12      8.76      0.00
   10   14   12      0.59      0.00
    9   14   12      1.36      0.00
    8   14   12      9.24      0.00
    7   14   12     14.36      0.00
    6   14   12     13.49      0.00
    5   14   12      3.85      0.00
    4   14   12      2.44      0.00
    3   14   12     -7.61      0.00
    2   14   12     -1.18      0.00
    1   14   12     -0.16      0.00
    0   14   12     -2.61      0.00
   14   14   12     -2.18      0.00
   14   15   12      2.62      0.00
   13   15   12      2.97      0.00
   12   15   12     -1.41      0.00
   11   15   12     -9.78      0.00
   10   15   12      5.71      0.00
    9   15   12     -3.67      0.00
    8   15   12     -3.13      0.00
    7   15   12     -8.39      0.00
    6   15   12      2.44      0.00
    5   15   12     -0.50      0.00
    4   15   12      5.29      0.00
    3   15   12      1.07      0.00
    2   15   12     -0.91      0.00
    1   15   12      4.19      0.00
   15   15   12      7.19      0.00
   15   16   12      0.55      0.00
   14   16   12     -3.29      0.00
   13   16   12     -4.62      0.00
   12   16   12     -5.44      0.00
   11   16   12      0.51      0.00
   10   16   12      5.95      0.00
    9   16   12     -0.11      0.00
    8   16   12      6.12      0.00
    7   16   12      2.53      0.00
    6   16   12      4.64      0.00
    5   16   12      6.50      0.00
    4   16   12      2.28      0.00
    3   16   12      2.47      0.00
    2   16   12     -3.49      0.00
    1   16   12     -0.54      0.00
    0   16   12    -13.45      0.00
   16   16   12     -3.19      0.00
   16   17   12      3.76      0.00
   15   17   12     -2.49      0.00
   14   17   12     -1.80      0.00
   13   17   12     10.36      0.00
   12   17   12     -1.07      0.00
   11   17   12     -1.43      0.00
   10   17   12      9.77      0.00
    9   17   12     -7.16      0.00
    8   17   12      0.73      0.00
    7   17   12      1.33      0.00
    6   17   12     -0.71      0.00
    5   17   12     -3.72      0.00
    4   17   12     -8.42      0.00
    3   17   12     -9.05      0.00
    2   17   12     -5.03      0.00
    1   17   12      6.99      0.00
   17   17   12     -2.97      0.00
   17   18   12     -2.95      0.00
   16   18   12     -1.25      0.00
   15   18   12     -3.13      0.00
   14   18   12      7.76      0.00
   13   18   12     -5.48      0.00
   12   18   12     -3.00      0.00
   11   18   12     -6.75      0.00
   10   18   12      3.04      0.00
    9   18   12     -1.29      0.00
    8   18   12      0.91      0.00
    7   18   12     10.86      0.00
    6   18   12      2.20      0.00
    5   18   12     -2.58      0.00
    4   18   12     -0.32      0.00
    3   18   12     11.85      0.00
    2   18   12     -1.04      0.00
    1   18   12     -2.15      0.00
    0   18   12      1.09      0.00
   18   18   12     -0.46      0.00
   18   19   12     -3.60      0.00
   17   19   12     -0.88      0.00
   16   19   12     -3.27      0.00
   15   19   12      0.34      0.00
   14   19   12      0.51      0.00
   13   19   12     -1.67      0.00
   12   19   12      4.87      0.00
   11   19   12      3.96      0.00
   10   19   12     -1.67      0.00
    9   19   12      2.03      0.00
    8   19   12     -7.60      0.00
    7   19   12      2.86      0.00
    6   19   12      3.93      0.00
    5   19   12     -0.24      0.00
    4   19   12     -0.25      0.00
    3   19   12      4.30      0.00
    2   19   12     -0.07      0.00
    1   19   12     -0.07      0.00
   19   19   12      2.16      0.00
   19   20   12     -5.53      0.00
   18   20   12      0.71      0.00
   17   20   12     -3.54      0.00
   16   20   12     -3.35      0.00
   15   20   12      2.10      0.00
   14   20   12      3.60      0.00
   13   20   12     -2.34      0.00
   12   20   12      4.84      0.00
   11   20   12      6.42      0.00
   10   20   12      6.23      0.00
    9   20   12     -3.99      0.00
    8   20   12     -9.63      0.00
    7   20   12      7.29      0.00
    6   20   12      2.81      0.00
    5   20   12      8.94      0.00
    4   20   12      1.80      0.00
    3   20   12      0.26      0.00
    2   20   12      0.99      0.00
    1   20   12      9.63      0.00
    0   20   12      4.69      0.00
   20   20   12      0.08      0.00
   20   21   12      2.86      0.00
   19   21   12     -4.71      0.00
   18   21   12      7.73      0.00
   17   21   12     -2.48      0.00
   16   21   12    -10.31      0.00
   15   21   12      0.67      0.00
   14   21   12      3.55      0.00
   13   21   12     -3.88      0.00
   12   21   12      7.16      0.00
   11   21   12     -3.61      0.00
   10   21   12      7.25      0.00
    9   21   12      4.77      0.00
    8   21   12      3.18      0.00
    7   21   12     -2.03      0.00
    6   21   12     10.45      0.00
    5   21   12      0.29      0.00
    4   21   12     -1.83      0.00
    3   21   12      2.49      0.00
    2   21   12      2.22      0.00
    1   21   12      8.16      0.00
   21   21   12     -5.65      0.00
   21   22   12      4.30      0.00
   20   22   12      0.84      0.00
   19   22   12     -1.81      0.00
   18   22   12     18.14      0.00
   17   22   12      2.08      0.00
   16   22   12     -4.15      0.00
   15   22   12      0.27      0.00
   14   22   12     -1.55      0.00
   13   22   12     -2.97      0.00
   12   22   12     -1.12      0.00
   11   22   12     -0.01      0.00
   10   22   12     -9.59      0.00
    9   22   12     -3.23      0.00
    8   22   12    -13.91      0.00
    7   22   12      3.91      0.00
    6   22   12     10.03      0.00
    5   22   12      5.65      0.00
    4   22   12     12.23      0.00
    3   22   12      9.67      0.00
    2   22   12     -3.87      0.00
    1   22   12      4.16      0.00
    0   22   12      1.11      0.00
   22   22   12    -11.12      0.00
   22   23   12      4.30      0.00
   21   23   12      2.65      0.00
   20   23   12      6.37      0.00
   19   23   12      1.74      0.00
   18   23   12      6.15      0.00
   17   23   12     -1.11      0.00
   16   23   12     -1.78      0.00
   15   23   12      5.78      0.00
   14   23   12      6.19      0.00
   13   23   12      6.33      0.00
   12   23   12      8.20      0.00
   11   23   12     -1.68      0.00
   10   23   12     -5.41      0.00
    9   23   12     -5.05      0.00
    8   23   12     13.44      0.00
    7   23   12     -4.96      0.00
    6   23   12      7.53      0.00
    5   23   12     15.40      0.00
    4   23   12     -6.29      0.00
    3   23   12     -5.36      0.00
    2   23   12      0.77      0.00
    1   23   12     -3.39      0.00
   23   23   12      1.53      0.00
   23   24   12      1.82      0.00
   22   24   12      2.08      0.00
   21   24   12     10.38      0.00
   20   24   12     -3.19      0.00
   19   24   12     -1.91      0.00
   18   24   12      0.32      0.00
   17   24   12      1.95      0.00
   16   24   12     -1.70      0.00
   15   24   12      3.76      0.00
   14   24   12     -2.80      0.00
   13   24   12      4.82      0.00
   12   24   12      1.36      0.00
   11   24   12     -2.41      0.00
   10   24   12    -12.83      0.00
    9   24   12      4.56      0.00
    8   24   12     -4.26      0.00
    7   24   12      4.44      0.00
    6   24   12      1.57      0.00
    5   24   12     -5.70      0.00
    4   24   12     -6.69      0.00
    3   24   12    -11.40      0.00
    2   24   12     -6.23      0.00
    1   24   12      5.09      0.00
    0   24   12     -0.33      0.00
   24   24   12      1.53      0.00
   24   25   12      4.77      0.00
   23   25   12     -3.94      0.00
   22   25   12      3.96      0.00
   21   25   12      3.57      0.00
   20   25   12     -1.01      0.00
   19   25   12      6.65      0.00
   18   25   12     10.00      0.00
   17   25   12     -0.88      0.00
   16   25   12      0.13      0.00
   15   25   12     -3.41      0.00
   14   25   12      3.40      0.00
   13   25   12     -0.48      0.00
   12   25   12     -3.04      0.00
   11   25   12      1.83      0.00
   10   25   12     -3.74      0.00
    9   25   12     -6.64      0.00
    8   25   12     -2.03      0.00
    7   25   12     -8.57      0.00
    6   25   12      8.32      0.00
    5   25   12     11.48      0.00
    4   25   12     -1.41      0.00
    3   25   12     -8.91      0.00
    2   25   12     -8.00      0.00
    1   25   12     -0.22      0.00
   23   26   12     -5.67      0.00
   22   26   12      6.28      0.00
   21   26   12      7.75      0.00
   20   26   12     -0.30      0.00
   19   26   12      1.51      0.00
   18   26   12     -6.15      0.00
   17   26   12      4.11      0.00
   16   26   12      1.33      0.00
   15   26   12     -6.04      0.00
   14   26   12     -0.47      0.00
   13   26   12      3.86      0.00
   12   26   12      3.74      0.00
   11   26   12     -1.12      0.00
   10   26   12      7.24      0.00
    9   26   12     -2.07      0.00
    8   26   12     -7.64      0.00
    7   26   12      2.11      0.00
    6   26   12      9.87      0.00
    5   26   12     -0.17      0.00
    4   26   12     -4.06      0.00
    3   26   12     11.32      0.00
    2   26   12      1.03      0.00
    1   26   12      2.00      0.00
    0   26   12     10.28      0.00
   22   27   12     -4.63      0.00
   21   27   12     -1.13      0.00
   20   27   12     -1.86      0.00
   19   27   12      0.99      0.00
   18   27   12      4.52      0.00
   17   27   12     -2.52      0.00
   16   27   12     -7.62      0.00
   15   27   12     -1.76      0.00
   14   27   12     -0.74      0.00
   13   27   12     -7.27      0.00
   12   27   12     -2.33      0.00
   11   27   12      2.64      0.00
   10   27   12     -3.50      0.00
    9   27   12     -1.32      0.00
    8   27   12     10.96      0.00
    7   27   12      4.07      0.00
    6   27   12     -0.14      0.00
    5   27   12     -4.55      0.00
    4   27   12     11.76      0.00
    3   27   12     -0.08      0.00
    2   27   12     -2.28      0.00
    1   27   12     -0.11      0.00
   20   28   12      0.00      0.00
   19   28   12      2.06      0.00
   18   28   12     -2.70      0.00
   17   28   12    -10.86      0.00
   16   28   12     -3.42      0.00
   15   28   12      2.92      0.00
   14   28   12     -5.54      0.00
   13   28   12    -10.39      0.00
   12   28   12      1.03      0.00
   11   28   12     -2.05      0.00
   10   28   12      4.38      0.00
    9   28   12     -4.37      0.00
    8   28   12      4.64      0.00
    7   28   12     -1.86      0.00
    6   28   12      0.53      0.00
    5   28   12      1.95      0.00
    4   28   12     -4.39      0.00
    3   28   12     -5.50      0.00
    2   28   12     -1.64      0.00
    1   28   12    -11.85      0.00
    0   28   12      1.65      0.00
   19   29   12     -1.22      0.00
   18   29   12     -4.65      0.00
   17   29   12      2.85      0.00
   16   29   12      3.93      0.00
   15   29   12     -2.03      0.00
   14   29   12      1.35      0.00
   13   29   12      1.07      0.00
   12   29   12      0.57      0.00
   11   29   12     -6.33      0.00
   10   29   12     -4.28      0.00
    9   29   12      0.52      0.00
    8   29   12     -2.46      0.00
    7   29   12      1.58      0.00
    6   29   12     -0.11      0.00
    5   29   12      9.53      0.00
    4   29   12      3.20      0.00
    3   29   12      1.94      0.00
    2   29   12     12.26      0.00
    1   29   12     -6.01      0.00
   17   30   12      0.49      0.00
   16   30   12      1.59      0.00
   15   30   12      1.93      0.00
   14   30   12      2.56      0.00
   13   30   12     -3.77      0.00
   12   30   12     -1.82      0.00
   11   30   12     -2.58      0.00
   10   30   12     -2.48      0.00
    9   30   12      0.34      0.00
    8   30   12     -5.90      0.00
    7   30   12     -3.04      0.00
    6   30   12     -0.41      0.00
    5   30   12     -4.10      0.00
    4   30   12      1.87      0.00
    3   30   12      1.34      0.00
    2   30   12      5.17      0.00
    1   30   12      9.42      0.00
    0   30   12     -5.51      0.00
   16   31   12     -7.00      0.00
   15   31   12     -2.43      0.00
   14   31   12      4.14      0.00
   13   31   12      4.86      0.00
   12   31   12     -0.61      0.00
   11   31   12      2.88      0.00
   10   31   12      3.78      0.00
    9   31   12     -1.65      0.00
    8   31   12    -11.44      0.00
    7   31   12     -3.48      0.00
    6   31   12     -3.93      0.00
    5   31   12     -8.23      0.00
    4   31   12      2.60      0.00
    3   31   12     -0.96      0.00
    2   31   12      0.29      0.00
    1   31   12     -3.34      0.00
   14   32   12      7.35      0.00
   13   32   12     -3.88      0.00
   12   32   12     -5.95      0.00
   11   32   12     -2.28      0.00
   10   32   12     13.20      0.00
    9   32   12      5.98      0.00
    8   32   12     -1.86      0.00
    7   32   12      3.89      0.00
    6   32   12      6.51      0.00
    5   32   12      4.85      0.00
    4   32   12     -2.58      0.00
    3   32   12     -1.20      0.00
    2   32   12    -11.74      0.00
    1   32   12      1.20      0.00
    0   32   12     -1.37      0.00
   11   33   12     12.13      0.00
   10   33   12     -2.28      0.00
    9   33   12      7.23      0.00
    8   33   12      7.58      0.00
    7   33   12    -11.53      0.00
    6   33   12      2.75      0.00
    5   33   12     -0.31      0.00
    4   33   12    -14.21      0.00
    3   33   12      6.22      0.00
    2   33   12      1.96      0.00
    1   33   12      3.78      0.00
    7   34   12      0.64      0.00
    6   34   12     -8.88      0.00
    5   34   12      4.66      0.00
    4   34   12      2.61      0.00
    3   34   12      4.30      0.00
    2   34   12      4.87      0.00
    1   34   12     12.97      0.00
    0   34   12     -5.50      0.00
    1    2   13     -2.00      0.00
    0    2   13      3.64      0.00
    2    3   13      6.15      0.00
    1    3   13    -13.21      0.00
    3    4   13     -0.88      0.00
    2    4   13      1.42      0.00
    1    4   13     -9.37      0.00
    0    4   13     17.10      0.00
    4    5   13      0.75      0.00
    3    5   13      0.97      0.00
    2    5   13      6.18      0.00
    1    5   13     -4.76      0.00
    5    6   13      0.32      0.00
    4    6   13     -1.53      0.00
    3    6   13     -6.26      0.00
    2    6   13     -1.39      0.00
    1    6   13    -11.51      0.00
    0    6   13     11.20      0.00
    6    7   13      8.44      0.00
    5    7   13     -2.40      0.00
    4    7   13      0.06      0.00
    3    7   13      3.27      0.00
    2    7   13     16.53      0.00
    1    7   13     -2.12      0.00
    7    8   13      2.49      0.00
    6    8   13     -7.78      0.00
    5    8   13      5.94      0.00
    4    8   13      5.75      0.00
    3    8   13    -10.70      0.00
    2    8   13     -0.19      0.00
    1    8   13     -1.97      0.00
    0    8   13    -11.94      0.00
    8    9   13     -0.50      0.00
    7    9   13      1.31      0.00
    6    9   13    -10.85      0.00
    5    9   13      1.62      0.00
    4    9   13      3.34      0.00
    3    9   13     -1.53      0.00
    2    9   13      6.76      0.00
    1    9   13      1.35      0.00
    9   10   13      2.59      0.00
    8   10   13     -3.96      0.00
    7   10   13     -0.70      0.00
    6   10   13     -0.03      0.00
    5   10   13      0.03      0.00
    4   10   13      9.03      0.00
    3   10   13      6.16      0.00
    2   10   13    -10.50      0.00
    1   10   13     -2.93      0.00
    0   10   13      0.14      0.00
   10   11   13      2.09      0.00
    9   11   13      3.28      0.00
    8   11   13    -10.82      0.00
    7   11   13     -0.72      0.00
    6   11   13      4.28      0.00
    5   11   13     -3.19      0.00
    4   11   13      5.68      0.00
    3   11   13     -3.77      0.00
    2   11   13     -5.20      0.00
    1   11   13    -15.79      0.00
   11   12   13      5.32      0.00
   10   12   13     -7.29      0.00
    9   12   13      4.27      0.00
    8   12   13     -2.24      0.00
    7   12   13      0.74      0.00
    6   12   13     11.40      0.00
    5   12   13      3.49      0.00
    4   12   13    -15.68      0.00
    3   12   13     -0.81      0.00
    2   12   13      7.65      0.00
    1   12   13      3.73      0.00
    0   12   13     -8.59      0.00
   12   13   13     -1.91      0.00
   11   13   13      2.28      0.00
   10   13   13      0.17      0.00
    9   13   13      1.99      0.00
    8   13   13      1.46      0.00
    7   13   13      1.50      0.00
    6   13   13      6.12      0.00
    5   13   13    -10.63      0.00
    4   13   13     -0.57      0.00
    3   13   13     -7.64      0.00
    2   13   13      6.73      0.00
    1   13   13     -6.61      0.00
   13   14   13     -1.56      0.00
   12   14   13     -6.76      0.00
   11   14   13     -1.75      0.00
   10   14   13     11.30      0.00
    9   14   13     -0.58      0.00
    8   14   13      0.18      0.00
    7   14   13     -4.63      0.00
    6   14   13    -10.15      0.00
    5   14   13      0.60      0.00
    4   14   13     12.00      0.00
    3   14   13     -2.00      0.00
    2   14   13     -3.34      0.00
    1   14   13     -6.11      0.00
    0   14   13      2.35      0.00
   14   15   13     -8.61      0.00
   13   15   13      5.33      0.00
   12   15   13     -8.37      0.00
   11   15   13      1.55      0.00
   10   15   13      6.67      0.00
    9   15   13     -0.41      0.00
    8   15   13     -1.08      0.00
    7   15   13    -23.87      0.00
    6   15   13      2.09      0.00
    5   15   13      0.35      0.00
    4   15   13      0.23      0.00
    3   15   13     -6.70      0.00
    2   15   13     -2.70      0.00
    1   15   13      7.25      0.00
   15   16   13     -5.36      0.00
   14   16   13      2.86      0.00
   13   16   13     -0.17      0.00
   12   16   13     -2.67      0.00
   11   16   13     -3.59      0.00
   10   16   13     -4.36      0.00
    9   16   13      0.78      0.00
    8   16   13      0.97      0.00
    7   16   13     -1.34      0.00
    6   16   13     -0.70      0.00
    5   16   13     -0.21      0.00
    4   16   13     -2.89      0.00
    3   16   13      2.01      0.00
    2   16   13     -2.51      0.00
    1   16   13     -5.79      0.00
    0   16   13     -5.26      0.00
   16   17   13     -1.89      0.00
   15   17   13     -2.15      0.00
   14   17   13     -0.34      0.00
   13   17   13     -4.20      0.00
   12   17   13     -0.75      0.00
   11   17   13    -14.76      0.00
   10   17   13      4.98      0.00
    9   17   13     -9.16      0.00
    8   17   13     -8.22      0.00
    7   17   13     -5.48      0.00
    6   17   13      2.13      0.00
    5   17   13     -1.15      0.00
    4   17   13     -0.17      0.00
    3   17   13      0.14      0.00
    2   17   13     -5.28      0.00
    1   17   13      6.58      0.00
   17   18   13      3.32      0.00
   16   18   13     -3.10      0.00
   15   18   13     -1.67      0.00
   14   18   13     -3.99      0.00
   13   18   13     -4.99      0.00
   12   18   13      8.69      0.00
   11   18   13     -8.75      0.00
   10   18   13      1.52      0.00
    9   18   13      8.78      0.00
    8   18   13     -9.37      0.00
    7   18   13     -7.98      0.00
    6   18   13      3.31      0.00
    5   18   13     -2.47      0.00
    4   18   13     -0.91      0.00
    3   18   13      8.88      0.00
    2   18   13      2.09      0.00
    1   18   13     -1.73      0.00
    0   18   13     -5.57      0.00
   18   19   13     -5.83      0.00
   17   19   13     -2.79      0.00
   16   19   13     -1.94      0.00
   15   19   13     -7.27      0.00
   14   19   13      0.62      0.00
   13   19   13      5.54      0.00
   12   19   13     -8.57      0.00
   11   19   13     -8.67      0.00
   10   19   13     -2.78      0.00
    9   19   13      7.59      0.00
    8   19   13      4.47      0.00
    7   19   13      2.92      0.00
    6   19   13     -0.71      0.00
    5   19   13     11.47      0.00
    4   19   13      2.69      0.00
    3   19   13     -5.79      0.00
    2   19   13     -2.79      0.00
    1   19   13      1.89      0.00
   19   20   13     -9.42      0.00
   18   20   13     -5.40      0.00
   17   20   13      2.56      0.00
   16   20   13      4.26      0.00
   15   20   13     -3.88      0.00
   14   20   13     -0.56      0.00
   13   20   13      4.87      0.00
   12   20   13     -7.87      0.00
   11   20   13    -12.81      0.00
   10   20   13     -0.21      0.00
    9   20   13    -15.60      0.00
    8   20   13      8.24      0.00
    7   20   13     -9.51      0.00
    6   20   13     -2.81      0.00
    5   20   13     -3.85      0.00
    4   20   13      7.10      0.00
    3   20   13      6.09      0.00
    2   20   13     -0.29      0.00
    1   20   13      0.18      0.00
    0   20   13     -4.56      0.00
   20   21   13     -5.41      0.00
   19   21   13      6.73      0.00
   18   21   13      1.03      0.00
   17   21   13      9.32      0.00
   16   21   13     -0.48      0.00
   15   21   13     -4.21      0.00
   14   21   13      3.58      0.00
   13   21   13     17.69      0.00
   12   21   13     -4.06      0.00
   11   21   13     -0.12      0.00
   10   21   13     -8.18      0.00
    9   21   13      1.87      0.00
    8   21   13     -4.66      0.00
    7   21   13      3.86      0.00
    6   21   13    -18.73      0.00
    5   21   13     15.06      0.00
    4   21   13      1.56      0.00
    3   21   13     -4.20      0.00
    2   21   13     -3.45      0.00
    1   21   13      4.29      0.00
   21   22   13      5.52      0.00
   20   22   13      4.75      0.00
   19   22   13      3.45      0.00
   18   22   13      9.78      0.00
   17   22   13     -3.52      0.00
   16   22   13      5.27      0.00
   15   22   13     -6.23      0.00
   14   22   13      6.92      0.00
   13   22   13    -13.84      0.00
   12   22   13      5.73      0.00
   11   22   13      1.03      0.00
   10   22   13     -5.55      0.00
    9   22   13     -9.00      0.00
    8   22   13     -1.86      0.00
    7   22   13      4.78      0.00
    6   22   13      3.79      0.00
    5   22   13     -4.05      0.00
    4   22   13    -11.58      0.00
    3   22   13      0.19      0.00
    2   22   13      2.69      0.00
    1   22   13     -0.61      0.00
    0   22   13      5.92      0.00
   22   23   13     -4.90      0.00
   21   23   13     -4.03      0.00
   20   23   13      0.77      0.00
   19   23   13     -1.97      0.00
   18   23   13      3.51      0.00
   17   23   13      0.92      0.00
   16   23   13    -11.49      0.00
   15   23   13     -1.45      0.00
   14   23   13    -10.22      0.00
   13   23   13     -0.23      0.00
   12   23   13      6.72      0.00
   11   23   13     11.75      0.00
   10   23   13     -8.74      0.00
    9   23   13     -6.56      0.00
    8   23   13     -9.04      0.00
    7   23   13     -5.08      0.00
    6   23   13      5.98      0.00
    5   23   13     -5.20      0.00
    4   23   13      2.56      0.00
    3   23   13      3.83      0.00
    2   23   13    -11.89      0.00
    1   23   13     -7.49      0.00
   23   24   13     -4.31      0.00
   22   24   13      2.40      0.00
   21   24   13     -1.70      0.00
   20   24   13     -2.24      0.00
   19   24   13     -9.50      0.00
   18   24   13      0.78      0.00
   17   24   13     -0.52      0.00
   16   24   13     -3.34      0.00
   15   24   13      5.57      0.00
   14   24   13     -5.26      0.00
   13   24   13     -4.46      0.00
   12   24   13      6.17      0.00
   11   24   13    -12.17      0.00
   10   24   13    -18.98      0.00
    9   24   13     12.87      0.00
    8   24   13     -1.54      0.00
    7   24   13     -2.64      0.00
    6   24   13     -9.60      0.00
    5   24   13     -3.94      0.00
    4   24   13     -7.63      0.00
    3   24   13     -8.39      0.00
    2   24   13      3.53      0.00
    1   24   13     -6.91      0.00
    0   24   13      4.54      0.00
   23   25   13     -0.89      0.00
   22   25   13     -1.58      0.00
   21   25   13      6.04      0.00
   20   25   13    -12.11      0.00
   19   25   13      6.11      0.00
   18   25   13      1.20      0.00
   17   25   13      3.00      0.00
   16   25   13     -0.14      0.00
   15   25   13      7.53      0.00
   14   25   13     -1.20      0.00
   13   25   13     -4.86      0.00
   12   25   13     -2.79      0.00
   11   25   13     -2.07      0.00
   10   25   13      6.06      0.00
    9   25   13     -4.86      0.00
    8   25   13      3.04      0.00
    7   25   13     -7.42      0.00
    6   25   13      4.06      0.00
    5   25   13      3.47      0.00
    4   25   13     -0.95      0.00
    3   25   13     -2.81      0.00
    2   25   13      2.40      0.00
    1   25   13      4.20      0.00
   22   26   13     -0.67      0.00
   21   26   13    -16.97      0.00
   20   26   13     -4.78      0.00
   19   26   13     -1.86      0.00
   18   26   13     -1.14      0.00
   17   26   13     -8.44      0.00
   16   26   13      3.93      0.00
   15   26   13     -3.15      0.00
   14   26   13      0.21      0.00
   13   26   13      5.23      0.00
   12   26   13      0.60      0.00
   11   26   13     -0.62      0.00
   10   26   13     -2.03      0.00
    9   26   13     -0.14      0.00
    8   26   13      1.25      0.00
    7   26   13     -9.77      0.00
    6   26   13     -3.85      0.00
    5   26   13      1.75      0.00
    4   26   13     -4.76      0.00
    3   26   13     -3.42      0.00
    2   26   13      7.50      0.00
    1   26   13    -13.19      0.00
    0   26   13      0.83      0.00
   21   27   13      5.52      0.00
   20   27   13     -0.55      0.00
   19   27   13      2.07      0.00
   18   27   13     -6.76      0.00
   17   27   13     -9.56      0.00
   16   27   13      3.07      0.00
   15   27   13     -0.07      0.00
   14   27   13      2.70      0.00
   13   27   13      5.87      0.00
   12   27   13     -0.76      0.00
   11   27   13      3.06      0.00
   10   27   13      4.18      0.00
    9   27   13     -3.40      0.00
    8   27   13      3.82      0.00
    7   27   13      3.22      0.00
    6   27   13     -0.25      0.00
    5   27   13      2.14      0.00
    4   27   13     -7.11      0.00
    3   27   13     -6.11      0.00
    2   27   13     -6.05      0.00
    1   27   13     -0.60      0.00
   20   28   13      1.90      0.00
   19   28   13      7.91      0.00
   18   28   13      1.07      0.00
   17   28   13      5.05      0.00
   16   28   13      1.40      0.00
   15   28   13      3.01      0.00
   14   28   13      0.67      0.00
   13   28   13     -0.74      0.00
   12   28   13      6.57      0.00
   11   28   13      5.26      0.00
   10   28   13     -2.25      0.00
    9   28   13     -4.12      0.00
    8   28   13     -5.44      0.00
    7   28   13     -1.49      0.00
    6   28   13     -0.01      0.00
    5   28   13     -5.80      0.00
    4   28   13      3.42      0.00
    3   28   13      0.15      0.00
    2   28   13      0.84      0.00
    1   28   13      7.25      0.00
    0   28   13      9.21      0.00
   18   29   13      3.18      0.00
   17   29   13     -2.30      0.00
   16   29   13     -2.59      0.00
   15   29   13     -4.84      0.00
   14   29   13      1.88      0.00
   13   29   13      9.72      0.00
   12   29   13      0.10      0.00
   11   29   13      6.95      0.00
   10   29   13      3.23      0.00
    9   29   13     -2.81      0.00
    8   29   13     -3.43      0.00
    7   29   13      0.17      0.00
    6   29   13      2.86      0.00
    5   29   13      5.36      0.00
    4   29   13     -5.66      0.00
    3   29   13     -4.84      0.00
    2   29   13      3.32      0.00
    1   29   13     -0.09      0.00
   17   30   13     19.35      0.00
   16   30   13      6.66      0.00
   15   30   13     -3.95      0.00
   14   30   13     -4.47      0.00
   13   30   13      9.95      0.00
   12   30   13      3.95      0.00
   11   30   13     -9.07      0.00
   10   30   13      0.21      0.00
    9   30   13     -2.66      0.00
    8   30   13      2.96      0.00
    7   30   13      5.31      0.00
    6   30   13     -4.21      0.00
    5   30   13      6.98      0.00
    4   30   13     10.71      0.00
    3   30   13      0.74      0.00
    2   30   13     -7.78      0.00
    1   30   13    -11.46      0.00
    0   30   13     -9.66      0.00
   14   31   13     -2.57      0.00
   13   31   13    -13.36      0.00
   12   31   13     -5.75      0.00
   11   31   13     -7.57      0.00
   10   31   13     -3.39      0.00
    9   31   13      4.78      0.00
    8   31   13     -5.45      0.00
    7   31   13     -3.24      0.00
    6   31   13     -7.15      0.00
    5   31   13      9.72      0.00
    4   31   13      6.00      0.00
    3   31   13     -2.09      0.00
    2   31   13     -6.99      0.00
    1   31   13     -9.10      0.00
   12   32   13      9.99      0.00
   11   32   13     -3.99      0.00
   10   32   13     -0.62      0.00
    9   32   13      2.96      0.00
    8   32   13      3.14      0.00
    7   32   13     -4.26      0.00
    6   32   13      4.06      0.00
    5   32   13     -6.87      0.00
    4   32   13     -0.70      0.00
    3   32   13     -1.26      0.00
    2   32   13     -1.73      0.00
    1   32   13     -6.70      0.00
    0   32   13      1.32      0.00
    9   33   13     -2.55      0.00
    8   33   13     -5.50      0.00
    7   33   13      1.18      0.00
    6   33   13     13.52      0.00
    5   33   13    -10.07      0.00
    4   33   13     -2.63      0.00
    3   33   13      7.54      0.00
    2   33   13     16.14      0.00
    1   33   13      7.14      0.00
    5   34   13      0.69      0.00
    4   34   13      1.32      0.00
    3   34   13     -9.21      0.00
    2   34   13     -0.30      0.00
    1   34   13      1.98      0.00
    0   34   13     -1.80      0.00
    0    0   14     -0.16      0.00
    1    1   14      5.86      0.00
    1    2   14     -0.70      0.00
    0    2   14    -22.93      0.00
    2    2   14    -15.88      0.00
    2    3   14    -18.71      0.00
    1    3   14     15.79      0.00
    3    3   14     -7.66      0.00
    3    4   14     29.77      0.00
    2    4   14     -4.62      0.00
    1    4   14     13.64      0.00
    0    4   14      1.80      0.00
    4    4   14     18.54      0.00
    4    5   14    -15.80      0.00
    3    5   14     -6.30      0.00
    2    5   14    -32.95      0.00
    1    5   14     -0.80      0.00
    5    5   14     -8.10      0.00
    5    6   14     -8.85      0.00
    4    6   14      4.26      0.00
    3    6   14     19.74      0.00
    2    6   14      7.19      0.00
    1    6   14     10.73      0.00
    0    6   14      7.46      0.00
    6    6   14     -8.16      0.00
    6    7   14      8.62      0.00
    5    7   14     15.17      0.00
    4    7   14     -6.66      0.00
    3    7   14      0.30      0.00
    2    7   14     -3.75      0.00
    1    7   14    -11.96      0.00
    7    7   14      8.09      0.00
    7    8   14      3.29      0.00
    6    8   14     -4.74      0.00
    5    8   14      2.20      0.00
    4    8   14     -4.51      0.00
    3    8   14     -7.37      0.00
    2    8   14      3.30      0.00
    1    8   14      1.40      0.00
    0    8   14      5.17      0.00
    8    8   14      1.07      0.00
    8    9   14      1.40      0.00
    7    9   14      7.67      0.00
    6    9   14      2.80      0.00
    5    9   14     13.68      0.00
    4    9   14     -6.12      0.00
    3    9   14      6.79      0.00
    2    9   14      1.32      0.00
    1    9   14    -12.43      0.00
    9    9   14     -4.58      0.00
    9   10   14      3.16      0.00
    8   10   14      0.48      0.00
    7   10   14     -1.73      0.00
    6   10   14     -1.63      0.00
    5   10   14      4.37      0.00
    4   10   14      2.63      0.00
    3   10   14      1.57      0.00
    2   10   14      2.06      0.00
    1   10   14     -6.28      0.00
    0   10   14     -2.87      0.00
   10   10   14     10.81      0.00
   10   11   14     -7.63      0.00
    9   11   14     -7.04      0.00
    8   11   14     -6.54      0.00
    7   11   14      0.32      0.00
    6   11   14      3.31      0.00
    5   11   14      8.86      0.00
    4   11   14     -6.90      0.00
    3   11   14     -2.05      0.00
    2   11   14     -6.83      0.00
    1   11   14     -1.44      0.00
   11   11   14      0.02      0.00
   11   12   14      4.96      0.00
   10   12   14      3.48      0.00
    9   12   14      3.81      0.00
    8   12   14     -5.26      0.00
    7   12   14      9.09      0.00
    6   12   14     -3.29      0.00
    5   12   14      1.79      0.00
    4   12   14     -2.80      0.00
    3   12   14     -4.40      0.00
    2   12   14     -0.28      0.00
    1   12   14      0.26      0.00
    0   12   14      6.29      0.00
   12   12   14     -3.63      0.00
   12   13   14     -5.24      0.00
   11   13   14     -4.63      0.00
   10   13   14     -7.49      0.00
    9   13   14     -2.02      0.00
    8   13   14    -13.77      0.00
    7   13   14      2.28      0.00
    6   13   14     -9.17      0.00
    5   13   14     -0.93      0.00
    4   13   14      3.47      0.00
    3   13   14     -2.72      0.00
    2   13   14     -0.99      0.00
    1   13   14    -10.43      0.00
   13   13   14      6.22      0.00
   13   14   14      0.22      0.00
   12   14   14      3.50      0.00
   11   14   14      0.10      0.00
   10   14   14      9.63      0.00
    9   14   14     -0.76      0.00
    8   14   14      3.90      0.00
    7   14   14     13.30      0.00
    6   14   14      5.88      0.00
    5   14   14     -6.53      0.00
    4   14   14     -3.96      0.00
    3   14   14     -4.29      0.00
    2   14   14      5.17      0.00
    1   14   14     -1.31      0.00
    0   14   14      2.28      0.00
   14   14   14     -1.42      0.00
   14   15   14      5.06      0.00
   13   15   14      5.54      0.00
   12   15   14      6.40      0.00
   11   15   14      3.84      0.00
   10   15   14     -7.25      0.00
    9   15   14     -1.64      0.00
    8   15   14     -0.04      0.00
    7   15   14     -2.51      0.00
    6   15   14     -1.53      0.00
    5   15   14      3.30      0.00
    4   15   14      3.31      0.00
    3   15   14     -3.02      0.00
    2   15   14      4.50      0.00
    1   15   14     -0.03      0.00
   15   15   14     -0.56      0.00
   15   16   14      1.52      0.00
   14   16   14     -0.02      0.00
   13   16   14     -2.08      0.00
   12   16   14      2.52      0.00
   11   16   14      7.88      0.00
   10   16   14      3.75      0.00
    9   16   14    -10.02      0.00
    8   16   14      8.93      0.00
    7   16   14     -3.09      0.00
    6   16   14     -0.52      0.00
    5   16   14      3.14      0.00
    4   16   14      4.22      0.00
    3   16   14    -10.30      0.00
    2   16   14     -3.14      0.00
    1   16   14     -3.13      0.00
    0   16   14      2.51      0.00
   16   16   14      7.73      0.00
   16   17   14      1.26      0.00
   15   17   14      0.19      0.00
   14   17   14     -7.05      0.00
   13   17   14     -3.04      0.00
   12   17   14      2.71      0.00
   11   17   14     -1.37      0.00
   10   17   14     -4.79      0.00
    9   17   14    -13.42      0.00
    8   17   14      3.31      0.00
    7   17   14      1.94      0.00
    6   17   14     -4.87      0.00
    5   17   14     -7.67      0.00
    4   17   14      6.58      0.00
    3   17   14     -2.38      0.00
    2   17   14      0.80      0.00
    1   17   14     11.73      0.00
   17   17   14     -1.06      0.00
   17   18   14      1.64      0.00
   16   18   14      7.42      0.00
   15   18   14     -1.40      0.00
   14   18   14     -0.24      0.00
   13   18   14    -17.26      0.00
   12   18   14      7.46      0.00
   11   18   14    -12.27      0.00
   10   18   14      2.95      0.00
    9   18   14      3.23      0.00
    8   18   14     -6.38      0.00
    7   18   14     10.26      0.00
    6   18   14      1.50      0.00
    5   18   14     -2.63      0.00
    4   18   14      3.02      0.00
    3   18   14      0.51      0.00
    2   18   14     -4.16      0.00
    1   18   14      4.70      0.00
    0   18   14     -2.30      0.00
   18   18   14      5.50      0.00
   18   19   14      6.15      0.00
   17   19   14      8.56      0.00
   16   19   14      6.99      0.00
   15   19   14     -3.03      0.00
   14   19   14     -0.85      0.00
   13   19   14     -5.75      0.00
   12   19   14     -2.97      0.00
   11   19   14      6.14      0.00
   10   19   14     -9.73      0.00
    9   19   14     -6.36      0.00
    8   19   14     -0.67      0.00
    7   19   14     -3.07      0.00
    6   19   14     -3.99      0.00
    5   19   14      0.61      0.00
    4   19   14     -2.20      0.00
    3   19   14     -6.12      0.00
    2   19   14     -2.21      0.00
    1   19   14      5.27      0.00
   19   19   14      3.91      0.00
   19   20   14     -5.40      0.00
   18   20   14      3.52      0.00
   17   20   14      6.29      0.00
   16   20   14     -1.46      0.00
   15   20   14     -3.02      0.00
   14   20   14      2.64      0.00
   13   20   14     -1.93      0.00
   12   20   14     -5.56      0.00
   11   20   14     14.03      0.00
   10   20   14      8.96      0.00
    9   20   14     -4.22      0.00
    8   20   14     -1.95      0.00
    7   20   14     -0.48      0.00
    6   20   14      2.47      0.00
    5   20   14      0.57      0.00
    4   20   14     -7.68      0.00
    3   20   14      4.21      0.00
    2   20   14     -3.05      0.00
    1   20   14      7.32      0.00
    0   20   14     14.81      0.00
   20   20   14      9.75      0.00
   20   21   14      5.14      0.00
   19   21   14     -1.74      0.00
   18   21   14      4.53      0.00
   17   21   14      9.16      0.00
   16   21   14    -10.83      0.00
   15   21   14     -3.16      0.00
   14   21   14     -9.92      0.00
   13   21   14    -18.14      0.00
   12   21   14     -7.18      0.00
   11   21   14      4.01      0.00
   10   21   14      3.62      0.00
    9   21   14      1.67      0.00
    8   21   14     -2.55      0.00
    7   21   14     -0.29      0.00
    6   21   14      9.04      0.00
    5   21   14      1.86      0.00
    4   21   14     -8.92      0.00
    3   21   14      1.79      0.00
    2   21   14     -1.91      0.00
    1   21   14      6.42      0.00
   21   21   14      3.43      0.00
   21   22   14     -3.04      0.00
   20   22   14      2.12      0.00
   19   22   14    -10.50      0.00
   18   22   14      4.21      0.00
   17   22   14    -13.26      0.00
   16   22   14     -4.43      0.00
   15   22   14    -10.07      0.00
   14   22   14     -9.30      0.00
   13   22   14    -25.76      0.00
   12   22   14     -3.59      0.00
   11   22   14      2.89      0.00
   10   22   14     -1.44      0.00
    9   22   14     -3.22      0.00
    8   22   14     -2.65      0.00
    7   22   14     -2.61      0.00
    6   22   14      3.97      0.00
    5   22   14     -3.76      0.00
    4   22   14      3.35      0.00
    3   22   14      9.12      0.00
    2   22   14     -0.25      0.00
    1   22   14     -7.95      0.00
    0   22   14     -0.36      0.00
   22   22   14      7.33      0.00
   22   23   14     -6.05      0.00
   21   23   14      6.17      0.00
   20   23   14      1.57      0.00
   19   23   14      7.55      0.00
   18   23   14     -3.15      0.00
   17   23   14    -31.54      0.00
   16   23   14      2.38      0.00
   15   23   14     15.70      0.00
   14   23   14     10.21      0.00
   13   23   14      3.54      0.00
   12   23   14     -3.62      0.00
   11   23   14     -1.47      0.00
   10   23   14      7.21      0.00
    9   23   14     -1.74      0.00
    8   23   14      1.01      0.00
    7   23   14     -0.59      0.00
    6   23   14     -4.41      0.00
    5   23   14     -4.58      0.00
    4   23   14      6.41      0.00
    3   23   14      0.58      0.00
    2   23   14      7.82      0.00
    1   23   14      3.20      0.00
   23   23   14      2.07      0.00
   23   24   14      8.25      0.00
   22   24   14     -6.87      0.00
   21   24   14     -1.37      0.00
   20   24   14     -4.68      0.00
   19   24   14      0.63      0.00
   18   24   14     -3.18      0.00
   17   24   14    -12.08      0.00
   16   24   14    -15.40      0.00
   15   24   14      3.55      0.00
   14   24   14     -7.73      0.00
   13   24   14     -1.87      0.00
   12   24   14     -9.02      0.00
   11   24   14     -0.88      0.00
   10   24   14     -5.31      0.00
    9   24   14      0.14      0.00
    8   24   14      9.43      0.00
    7   24   14      2.34      0.00
    6   24   14      1.20      0.00
    5   24   14     -3.88      0.00
    4   24   14     -4.01      0.00
    3   24   14      2.93      0.00
    2   24   14     -4.07      0.00
    1   24   14     -3.12      0.00
    0   24   14      1.19      0.00
   24   24   14     15.66      0.00
   23   25   14      5.42      0.00
   22   25   14      0.76      0.00
   21   25   14      0.11      0.00
   20   25   14     -5.58      0.00
   19   25   14     -4.43      0.00
   18   25   14      4.38      0.00
   17   25   14     -0.92      0.00
   16   25   14      4.46      0.00
   15   25   14     -6.76      0.00
   14   25   14     -0.78      0.00
   13   25   14     -2.06      0.00
   12   25   14     -0.11      0.00
   11   25   14      0.32      0.00
   10   25   14      0.91      0.00
    9   25   14      7.18      0.00
    8   25   14      0.36      0.00
    7   25   14     -1.34      0.00
    6   25   14     -1.06      0.00
    5   25   14      0.15      0.00
    4   25   14     -0.76      0.00
    3   25   14     10.00      0.00
    2   25   14     -0.93      0.00
    1   25   14     -9.60      0.00
   21   26   14     -1.54      0.00
   20   26   14      1.42      0.00
   19   26   14     -4.30      0.00
   18   26   14     -4.44      0.00
   17   26   14      3.23      0.00
   16   26   14      4.08      0.00
   15   26   14      6.61      0.00
   14   26   14     -0.38      0.00
   13   26   14     -6.73      0.00
   12   26   14     -0.62      0.00
   11   26   14      1.34      0.00
   10   26   14     13.80      0.00
    9   26   14      0.85      0.00
    8   26   14      0.04      0.00
    7   26   14      3.38      0.00
    6   26   14     14.32      0.00
    5   26   14     -3.55      0.00
    4   26   14      6.47      0.00
    3   26   14     -0.68      0.00
    2   26   14     -4.35      0.00
    1   26   14      2.87      0.00
    0   26   14      0.96      0.00
   20   27   14     -8.91      0.00
   19   27   14      8.33      0.00
   18   27   14     -8.35      0.00
   17   27   14     -1.94      0.00
   16   27   14     -0.12      0.00
   15   27   14      4.69      0.00
   14   27   14     -1.80      0.00
   13   27   14     -3.32      0.00
   12   27   14     -1.22      0.00
   11   27   14     -0.76      0.00
   10   27   14      1.72      0.00
    9   27   14      4.28      0.00
    8   27   14      2.68      0.00
    7   27   14      7.61      0.00
    6   27   14     -1.56      0.00
    5   27   14     -2.95      0.00
    4   27   14     -4.05      0.00
    3   27   14     -2.74      0.00
    2   27   14     -4.68      0.00
    1   27   14      6.82      0.00
   19   28   14      1.86      0.00
   18   28   14      2.00      0.00
   17   28   14     -2.98      0.00
   16   28   14      0.06      0.00
   15   28   14     -5.44      0.00
   14   28   14     -1.11      0.00
   13   28   14     -3.80      0.00
   12   28   14     -8.20      0.00
   11   28   14     -9.40      0.00
   10   28   14      2.15      0.00
    9   28   14     -1.06      0.00
    8   28   14     -6.07      0.00
    7   28   14    -11.48      0.00
    6   28   14      0.61      0.00
    5   28   14     -9.41      0.00
    4   28   14     -3.72      0.00
    3   28   14     -6.44      0.00
    2   28   14      1.10      0.00
    1   28   14      6.15      0.00
    0   28   14      3.31      0.00
   17   29   14      3.49      0.00
   16   29   14     -4.01      0.00
   15   29   14     -3.71      0.00
   14   29   14      0.80      0.00
   13   29   14     -5.67      0.00
   12   29   14     -4.06      0.00
   11   29   14     -4.81      0.00
   10   29   14     -7.19      0.00
    9   29   14      9.08      0.00
    8   29   14     -0.07      0.00
    7   29   14     -0.98      0.00
    6   29   14     -9.14      0.00
    5   29   14     -2.50      0.00
    4   29   14      0.98      0.00
    3   29   14     -2.85      0.00
    2   29   14      8.17      0.00
    1   29   14     -3.77      0.00
   15   30   14     -1.14      0.00
   14   30   14     -7.33      0.00
   13   30   14     -1.21      0.00
   12   30   14     -2.60      0.00
   11   30   14     -7.76      0.00
   10   30   14      0.20      0.00
    9   30   14    -11.73      0.00
    8   30   14      2.39      0.00
    7   30   14      2.02      0.00
    6   30   14     -1.90      0.00
    5   30   14     -7.79      0.00
    4   30   14     -4.30      0.00
    3   30   14      5.26      0.00
    2   30   14      9.01      0.00
    1   30   14     -6.04      0.00
    0   30   14     -8.24      0.00
   13   31   14     -6.15      0.00
   12   31   14     -0.32      0.00
   11   31   14      3.23      0.00
   10   31   14     -4.76      0.00
    9   31   14     -5.00      0.00
    8   31   14      3.06      0.00
    7   31   14     -3.21      0.00
    6   31   14     -0.11      0.00
    5   31   14      0.55      0.00
    4   31   14    -11.41      0.00
    3   31   14     -4.38      0.00
    2   31   14     -0.95      0.00
    1   31   14     -0.32      0.00
   11   32   14      6.97      0.00
   10   32   14     11.30      0.00
    9   32   14      2.95      0.00
    8   32   14      5.78      0.00
    7   32   14     -5.40      0.00
    6   32   14      1.54      0.00
    5   32   14     -3.06      0.00
    4   32   14      4.42      0.00
    3   32   14     -0.54      0.00
    2   32   14     -5.00      0.00
    1   32   14      5.94      0.00
    0   32   14     -8.28      0.00
    7   33   14      2.89      0.00
    6   33   14     -6.10      0.00
    5   33   14      0.10      0.00
    4   33   14    -11.40      0.00
    3   33   14      0.54      0.00
    2   33   14      1.56      0.00
    1   33   14     11.68      0.00
    1    2   15     -2.10      0.00
    0    2   15     -1.16      0.00
    2    3   15      0.12      0.00
    1    3   15     -6.92      0.00
    3    4   15      0.54      0.00
    2    4   15      0.51      0.00
    1    4   15     -4.05      0.00
    0    4   15     -5.54      0.00
    4    5   15     -3.94      0.00
    3    5   15     -0.38      0.00
    2    5   15     -3.26      0.00
    1    5   15     -0.47      0.00
    5    6   15      6.69      0.00
    4    6   15     -2.46      0.00
    3    6   15      1.18      0.00
    2    6   15      2.12      0.00
    1    6   15     -1.95      0.00
    0    6   15      0.50      0.00
    6    7   15      1.53      0.00
    5    7   15      5.91      0.00
    4    7   15     -3.32      0.00
    3    7   15      1.80      0.00
    2    7   15     -3.67      0.00
    1    7   15     -0.61      0.00
    7    8   15     -0.91      0.00
    6    8   15     -3.40      0.00
    5    8   15      2.28      0.00
    4    8   15     -3.77      0.00
    3    8   15     -2.82      0.00
    2    8   15      0.13      0.00
    1    8   15     -3.36      0.00
    0    8   15     12.75      0.00
    8    9   15     -6.39      0.00
    7    9   15      5.11      0.00
    6    9   15      0.71      0.00
    5    9   15      4.52      0.00
    4    9   15      5.15      0.00
    3    9   15      2.51      0.00
    2    9   15     -3.59      0.00
    1    9   15     -6.11      0.00
    9   10   15     -1.76      0.00
    8   10   15     -2.40      0.00
    7   10   15      5.12      0.00
    6   10   15      3.55      0.00
    5   10   15      5.34      0.00
    4   10   15      1.25      0.00
    3   10   15     -6.87      0.00
    2   10   15      5.66      0.00
    1   10   15     -5.23      0.00
    0   10   15     17.14      0.00
   10   11   15     -7.23      0.00
    9   11   15      3.59      0.00
    8   11   15     -1.05      0.00
    7   11   15     -0.91      0.00
    6   11   15      3.82      0.00
    5   11   15      6.47      0.00
    4   11   15      0.19      0.00
    3   11   15      2.14      0.00
    2   11   15      1.89      0.00
    1   11   15     -2.01      0.00
   11   12   15     -6.47      0.00
   10   12   15     -5.37      0.00
    9   12   15      4.55      0.00
    8   12   15     -1.31      0.00
    7   12   15      3.71      0.00
    6   12   15      1.60      0.00
    5   12   15      0.75      0.00
    4   12   15      0.48      0.00
    3   12   15      0.92      0.00
    2   12   15      3.62      0.00
    1   12   15     -6.76      0.00
    0   12   15      4.87      0.00
   12   13   15      1.71      0.00
   11   13   15     -6.22      0.00
   10   13   15     -0.43      0.00
    9   13   15     -6.39      0.00
    8   13   15     -2.94      0.00
    7   13   15      1.62      0.00
    6   13   15      4.13      0.00
    5   13   15      4.68      0.00
    4   13   15      4.40      0.00
    3   13   15     -3.06      0.00
    2   13   15      1.52      0.00
    1   13   15     -1.10      0.00
   13   14   15      1.05      0.00
   12   14   15     -6.77      0.00
   11   14   15     -0.42      0.00
   10   14   15     -1.86      0.00
    9   14   15     -1.18      0.00
    8   14   15      3.14      0.00
    7   14   15      4.20      0.00
    6   14   15     16.27      0.00
    5   14   15      1.10      0.00
    4   14   15      2.03      0.00
    3   14   15     -6.57      0.00
    2   14   15      1.56      0.00
    1   14   15     -3.05      0.00
    0   14   15     -0.35      0.00
   14   15   15     -9.53      0.00
   13   15   15      4.87      0.00
   12   15   15     -5.86      0.00
   11   15   15      1.40      0.00
   10   15   15      2.84      0.00
    9   15   15      7.44      0.00
    8   15   15     -5.81      0.00
    7   15   15     -2.90      0.00
    6   15   15      2.04      0.00
    5   15   15     -3.12      0.00
    4   15   15      1.42      0.00
    3   15   15     -6.29      0.00
    2   15   15     -3.46      0.00
    1   15   15      3.46      0.00
   15   16   15      7.63      0.00
   14   16   15      1.38      0.00
   13   16   15      0.19      0.00
   12   16   15      0.25      0.00
   11   16   15      5.83      0.00
   10   16   15      2.33      0.00
    9   16   15      3.01      0.00
    8   16   15     -0.71      0.00
    7   16   15      7.50      0.00
    6   16   15      7.09      0.00
    5   16   15     -7.52      0.00
    4   16   15      0.26      0.00
    3   16   15      4.74      0.00
    2   16   15     -3.30      0.00
    1   16   15     -6.39      0.00
    0   16   15      1.68      0.00
   16   17   15     -0.55      0.00
   15   17   15     -6.79      0.00
   14   17   15      1.52      0.00
   13   17   15      4.62      0.00
   12   17   15     -5.20      0.00
   11   17   15      0.36      0.00
   10   17   15      9.25      0.00
    9   17   15     -6.37      0.00
    8   17   15     -4.15      0.00
    7   17   15      0.42      0.00
    6   17   15      4.99      0.00
    5   17   15     -5.75      0.00
    4   17   15      1.61      0.00
    3   17   15      2.83      0.00
    2   17   15      3.95      0.00
    1   17   15      6.50      0.00
   17   18   15      8.56      0.00
   16   18   15      6.30      0.00
   15   18   15      3.58      0.00
   14   18   15      5.40      0.00
   13   18   15      1.69      0.00
   12   18   15      3.34      0.00
   11   18   15    -10.74      0.00
   10   18   15      9.60      0.00
    9   18   15     -3.34      0.00
    8   18   15     -1.36      0.00
    7   18   15      1.20      0.00
    6   18   15     -3.63      0.00
    5   18   15     -0.43      0.00
    4   18   15     -3.06      0.00
    3   18   15     -4.63      0.00
    2   18   15     -3.93      0.00
    1   18   15      7.97      0.00
    0   18   15      4.14      0.00
   18   19   15    -11.63      0.00
   17   19   15     11.41      0.00
   16   19   15     -2.72      0.00
   15   19   15      1.17      0.00
   14   19   15     12.37      0.00
   13   19   15     -1.83      0.00
   12   19   15     -1.82      0.00
   11   19   15      2.75      0.00
   10   19   15     -5.59      0.00
    9   19   15      7.62      0.00
    8   19   15     10.18      0.00
    7   19   15    -14.09      0.00
    6   19   15     -2.90      0.00
    5   19   15     -9.34      0.00
    4   19   15     -6.46      0.00
    3   19   15      3.77      0.00
    2   19   15     -2.05      0.00
    1   19   15      1.63      0.00
   19   20   15      0.57      0.00
   18   20   15     10.38      0.00
   17   20   15     17.44      0.00
   16   20   15      2.54      0.00
   15   20   15      6.97      0.00
   14   20   15    -17.72      0.00
   13   20   15     -3.14      0.00
   12   20   15      2.79      0.00
   11   20   15    -13.21      0.00
   10   20   15     11.25      0.00
    9   20   15     -0.31      0.00
    8   20   15     -8.91      0.00
    7   20   15     -7.74      0.00
    6   20   15    -10.44      0.00
    5   20   15     -2.75      0.00
    4   20   15    -11.30      0.00
    3   20   15     -3.33      0.00
    2   20   15      4.15      0.00
    1   20   15      1.96      0.00
    0   20   15     -7.22      0.00
   20   21   15      0.65      0.00
   19   21   15      1.42      0.00
   18   21   15     11.64      0.00
   17   21   15      2.11      0.00
   16   21   15     -1.84      0.00
   15   21   15     17.17      0.00
   14   21   15     -1.27      0.00
   13   21   15     15.73      0.00
   12   21   15      7.52      0.00
   11   21   15    -13.36      0.00
   10   21   15     13.33      0.00
    9   21   15      7.67      0.00
    8   21   15     -7.77      0.00
    7   21   15     -0.69      0.00
    6   21   15      7.71      0.00
    5   21   15     -7.31      0.00
    4   21   15     -8.61      0.00
    3   21   15     -4.35      0.00
    2   21   15     -3.52      0.00
    1   21   15      4.13      0.00
   21   22   15     -0.48      0.00
   20   22   15      5.11      0.00
   19   22   15      3.52      0.00
   18   22   15     11.80      0.00
   17   22   15     13.15      0.00
   16   22   15     -9.47      0.00
   15   22   15     -3.16      0.00
   14   22   15      9.65      0.00
   13   22   15     10.64      0.00
   12   22   15      7.79      0.00
   11   22   15      8.96      0.00
   10   22   15    -12.71      0.00
    9   22   15      5.19      0.00
    8   22   15      0.12      0.00
    7   22   15      3.38      0.00
    6   22   15     -4.97      0.00
    5   22   15     -6.87      0.00
    4   22   15     -8.54      0.00
    3   22   15      9.72      0.00
    2   22   15      0.91      0.00
    1   22   15     -5.11      0.00
    0   22   15     -8.54      0.00
   22   23   15     -8.91      0.00
   21   23   15      2.43      0.00
   20   23   15     -6.95      0.00
   19   23   15      6.45      0.00
   18   23   15      5.89      0.00
   17   23   15     -0.87      0.00
   16   23   15      3.78      0.00
   15   23   15     -6.78      0.00
   14   23   15     -1.99      0.00
   13   23   15      5.53      0.00
   12   23   15     11.78      0.00
   11   23   15     -1.96      0.00
   10   23   15     -3.59      0.00
    9   23   15      3.03      0.00
    8   23   15      6.21      0.00
    7   23   15     -1.73      0.00
    6   23   15      4.98      0.00
    5   23   15      4.10      0.00
    4   23   15      4.04      0.00
    3   23   15     -4.96      0.00
    2   23   15      8.13      0.00
    1   23   15      4.53      0.00
   23   24   15     -3.22      0.00
   22   24   15      1.68      0.00
   21   24   15      9.71      0.00
   20   24   15     -9.83      0.00
   19   24   15     -2.39      0.00
   18   24   15    -20.07      0.00
   17   24   15    -11.04      0.00
   16   24   15     18.65      0.00
   15   24   15     -2.01      0.00
   14   24   15      1.15      0.00
   13   24   15      1.68      0.00
   12   24   15     -0.67      0.00
   11   24   15     -5.94      0.00
   10   24   15     -9.68      0.00
    9   24   15     10.50      0.00
    8   24   15      4.43      0.00
    7   24   15      3.06      0.00
    6   24   15      0.69      0.00
    5   24   15      3.14      0.00
    4   24   15      0.25      0.00
    3   24   15      4.54      0.00
    2   24   15      5.19      0.00
    1   24   15      0.13      0.00
    0   24   15      6.05      0.00
   22   25   15      8.25      0.00
   21   25   15     -8.05      0.00
   20   25   15      1.53      0.00
   19   25   15      1.09      0.00
   18   25   15     -8.36      0.00
   17   25   15      6.40      0.00
   16   25   15      0.22      0.00
   15   25   15     -7.68      0.00
   14   25   15      4.68      0.00
   13   25   15     -7.96      0.00
   12   25   15     -4.05      0.00
   11   25   15      2.67      0.00
   10   25   15      2.90      0.00
    9   25   15      4.59      0.00
    8   25   15      3.73      0.00
    7   25   15      0.67      0.00
    6   25   15      0.62      0.00
    5   25   15     14.31      0.00
    4   25   15      0.01      0.00
    3   25   15      7.50      0.00
    2   25   15     -0.16      0.00
    1   25   15     -0.04      0.00
   20   26   15     -1.45      0.00
   19   26   15      4.25      0.00
   18   26   15     -1.32      0.00
   17   26   15     -4.51      0.00
   16   26   15     -6.38      0.00
   15   26   15     -5.30      0.00
   14   26   15     -1.73      0.00
   13   26   15     -2.72      0.00
   12   26   15      8.91      0.00
   11   26   15      0.79      0.00
   10   26   15      2.01      0.00
    9   26   15     -5.96      0.00
    8   26   15      8.48      0.00
    7   26   15     -6.09      0.00
    6   26   15     -1.90      0.00
    5   26   15      3.63      0.00
    4   26   15     13.36      0.00
    3   26   15      0.15      0.00
    2   26   15      0.00      0.00
    1   26   15     -3.74      0.00
    0   26   15     -5.50      0.00
   19   27   15      2.45      0.00
   18   27   15     -1.54      0.00
   17   27   15      2.81      0.00
   16   27   15     -6.05      0.00
   15   27   15      1.15      0.00
   14   27   15      6.59      0.00
   13   27   15     -2.86      0.00
   12   27   15     -3.55      0.00
   11   27   15     -3.08      0.00
   10   27   15     -1.99      0.00
    9   27   15     -2.85      0.00
    8   27   15     -0.29      0.00
    7   27   15      4.49      0.00
    6   27   15      2.78      0.00
    5   27   15      2.23      0.00
    4   27   15      6.45      0.00
    3   27   15     -8.94      0.00
    2   27   15     -2.64      0.00
    1   27   15      3.60      0.00
   18   28   15     -0.69      0.00
   17   28   15      1.77      0.00
   16   28   15     11.22      0.00
   15   28   15      2.77      0.00
   14   28   15    -11.99      0.00
   13   28   15      3.89      0.00
   12   28   15     -6.49      0.00
   11   28   15     -1.98      0.00
   10   28   15     -3.14      0.00
    9   28   15      0.18      0.00
    8   28   15     -6.06      0.00
    7   28   15      7.43      0.00
    6   28   15     -6.12      0.00
    5   28   15     -1.64      0.00
    4   28   15      1.13      0.00
    3   28   15     10.52      0.00
    2   28   15      7.08      0.00
    1   28   15      1.12      0.00
    0   28   15      5.71      0.00
   16   29   15      0.57      0.00
   15   29   15      0.44      0.00
   14   29   15     -7.77      0.00
   13   29   15      5.88      0.00
   12   29   15      4.86      0.00
   11   29   15     -7.28      0.00
   10   29   15      1.84      0.00
    9   29   15     -4.33      0.00
    8   29   15      1.89      0.00
    7   29   15    -13.40      0.00
    6   29   15     -2.85      0.00
    5   29   15      5.59      0.00
    4   29   15      1.84      0.00
    3   29   15     -0.87      0.00
    2   29   15      0.82      0.00
    1   29   15     -0.17      0.00
   14   30   15      5.73      0.00
   13   30   15      2.83      0.00
   12   30   15     -1.14      0.00
   11   30   15     -4.22      0.00
   10   30   15      0.06      0.00
    9   30   15      1.51      0.00
    8   30   15     -0.99      0.00
    7   30   15     -4.70      0.00
    6   30   15      3.21      0.00
    5   30   15      2.40      0.00
    4   30   15     -4.64      0.00
    3   30   15      7.03      0.00
    2   30   15      2.61      0.00
    1   30   15      0.53      0.00
    0   30   15      1.75      0.00
   12   31   15     -6.21      0.00
   11   31   15     -3.62      0.00
   10   31   15     -1.84      0.00
    9   31   15      0.66      0.00
    8   31   15     -9.76      0.00
    7   31   15     -5.56      0.00
    6   31   15     -2.56      0.00
    5   31   15      7.46      0.00
    4   31   15    -12.69      0.00
    3   31   15     -2.60      0.00
    2   31   15      1.85      0.00
    1   31   15     -1.06      0.00
    9   32   15     -4.14      0.00
    8   32   15     -6.55      0.00
    7   32   15     10.70      0.00
    6   32   15      2.29      0.00
    5   32   15      5.64      0.00
    4   32   15      0.93      0.00
    3   32   15    -12.82      0.00
    2   32   15     -6.33      0.00
    1   32   15    -17.33      0.00
    0   32   15     -1.15      0.00
    5   33   15     -6.45      0.00
    4   33   15      6.84      0.00
    3   33   15     -3.13      0.00
    2   33   15    -10.53      0.00
    1   33   15      3.66      0.00
    0    0   16     59.01      0.00
    1    1   16    -14.25      0.00
    1    2   16     -4.12      0.00
    0    2   16     10.38      0.00
    2    2   16     -1.92      0.00
    2    3   16      6.20      0.00
    1    3   16     10.49      0.00
    3    3   16     -2.09      0.00
    3    4   16     -1.81      0.00
    2    4   16     -4.46      0.00
    1    4   16      2.98      0.00
    0    4   16    -17.67      0.00
    4    4   16     16.39      0.00
    4    5   16      0.43      0.00
    3    5   16     -5.79      0.00
    2    5   16     -0.70      0.00
    1    5   16     12.77      0.00
    5    5   16     -2.51      0.00
    5    6   16     -5.65      0.00
    4    6   16      6.23      0.00
    3    6   16      0.81      0.00
    2    6   16     -4.86      0.00
    1    6   16      5.17      0.00
    0    6   16     -7.96      0.00
    6    6   16     10.53      0.00
    6    7   16      1.31      0.00
    5    7   16     -5.56      0.00
    4    7   16      1.52      0.00
    3    7   16     -4.03      0.00
    2    7   16     -0.06      0.00
    1    7   16     10.37      0.00
    7    7   16     -4.35      0.00
    7    8   16     -0.35      0.00
    6    8   16      7.55      0.00
    5    8   16      3.35      0.00
    4    8   16    -12.06      0.00
    3    8   16     13.48      0.00
    2    8   16     -5.44      0.00
    1    8   16      0.65      0.00
    0    8   16    -13.23      0.00
    8    8   16      4.14      0.00
    8    9   16      3.50      0.00
    7    9   16     -0.92      0.00
    6    9   16     -5.10      0.00
    5    9   16     -2.76      0.00
    4    9   16     -8.98      0.00
    3    9   16     -1.98      0.00
    2    9   16     -2.57      0.00
    1    9   16      0.45      0.00
    9    9   16     -7.77      0.00
    9   10   16     -6.69      0.00
    8   10   16     11.21      0.00
    7   10   16      2.74      0.00
    6   10   16      3.17      0.00
    5   10   16     10.66      0.00
    4   10   16     -0.58      0.00
    3   10   16      9.49      0.00
    2   10   16     -4.41      0.00
    1   10   16      7.02      0.00
    0   10   16     -1.35      0.00
   10   10   16      5.96      0.00
   10   11   16      1.29      0.00
    9   11   16     -2.12      0.00
    8   11   16      0.68      0.00
    7   11   16     11.55      0.00
    6   11   16      2.74      0.00
    5   11   16      3.16      0.00
    4   11   16    -12.48      0.00
    3   11   16     -5.29      0.00
    2   11   16     -8.48      0.00
    1   11   16      2.51      0.00
   11   11   16     -3.07      0.00
   11   12   16      0.00      0.00
   10   12   16      5.34      0.00
    9   12   16     -1.35      0.00
    8   12   16     -3.28      0.00
    7   12   16      2.78      0.00
    6   12   16     -3.03      0.00
    5   12   16      8.73      0.00
    4   12   16      1.65      0.00
    3   12   16      7.70      0.00
    2   12   16      7.84      0.00
    1   12   16      3.75      0.00
    0   12   16      6.44      0.00
   12   12   16     -2.80      0.00
   12   13   16     -1.17      0.00
   11   13   16      2.62      0.00
   10   13   16     -7.03      0.00
    9   13   16     -2.76      0.00
    8   13   16     -2.85      0.00
    7   13   16      5.21      0.00
    6   13   16     -7.28      0.00
    5   13   16      3.81      0.00
    4   13   16      0.58      0.00
    3   13   16      3.78      0.00
    2   13   16     -5.21      0.00
    1   13   16     -5.41      0.00
   13   13   16     -7.76      0.00
   13   14   16     -5.22      0.00
   12   14   16     -1.60      0.00
   11   14   16      5.04      0.00
   10   14   16      0.64      0.00
    9   14   16     -3.18      0.00
    8   14   16      0.35      0.00
    7   14   16      8.04      0.00
    6   14   16     -6.19      0.00
    5   14   16      3.51      0.00
    4   14   16     -2.78      0.00
    3   14   16     -3.08      0.00
    2   14   16      1.50      0.00
    1   14   16     -1.56      0.00
    0   14   16     14.73      0.00
   14   14   16      7.06      0.00
   14   15   16      3.41      0.00
   13   15   16     -6.88      0.00
   12   15   16     -5.59      0.00
   11   15   16     -8.48      0.00
   10   15   16     -3.69      0.00
    9   15   16      1.62      0.00
    8   15   16     -1.86      0.00
    7   15   16     -2.48      0.00
    6   15   16     -3.78      0.00
    5   15   16     -0.58      0.00
    4   15   16     -4.34      0.00
    3   15   16     -4.40      0.00
    2   15   16      3.04      0.00
    1   15   16     -5.05      0.00
   15   15   16     -0.92      0.00
   15   16   16    -18.19      0.00
   14   16   16    -14.48      0.00
   13   16   16      3.95      0.00
   12   16   16      4.04      0.00
   11   16   16      2.09      0.00
   10   16   16      1.77      0.00
    9   16   16      0.34      0.00
    8   16   16     -5.93      0.00
    7   16   16     -4.05      0.00
    6   16   16      0.99      0.00
    5   16   16     -2.38      0.00
    4   16   16      1.25      0.00
    3   16   16      1.52      0.00
    2   16   16      3.15      0.00
    1   16   16     -3.20      0.00
    0   16   16      0.21      0.00
   16   16   16     10.85      0.00
   16   17   16    -15.25      0.00
   15   17   16    -11.03      0.00
   14   17   16     -2.40      0.00
   13   17   16     -8.08      0.00
   12   17   16     -0.36      0.00
   11   17   16      8.63      0.00
   10   17   16      0.74      0.00
    9   17   16    -13.01      0.00
    8   17   16      0.31      0.00
    7   17   16      1.24      0.00
    6   17   16      4.93      0.00
    5   17   16      4.04      0.00
    4   17   16     -2.45      0.00
    3   17   16    -12.04      0.00
    2   17   16      1.81      0.00
    1   17   16      1.66      0.00
   17   17   16     -8.11      0.00
   17   18   16     -8.57      0.00
   16   18   16     -1.15      0.00
   15   18   16     -3.32      0.00
   14   18   16      9.96      0.00
   13   18   16      4.10      0.00
   12   18   16     10.46      0.00
   11   18   16     -5.56      0.00
   10   18   16      7.77      0.00
    9   18   16     -1.18      0.00
    8   18   16      4.38      0.00
    7   18   16      5.13      0.00
    6   18   16     -8.91      0.00
    5   18   16     -3.35      0.00
    4   18   16      2.41      0.00
    3   18   16     -5.98      0.00
    2   18   16      0.28      0.00
    1   18   16     -2.65      0.00
    0   18   16     -1.66      0.00
   18   18   16     -4.17      0.00
   18   19   16     14.34      0.00
   17   19   16     -0.74      0.00
   16   19   16     -3.05      0.00
   15   19   16      5.29      0.00
   14   19   16    -11.03      0.00
   13   19   16     -1.27      0.00
   12   19   16     14.50      0.00
   11   19   16      2.61      0.00
   10   19   16    -10.94      0.00
    9   19   16     -5.95      0.00
    8   19   16      3.15      0.00
    7   19   16      2.74      0.00
    6   19   16      3.84      0.00
    5   19   16      1.13      0.00
    4   19   16     -0.80      0.00
    3   19   16      3.48      0.00
    2   19   16     -1.48      0.00
    1   19   16     -4.73      0.00
   19   19   16      7.08      0.00
   19   20   16      1.59      0.00
   18   20   16      7.51      0.00
   17   20   16      8.53      0.00
   16   20   16      0.14      0.00
   15   20   16      6.03      0.00
   14   20   16      8.97      0.00
   13   20   16     15.61      0.00
   12   20   16      0.34      0.00
   11   20   16      7.85      0.00
   10   20   16     -2.10      0.00
    9   20   16     -0.60      0.00
    8   20   16      1.41      0.00
    7   20   16      0.04      0.00
    6   20   16     -7.14      0.00
    5   20   16      4.16      0.00
    4   20   16     -4.02      0.00
    3   20   16     -2.43      0.00
    2   20   16      4.21      0.00
    1   20   16     -8.01      0.00
    0   20   16      0.18      0.00
   20   20   16     -8.29      0.00
   20   21   16      5.19      0.00
   19   21   16     -0.20      0.00
   18   21   16     16.15      0.00
   17   21   16    -12.81      0.00
   16   21   16      8.74      0.00
   15   21   16      3.08      0.00
   14   21   16      8.85      0.00
   13   21   16     -1.54      0.00
   12   21   16     -2.84      0.00
   11   21   16      6.49      0.00
   10   21   16     -7.41      0.00
    9   21   16     -6.89      0.00
    8   21   16     -6.07      0.00
    7   21   16     -3.76      0.00
    6   21   16     -2.87      0.00
    5   21   16      2.93      0.00
    4   21   16      3.53      0.00
    3   21   16      4.93      0.00
    2   21   16     -4.78      0.00
    1   21   16     -1.17      0.00
   21   21   16      2.00      0.00
   21   22   16     -6.52      0.00
   20   22   16    -17.03      0.00
   19   22   16      2.97      0.00
   18   22   16      0.29      0.00
   17   22   16     -5.35      0.00
   16   22   16     -2.21      0.00
   15   22   16      5.18      0.00
   14   22   16     -9.92      0.00
   13   22   16     -2.13      0.00
   12   22   16      3.32      0.00
   11   22   16     -3.20      0.00
   10   22   16      7.24      0.00
    9   22   16    -10.58      0.00
    8   22   16      4.17      0.00
    7   22   16     -1.22      0.00
    6   22   16      6.78      0.00
    5   22   16     -7.97      0.00
    4   22   16      1.46      0.00
    3   22   16     -6.32      0.00
    2   22   16     -5.81      0.00
    1   22   16     -6.21      0.00
    0   22   16     -7.93      0.00
   22   22   16     14.00      0.00
   22   23   16     -3.72      0.00
   21   23   16      0.33      0.00
   20   23   16     -1.86      0.00
   19   23   16      8.23      0.00
   18   23   16      7.22      0.00
   17   23   16     -7.98      0.00
   16   23   16     17.59      0.00
   15   23   16      3.60      0.00
   14   23   16     10.55      0.00
   13   23   16      4.12      0.00
   12   23   16      7.90      0.00
   11   23   16     -0.39      0.00
   10   23   16      0.65      0.00
    9   23   16     -5.47      0.00
    8   23   16     -1.41      0.00
    7   23   16      0.63      0.00
    6   23   16      5.42      0.00
    5   23   16      1.93      0.00
    4   23   16     -1.25      0.00
    3   23   16      2.80      0.00
    2   23   16     -9.20      0.00
    1   23   16     -2.29      0.00
   23   23   16     11.42      0.00
   22   24   16      9.89      0.00
   21   24   16      6.55      0.00
   20   24   16     13.28      0.00
   19   24   16     -3.01      0.00
   18   24   16      2.19      0.00
   17   24   16     -4.59      0.00
   16   24   16    -12.10      0.00
   15   24   16     -5.55      0.00
   14   24   16     -7.52      0.00
   13   24   16     -5.13      0.00
   12   24   16     -5.00      0.00
   11   24   16     -3.71      0.00
   10   24   16     -1.72      0.00
    9   24   16     -0.47      0.00
    8   24   16     -1.16      0.00
    7   24   16      3.90      0.00
    6   24   16      3.62      0.00
    5   24   16     -2.08      0.00
    4   24   16      6.40      0.00
    3   24   16      1.81      0.00
    2   24   16     -5.64      0.00
    1   24   16     -2.76      0.00
    0   24   16     -1.44      0.00
   21   25   16     -1.77      0.00
   20   25   16     10.64      0.00
   19   25   16     -3.22      0.00
   18   25   16     -5.73      0.00
   17   25   16      7.67      0.00
   16   25   16     -0.30      0.00
   15   25   16     -6.76      0.00
   14   25   16      2.20      0.00
   13   25   16     -0.80      0.00
   12   25   16     -3.57      0.00
   11   25   16     -3.95      0.00
   10   25   16     -3.27      0.00
    9   25   16     -4.62      0.00
    8   25   16      0.59      0.00
    7   25   16     -5.66      0.00
    6   25   16     -0.61      0.00
    5   25   16    -10.53      0.00
    4   25   16      6.79      0.00
    3   25   16     -0.23      0.00
    2   25   16      5.95      0.00
    1   25   16      4.52      0.00
   20   26   16      6.90      0.00
   19   26   16     -5.55      0.00
   18   26   16     -4.66      0.00
   17   26   16      5.48      0.00
   16   26   16     -0.91      0.00
   15   26   16     -0.79      0.00
   14   26   16      4.44      0.00
   13   26   16     -3.11      0.00
   12   26   16     -3.71      0.00
   11   26   16     -0.81      0.00
   10   26   16     -1.88      0.00
    9   26   16      1.63      0.00
    8   26   16     -4.79      0.00
    7   26   16      2.32      0.00
    6   26   16      0.56      0.00
    5   26   16     -0.90      0.00
    4   26   16    -11.83      0.00
    3   26   16     -0.33      0.00
    2   26   16     -3.17      0.00
    1   26   16     -0.13      0.00
    0   26   16      5.24      0.00
   18   27   16     -4.87      0.00
   17   27   16      3.40      0.00
   16   27   16     -6.26      0.00
   15   27   16      3.71      0.00
   14   27   16      9.00      0.00
   13   27   16     -6.40      0.00
   12   27   16      5.75      0.00
   11   27   16      1.44      0.00
   10   27   16      1.86      0.00
    9   27   16     -0.61      0.00
    8   27   16      0.12      0.00
    7   27   16     -1.88      0.00
    6   27   16      5.02      0.00
    5   27   16     -6.13      0.00
    4   27   16     -3.31      0.00
    3   27   16     -2.85      0.00
    2   27   16     -0.88      0.00
    1   27   16      1.52      0.00
   17   28   16      4.69      0.00
   16   28   16      1.47      0.00
   15   28   16      3.64      0.00
   14   28   16     -2.34      0.00
   13   28   16      3.09      0.00
   12   28   16      1.91      0.00
   11   28   16      2.09      0.00
   10   28   16     -3.12      0.00
    9   28   16     -9.31      0.00
    8   28   16    -10.23      0.00
    7   28   16      0.00      0.00
    6   28   16     -1.58      0.00
    5   28   16     -1.07      0.00
    4   28   16      4.77      0.00
    3   28   16      0.23      0.00
    2   28   16     -1.70      0.00
    1   28   16      8.08      0.00
    0   28   16     -1.00      0.00
   15   29   16      4.55      0.00
   14   29   16     -0.78      0.00
   13   29   16      0.62      0.00
   12   29   16      0.24      0.00
   11   29   16     -4.75      0.00
   10   29   16     -8.69      0.00
    9   29   16     -0.94      0.00
    8   29   16      7.96      0.00
    7   29   16     -0.64      0.00
    6   29   16     -6.29      0.00
    5   29   16     -7.25      0.00
    4   29   16      4.39      0.00
    3   29   16     -4.66      0.00
    2   29   16     -2.38      0.00
    1   29   16      6.90      0.00
   13   30   16     -7.55      0.00
   12   30   16    -11.63      0.00
   11   30   16      4.50      0.00
   10   30   16      0.70      0.00
    9   30   16     -0.17      0.00
    8   30   16     -7.30      0.00
    7   30   16     -3.63      0.00
    6   30   16     -3.07      0.00
    5   30   16     10.53      0.00
    4   30   16      7.63      0.00
    3   30   16      2.94      0.00
    2   30   16      8.47      0.00
    1   30   16      2.98      0.00
    0   30   16      2.60      0.00
   10   31   16      5.09      0.00
    9   31   16     -2.45      0.00
    8   31   16      6.18      0.00
    7   31   16      4.07      0.00
    6   31   16      8.60      0.00
    5   31   16      3.91      0.00
    4   31   16     -2.49      0.00
    3   31   16     -3.02      0.00
    2   31   16     -1.59      0.00
    1   31   16      0.21      0.00
    7   32   16      5.53      0.00
    6   32   16      0.22      0.00
    5   32   16     -5.41      0.00
    4   32   16     -2.24      0.00
    3   32   16     12.94      0.00
    2   32   16      7.80      0.00
    1   32   16    -11.53      0.00
    0   32   16     -0.25      0.00
    1    2   17     -3.94      0.00
    0    2   17     -4.55      0.00
    2    3   17     -3.47      0.00
    1    3   17      3.30      0.00
    3    4   17      5.89      0.00
    2    4   17     -4.40      0.00
    1    4   17      2.36      0.00
    0    4   17     -0.30      0.00
    4    5   17     -5.26      0.00
    3    5   17      8.62      0.00
    2    5   17     -4.89      0.00
    1    5   17     -0.54      0.00
    5    6   17     -1.91      0.00
    4    6   17     -0.21      0.00
    3    6   17      3.64      0.00
    2    6   17      3.35      0.00
    1    6   17      3.14      0.00
    0    6   17      2.54      0.00
    6    7   17     -1.78      0.00
    5    7   17      2.26      0.00
    4    7   17     -2.13      0.00
    3    7   17     -0.32      0.00
    2    7   17     -0.23      0.00
    1    7   17     -4.38      0.00
    7    8   17      0.14      0.00
    6    8   17     -1.19      0.00
    5    8   17      0.42      0.00
    4    8   17      4.88      0.00
    3    8   17     -0.33      0.00
    2    8   17     -3.46      0.00
    1    8   17     -7.68      0.00
    0    8   17      4.53      0.00
    8    9   17      0.04      0.00
    7    9   17     -2.00      0.00
    6    9   17      2.58      0.00
    5    9   17      3.03      0.00
    4    9   17     -2.19      0.00
    3    9   17      5.31      0.00
    2    9   17      0.82      0.00
    1    9   17    -16.66      0.00
    9   10   17      1.42      0.00
    8   10   17      2.09      0.00
    7   10   17     -5.25      0.00
    6   10   17      1.75      0.00
    5   10   17     -4.23      0.00
    4   10   17      3.23      0.00
    3   10   17      1.21      0.00
    2   10   17      2.91      0.00
    1   10   17      0.00      0.00
    0   10   17     -3.06      0.00
   10   11   17     -1.44      0.00
    9   11   17      4.88      0.00
    8   11   17     -0.88      0.00
    7   11   17     -6.37      0.00
    6   11   17      1.77      0.00
    5   11   17      1.91      0.00
    4   11   17      3.50      0.00
    3   11   17     -1.79      0.00
    2   11   17     -4.90      0.00
    1   11   17      2.12      0.00
   11   12   17     -6.26      0.00
   10   12   17      5.51      0.00
    9   12   17     -0.80      0.00
    8   12   17     -6.86      0.00
    7   12   17     -0.76      0.00
    6   12   17      0.07      0.00
    5   12   17      1.90      0.00
    4   12   17     -4.32      0.00
    3   12   17     -2.42      0.00
    2   12   17      3.17      0.00
    1   12   17      1.40      0.00
    0   12   17      5.97      0.00
   12   13   17     -3.94      0.00
   11   13   17      0.42      0.00
   10   13   17      1.95      0.00
    9   13   17     -0.87      0.00
    8   13   17     -1.41      0.00
    7   13   17     -0.76      0.00
    6   13   17      0.30      0.00
    5   13   17      1.57      0.00
    4   13   17      0.58      0.00
    3   13   17      0.45      0.00
    2   13   17      1.46      0.00
    1   13   17      5.01      0.00
   13   14   17      4.53      0.00
   12   14   17      1.67      0.00
   11   14   17     -6.37      0.00
   10   14   17      2.86      0.00
    9   14   17      0.81      0.00
    8   14   17      0.81      0.00
    7   14   17      5.93      0.00
    6   14   17      1.70      0.00
    5   14   17     -1.97      0.00
    4   14   17     -0.44      0.00
    3   14   17      0.55      0.00
    2   14   17      2.89      0.00
    1   14   17      0.25      0.00
    0   14   17      2.26      0.00
   14   15   17     19.43      0.00
   13   15   17     -1.24      0.00
   12   15   17    -15.64      0.00
   11   15   17     -1.10      0.00
   10   15   17     -5.96      0.00
    9   15   17      6.89      0.00
    8   15   17     -8.59      0.00
    7   15   17     -0.21      0.00
    6   15   17     -1.35      0.00
    5   15   17      1.84      0.00
    4   15   17      3.52      0.00
    3   15   17      3.29      0.00
    2   15   17     -0.49      0.00
    1   15   17     -3.51      0.00
   15   16   17      2.55      0.00
   14   16   17     -4.67      0.00
   13   16   17      4.08      0.00
   12   16   17     -8.32      0.00
   11   16   17     -0.29      0.00
   10   16   17     -0.75      0.00
    9   16   17      3.77      0.00
    8   16   17      3.60      0.00
    7   16   17     -1.56      0.00
    6   16   17      3.91      0.00
    5   16   17      2.76      0.00
    4   16   17      2.28      0.00
    3   16   17     -0.48      0.00
    2   16   17      0.66      0.00
    1   16   17      9.14      0.00
    0   16   17      5.31      0.00
   16   17   17     -1.87      0.00
   15   17   17    -20.65      0.00
   14   17   17    -13.59      0.00
   13   17   17     -7.24      0.00
   12   17   17      6.59      0.00
   11   17   17     -9.31      0.00
   10   17   17     -2.28      0.00
    9   17   17     -5.94      0.00
    8   17   17     -5.00      0.00
    7   17   17     -3.03      0.00
    6   17   17      4.95      0.00
    5   17   17     -1.23      0.00
    4   17   17     -3.92      0.00
    3   17   17      4.52      0.00
    2   17   17     -7.30      0.00
    1   17   17      1.48      0.00
   17   18   17      5.90      0.00
   16   18   17      9.54      0.00
   15   18   17     -9.81      0.00
   14   18   17    -15.08      0.00
   13   18   17      1.30      0.00
   12   18   17    -10.02      0.00
   11   18   17      5.07      0.00
   10   18   17     -3.10      0.00
    9   18   17     -5.77      0.00
    8   18   17     -0.49      0.00
    7   18   17      6.36      0.00
    6   18   17      3.24      0.00
    5   18   17    -16.53      0.00
    4   18   17      1.56      0.00
    3   18   17      0.33      0.00
    2   18   17     -6.10      0.00
    1   18   17     -1.31      0.00
    0   18   17     15.68      0.00
   18   19   17    -20.00      0.00
   17   19   17     -4.02      0.00
   16   19   17    -19.79      0.00
   15   19   17     11.32      0.00
   14   19   17     -7.02      0.00
   13   19   17      2.74      0.00
   12   19   17     13.86      0.00
   11   19   17     -9.31      0.00
   10   19   17     11.18      0.00
    9   19   17     -0.43      0.00
    8   19   17     -5.66      0.00
    7   19   17      4.95      0.00
    6   19   17     -1.06      0.00
    5   19   17     -7.90      0.00
    4   19   17      4.85      0.00
    3   19   17     -0.02      0.00
    2   19   17     -0.11      0.00
    1   19   17     10.95      0.00
   19   20   17      5.35      0.00
   18   20   17    -10.65      0.00
   17   20   17      1.23      0.00
   16   20   17    -15.48      0.00
   15   20   17    -14.17      0.00
   14   20   17      1.34      0.00
   13   20   17      1.14      0.00
   12   20   17     -2.04      0.00
   11   20   17      0.31      0.00
   10   20   17      1.31      0.00
    9   20   17     -6.43      0.00
    8   20   17      4.80      0.00
    7   20   17     -3.57      0.00
    6   20   17     -3.05      0.00
    5   20   17     -5.98      0.00
    4   20   17     -7.66      0.00
    3   20   17     -1.02      0.00
    2   20   17     -0.06      0.00
    1   20   17     -3.33      0.00
    0   20   17      4.16      0.00
   20   21   17      4.71      0.00
   19   21   17     -3.45      0.00
   18   21   17    -11.85      0.00
   17   21   17      7.97      0.00
   16   21   17    -14.18      0.00
   15   21   17    -11.62      0.00
   14   21   17      4.78      0.00
   13   21   17     11.30      0.00
   12   21   17      0.17      0.00
   11   21   17     -7.36      0.00
   10   21   17     -6.85      0.00
    9   21   17     11.60      0.00
    8   21   17     -1.71      0.00
    7   21   17      1.73      0.00
    6   21   17     -5.81      0.00
    5   21   17      1.65      0.00
    4   21   17      4.67      0.00
    3   21   17      3.39      0.00
    2   21   17      5.75      0.00
    1   21   17     -2.64      0.00
   21   22   17     12.86      0.00
   20   22   17     23.17      0.00
   19   22   17     -9.94      0.00
   18   22   17     -3.74      0.00
   17   22   17      4.98      0.00
   16   22   17      5.11      0.00
   15   22   17     -4.62      0.00
   14   22   17     -6.16      0.00
   13   22   17      6.48      0.00
   12   22   17     -3.53      0.00
   11   22   17     -7.08      0.00
   10   22   17      3.97      0.00
    9   22   17     -1.62      0.00
    8   22   17      7.34      0.00
    7   22   17     -8.81      0.00
    6   22   17      7.66      0.00
    5   22   17      1.53      0.00
    4   22   17     -1.88      0.00
    3   22   17      4.05      0.00
    2   22   17    -12.72      0.00
    1   22   17     -5.28      0.00
    0   22   17      0.04      0.00
   22   23   17     12.58      0.00
   21   23   17     -7.50      0.00
   20   23   17     -4.26      0.00
   19   23   17      8.55      0.00
   18   23   17     -2.09      0.00
   17   23   17      3.03      0.00
   16   23   17     13.48      0.00
   15   23   17     11.64      0.00
   14   23   17     -2.46      0.00
   13   23   17     -9.41      0.00
   12   23   17     -0.01      0.00
   11   23   17      2.27      0.00
   10   23   17      3.76      0.00
    9   23   17      5.17      0.00
    8   23   17     -2.80      0.00
    7   23   17      5.20      0.00
    6   23   17      3.35      0.00
    5   23   17     -2.74      0.00
    4   23   17      6.12      0.00
    3   23   17      3.82      0.00
    2   23   17     -2.48      0.00
    1   23   17      1.24      0.00
   21   24   17     -3.27      0.00
   20   24   17     -3.19      0.00
   19   24   17      0.31      0.00
   18   24   17      9.69      0.00
   17   24   17    -13.53      0.00
   16   24   17      2.02      0.00
   15   24   17      2.31      0.00
   14   24   17     -1.30      0.00
   13   24   17      9.30      0.00
   12   24   17     -3.61      0.00
   11   24   17     -3.31      0.00
   10   24   17     -1.45      0.00
    9   24   17      3.18      0.00
    8   24   17      5.14      0.00
    7   24   17      5.94      0.00
    6   24   17     -5.07      0.00
    5   24   17      1.80      0.00
    4   24   17     -4.69      0.00
    3   24   17      4.71      0.00
    2   24   17      1.12      0.00
    1   24   17     -8.25      0.00
    0   24   17     -1.03      0.00
   20   25   17    -10.51      0.00
   19   25   17      7.66      0.00
   18   25   17     -9.28      0.00
   17   25   17     -4.80      0.00
   16   25   17      1.13      0.00
   15   25   17     -5.76      0.00
   14   25   17     13.01      0.00
   13   25   17      2.52      0.00
   12   25   17      0.86      0.00
   11   25   17    -10.22      0.00
   10   25   17      9.17      0.00
    9   25   17     -4.75      0.00
    8   25   17      1.36      0.00
    7   25   17      5.77      0.00
    6   25   17     -1.68      0.00
    5   25   17      3.70      0.00
    4   25   17     -7.11      0.00
    3   25   17    -14.82      0.00
    2   25   17    -10.03      0.00
    1   25   17      7.38      0.00
   19   26   17    -14.35      0.00
   18   26   17     -0.45      0.00
   17   26   17      2.84      0.00
   16   26   17     -0.25      0.00
   15   26   17      8.08      0.00
   14   26   17      5.51      0.00
   13   26   17     -1.52      0.00
   12   26   17     -2.01      0.00
   11   26   17      3.00      0.00
   10   26   17     14.41      0.00
    9   26   17     -4.98      0.00
    8   26   17     -1.74      0.00
    7   26   17     -2.27      0.00
    6   26   17     -2.66      0.00
    5   26   17     -5.19      0.00
    4   26   17      7.03      0.00
    3   26   17      0.69      0.00
    2   26   17     -0.52      0.00
    1   26   17     -3.40      0.00
    0   26   17     -3.35      0.00
   17   27   17     -0.24      0.00
   16   27   17      3.53      0.00
   15   27   17     -8.47      0.00
   14   27   17      4.60      0.00
   13   27   17      2.00      0.00
   12   27   17     -9.00      0.00
   11   27   17      2.66      0.00
   10   27   17     -2.21      0.00
    9   27   17      4.74      0.00
    8   27   17     -0.08      0.00
    7   27   17     -2.38      0.00
    6   27   17     -9.90      0.00
    5   27   17      1.63      0.00
    4   27   17     -5.81      0.00
    3   27   17     -1.13      0.00
    2   27   17      4.36      0.00
    1   27   17      3.75      0.00
   15   28   17      6.23      0.00
   14   28   17    -10.87      0.00
   13   28   17     -6.86      0.00
   12   28   17     10.69      0.00
   11   28   17     -4.83      0.00
   10   28   17      0.08      0.00
    9   28   17      6.96      0.00
    8   28   17     -3.09      0.00
    7   28   17     -0.68      0.00
    6   28   17    -10.47      0.00
    5   28   17    -11.28      0.00
    4   28   17      5.15      0.00
    3   28   17      1.41      0.00
    2   28   17     13.20      0.00
    1   28   17    -11.78      0.00
    0   28   17     -1.46      0.00
   14   29   17      8.06      0.00
   13   29   17      1.70      0.00
   12   29   17      2.85      0.00
   11   29   17     -9.32      0.00
   10   29   17     -2.50      0.00
    9   29   17      2.37      0.00
    8   29   17     -8.66      0.00
    7   29   17     -4.09      0.00
    6   29   17      3.39      0.00
    5   29   17     -8.30      0.00
    4   29   17     -5.34      0.00
    3   29   17      3.35      0.00
    2   29   17      0.30      0.00
    1   29   17     -1.36      0.00
   11   30   17     -3.65      0.00
   10   30   17      8.41      0.00
    9   30   17     -0.75      0.00
    8   30   17      0.30      0.00
    7   30   17      5.48      0.00
    6   30   17     16.54      0.00
    5   30   17     10.71      0.00
    4   30   17      6.77      0.00
    3   30   17      2.81      0.00
    2   30   17     -6.40      0.00
    1   30   17     -2.56      0.00
    0   30   17     -8.58      0.00
    8   31   17      2.95      0.00
    7   31   17     -2.39      0.00
    6   31   17    -14.59      0.00
    5   31   17      1.12      0.00
    4   31   17     -9.86      0.00
    3   31   17      5.94      0.00
    2   31   17     -2.85      0.00
    1   31   17     -2.11      0.00
    3   32   17      7.95      0.00
    2   32   17      9.84      0.00
    1   32   17     -3.31      0.00
    0   32   17     -1.49      0.00
    0    0   18     52.74      0.00
    1    1   18    -17.39      0.00
    1    2   18     -8.91      0.00
    0    2   18     10.50      0.00
    2    2   18     13.03      0.00
    2    3   18      4.80      0.00
    1    3   18     14.94      0.00
    3    3   18     -4.04      0.00
    3    4   18     -8.84      0.00
    2    4   18      3.12      0.00
    1    4   18     -1.51      0.00
    0    4   18     -3.50      0.00
    4    4   18      3.42      0.00
    4    5   18      4.87      0.00
    3    5   18      2.15      0.00
    2    5   18     -0.27      0.00
    1    5   18      9.14      0.00
    5    5   18      7.30      0.00
    5    6   18      1.78      0.00
    4    6   18      8.26      0.00
    3    6   18     -3.16      0.00
    2    6   18     -2.62      0.00
    1    6   18     -2.83      0.00
    0    6   18     -6.37      0.00
    6    6   18      5.71      0.00
    6    7   18     -8.81      0.00
    5    7   18      3.27      0.00
    4    7   18     -4.01      0.00
    3    7   18      4.53      0.00
    2    7   18      2.09      0.00
    1    7   18      5.81      0.00
    7    7   18    -14.94      0.00
    7    8   18      3.42      0.00
    6    8   18      5.21      0.00
    5    8   18     -1.03      0.00
    4    8   18      4.20      0.00
    3    8   18     -0.85      0.00
    2    8   18     -4.54      0.00
    1    8   18      3.20      0.00
    0    8   18    -12.84      0.00
    8    8   18      6.79      0.00
    8    9   18      1.23      0.00
    7    9   18     -1.89      0.00
    6    9   18     -2.47      0.00
    5    9   18     -3.47      0.00
    4    9   18     -7.29      0.00
    3    9   18     -2.76      0.00
    2    9   18     -3.89      0.00
    1    9   18      2.64      0.00
    9    9   18      4.83      0.00
    9   10   18     -0.04      0.00
    8   10   18     -0.12      0.00
    7   10   18      1.89      0.00
    6   10   18      5.46      0.00
    5   10   18      6.29      0.00
    4   10   18      7.30      0.00
    3   10   18      1.58      0.00
    2   10   18      3.99      0.00
    1   10   18      0.60      0.00
    0   10   18     -1.80      0.00
   10   10   18     -0.67      0.00
   10   11   18      1.88      0.00
    9   11   18     -1.88      0.00
    8   11   18     -1.61      0.00
    7   11   18     -2.26      0.00
    6   11   18     -0.71      0.00
    5   11   18     -6.16      0.00
    4   11   18     -4.74      0.00
    3   11   18      1.22      0.00
    2   11   18     -0.37      0.00
    1   11   18      1.40      0.00
   11   11   18      6.63      0.00
   11   12   18      1.98      0.00
   10   12   18     -3.42      0.00
    9   12   18     -6.61      0.00
    8   12   18     -1.90      0.00
    7   12   18     -0.25      0.00
    6   12   18     -1.23      0.00
    5   12   18      4.77      0.00
    4   12   18      0.45      0.00
    3   12   18      3.90      0.00
    2   12   18     -0.70      0.00
    1   12   18      0.19      0.00
    0   12   18      3.31      0.00
   12   12   18     -3.04      0.00
   12   13   18      0.77      0.00
   11   13   18     -5.59      0.00
   10   13   18      1.04      0.00
    9   13   18     -6.20      0.00
    8   13   18     -4.69      0.00
    7   13   18      6.17      0.00
    6   13   18      3.03      0.00
    5   13   18     -2.47      0.00
    4   13   18     -8.34      0.00
    3   13   18     -3.52      0.00
    2   13   18      7.88      0.00
    1   13   18      5.67      0.00
   13   13   18     -0.24      0.00
   13   14   18      9.82      0.00
   12   14   18      6.24      0.00
   11   14   18      3.02      0.00
   10   14   18     -3.77      0.00
    9   14   18     -6.03      0.00
    8   14   18      4.14      0.00
    7   14   18      1.66      0.00
    6   14   18     -0.83      0.00
    5   14   18      6.13      0.00
    4   14   18     -1.82      0.00
    3   14   18      4.99      0.00
    2   14   18     -1.14      0.00
    1   14   18     -0.86      0.00
    0   14   18     -3.73      0.00
   14   14   18      0.19      0.00
   14   15   18      7.43      0.00
   13   15   18     -2.06      0.00
   12   15   18      2.37      0.00
   11   15   18     -0.38      0.00
   10   15   18     -0.85      0.00
    9   15   18     -2.61      0.00
    8   15   18      2.69      0.00
    7   15   18      4.31      0.00
    6   15   18    -10.84      0.00
    5   15   18      2.84      0.00
    4   15   18     -2.71      0.00
    3   15   18      0.63      0.00
    2   15   18     -3.00      0.00
    1   15   18     -0.41      0.00
   15   15   18      7.79      0.00
   15   16   18      3.61      0.00
   14   16   18      3.36      0.00
   13   16   18     -0.04      0.00
   12   16   18    -11.23      0.00
   11   16   18     -2.33      0.00
   10   16   18      3.67      0.00
    9   16   18     -1.07      0.00
    8   16   18     -4.96      0.00
    7   16   18     -4.51      0.00
    6   16   18     -1.78      0.00
    5   16   18      3.27      0.00
    4   16   18      1.09      0.00
    3   16   18      7.01      0.00
    2   16   18      8.14      0.00
    1   16   18     -4.63      0.00
    0   16   18      1.09      0.00
   16   16   18      5.77      0.00
   16   17   18      9.06      0.00
   15   17   18     -4.60      0.00
   14   17   18    -10.90      0.00
   13   17   18    -27.23      0.00
   12   17   18     -9.66      0.00
   11   17   18    -13.08      0.00
   10   17   18     -6.73      0.00
    9   17   18     -3.05      0.00
    8   17   18     -6.75      0.00
    7   17   18      0.24      0.00
    6   17   18      6.29      0.00
    5   17   18      0.57      0.00
    4   17   18     -0.99      0.00
    3   17   18     -7.97      0.00
    2   17   18     -1.84      0.00
    1   17   18     -2.48      0.00
   17   17   18     -7.01      0.00
   17   18   18     11.07      0.00
   16   18   18     -3.09      0.00
   15   18   18    -16.57      0.00
   14   18   18    -13.22      0.00
   13   18   18      7.94      0.00
   12   18   18    -10.98      0.00
   11   18   18     -3.46      0.00
   10   18   18      1.28      0.00
    9   18   18      2.99      0.00
    8   18   18     -4.65      0.00
    7   18   18     -6.08      0.00
    6   18   18     -1.77      0.00
    5   18   18      0.74      0.00
    4   18   18     -3.77      0.00
    3   18   18     -1.28      0.00
    2   18   18     11.91      0.00
    1   18   18     -7.04      0.00
    0   18   18      0.04      0.00
   18   18   18      2.74      0.00
   18   19   18      1.39      0.00
   17   19   18      3.47      0.00
   16   19   18     -3.49      0.00
   15   19   18    -10.22      0.00
   14   19   18     -9.37      0.00
   13   19   18    -10.92      0.00
   12   19   18      0.02      0.00
   11   19   18      1.39      0.00
   10   19   18      8.66      0.00
    9   19   18     -0.49      0.00
    8   19   18      2.86      0.00
    7   19   18     -5.14      0.00
    6   19   18      2.41      0.00
    5   19   18      2.40      0.00
    4   19   18      4.11      0.00
    3   19   18      1.57      0.00
    2   19   18     -0.86      0.00
    1   19   18     -2.20      0.00
   19   19   18     -7.30      0.00
   19   20   18      6.84      0.00
   18   20   18     -3.16      0.00
   17   20   18     -4.27      0.00
   16   20   18      5.70      0.00
   15   20   18     -7.14      0.00
   14   20   18     -9.59      0.00
   13   20   18      2.03      0.00
   12   20   18      8.58      0.00
   11   20   18      2.17      0.00
   10   20   18      4.83      0.00
    9   20   18     -2.15      0.00
    8   20   18      4.60      0.00
    7   20   18     -0.02      0.00
    6   20   18     -3.92      0.00
    5   20   18     -1.23      0.00
    4   20   18     -4.41      0.00
    3   20   18     14.49      0.00
    2   20   18     -4.35      0.00
    1   20   18      0.24      0.00
    0   20   18      1.11      0.00
   20   20   18     -8.24      0.00
   20   21   18     -3.96      0.00
   19   21   18      5.04      0.00
   18   21   18     13.37      0.00
   17   21   18     -7.42      0.00
   16   21   18    -19.92      0.00
   15   21   18     17.68      0.00
   14   21   18      3.73      0.00
   13   21   18     -0.64      0.00
   12   21   18     -2.83      0.00
   11   21   18     -2.15      0.00
   10   21   18      6.21      0.00
    9   21   18      3.29      0.00
    8   21   18     -5.02      0.00
    7   21   18     -0.80      0.00
    6   21   18     -5.58      0.00
    5   21   18     -0.36      0.00
    4   21   18     -0.96      0.00
    3   21   18     -0.36      0.00
    2   21   18      7.22      0.00
    1   21   18     -0.23      0.00
   21   21   18      3.48      0.00
   21   22   18     16.26      0.00
   20   22   18     12.58      0.00
   19   22   18    -26.66      0.00
   18   22   18      4.31      0.00
   17   22   18    -13.71      0.00
   16   22   18      7.74      0.00
   15   22   18      4.83      0.00
   14   22   18     10.75      0.00
   13   22   18     -6.23      0.00
   12   22   18      1.08      0.00
   11   22   18     -5.59      0.00
   10   22   18     11.19      0.00
    9   22   18     -7.31      0.00
    8   22   18     -2.38      0.00
    7   22   18     -4.36      0.00
    6   22   18     -0.13      0.00
    5   22   18     -8.10      0.00
    4   22   18     -3.68      0.00
    3   22   18     -3.01      0.00
    2   22   18      1.04      0.00
    1   22   18      2.65      0.00
    0   22   18     -0.11      0.00
   22   22   18    -30.49      0.00
   21   23   18    -15.30      0.00
   20   23   18     10.81      0.00
   19   23   18      7.58      0.00
   18   23   18      8.61      0.00
   17   23   18      8.46      0.00
   16   23   18      5.06      0.00
   15   23   18     -2.70      0.00
   14   23   18     -3.69      0.00
   13   23   18      0.81      0.00
   12   23   18      7.35      0.00
   11   23   18      1.65      0.00
   10   23   18     -0.36      0.00
    9   23   18     -3.50      0.00
    8   23   18     -0.30      0.00
    7   23   18      9.57      0.00
    6   23   18      2.95      0.00
    5   23   18      1.17      0.00
    4   23   18      6.13      0.00
    3   23   18     -5.47      0.00
    2   23   18     -3.22      0.00
    1   23   18      7.74      0.00
   20   24   18      2.66      0.00
   19   24   18      0.11      0.00
   18   24   18     -1.03      0.00
   17   24   18     15.68      0.00
   16   24   18      2.17      0.00
   15   24   18     -5.10      0.00
   14   24   18     -4.00      0.00
   13   24   18     -0.27      0.00
   12   24   18     -1.70      0.00
   11   24   18     -2.62      0.00
   10   24   18      1.15      0.00
    9   24   18     16.93      0.00
    8   24   18      2.06      0.00
    7   24   18     -0.27      0.00
    6   24   18      9.95      0.00
    5   24   18     -4.59      0.00
    4   24   18     -2.44      0.00
    3   24   18     -1.39      0.00
    2   24   18      4.64      0.00
    1   24   18      2.54      0.00
    0   24   18      9.60      0.00
   19   25   18      6.49      0.00
   18   25   18     -1.95      0.00
   17   25   18     -4.24      0.00
   16   25   18     12.64      0.00
   15   25   18     -5.01      0.00
   14   25   18      2.38      0.00
   13   25   18     -1.09      0.00
   12   25   18      6.16      0.00
   11   25   18     -2.01      0.00
   10   25   18     -2.27      0.00
    9   25   18      5.48      0.00
    8   25   18     11.98      0.00
    7   25   18     -1.18      0.00
    6   25   18     -1.77      0.00
    5   25   18     -0.41      0.00
    4   25   18      0.41      0.00
    3   25   18      1.74      0.00
    2   25   18      5.29      0.00
    1   25   18      8.90      0.00
   17   26   18     -2.58      0.00
   16   26   18      1.69      0.00
   15   26   18     -4.66      0.00
   14   26   18      8.05      0.00
   13   26   18     -7.23      0.00
   12   26   18      0.41      0.00
   11   26   18     13.03      0.00
   10   26   18      5.12      0.00
    9   26   18     -0.59      0.00
    8   26   18     -2.16      0.00
    7   26   18     -0.61      0.00
    6   26   18     -6.07      0.00
    5   26   18     -8.90      0.00
    4   26   18      3.84      0.00
    3   26   18     -0.47      0.00
    2   26   18     -2.56      0.00
    1   26   18      6.99      0.00
    0   26   18     -1.62      0.00
   16   27   18      1.09      0.00
   15   27   18      5.62      0.00
   14   27   18      2.73      0.00
   13   27   18      2.17      0.00
   12   27   18    -17.31      0.00
   11   27   18      8.50      0.00
   10   27   18      8.75      0.00
    9   27   18     -6.79      0.00
    8   27   18      9.09      0.00
    7   27   18      0.01      0.00
    6   27   18      6.51      0.00
    5   27   18      4.98      0.00
    4   27   18      0.96      0.00
    3   27   18     -4.78      0.00
    2   27   18     -9.63      0.00
    1   27   18      2.96      0.00
   14   28   18     -7.20      0.00
   13   28   18      1.15      0.00
   12   28   18      5.30      0.00
   11   28   18      1.26      0.00
   10   28   18      1.46      0.00
    9   28   18      3.63      0.00
    8   28   18      1.44      0.00
    7   28   18      4.43      0.00
    6   28   18      2.57      0.00
    5   28   18      0.12      0.00
    4   28   18      3.82      0.00
    3   28   18      0.05      0.00
    2   28   18     -1.44      0.00
    1   28   18      3.66      0.00
    0   28   18     -2.28      0.00
   12   29   18      7.04      0.00
   11   29   18     -9.27      0.00
   10   29   18      3.62      0.00
    9   29   18     -3.03      0.00
    8   29   18    -17.51      0.00
    7   29   18      2.05      0.00
    6   29   18      6.23      0.00
    5   29   18      0.30      0.00
    4   29   18      3.07      0.00
    3   29   18      5.93      0.00
    2   29   18     -0.24      0.00
    1   29   18    -15.25      0.00
    9   30   18     -0.03      0.00
    8   30   18      3.33      0.00
    7   30   18      3.63      0.00
    6   30   18      3.84      0.00
    5   30   18      1.33      0.00
    4   30   18      4.41      0.00
    3   30   18     -1.44      0.00
    2   30   18     -2.02      0.00
    1   30   18     -5.00      0.00
    0   30   18      1.43      0.00
    5   31   18      4.65      0.00
    4   31   18    -10.53      0.00
    3   31   18      2.27      0.00
    2   31   18     -6.28      0.00
    1   31   18      5.69      0.00
    1    2   19     -1.54      0.00
    0    2   19     -2.50      0.00
    2    3   19     -2.19      0.00
    1    3   19      1.11      0.00
    3    4   19      2.70      0.00
    2    4   19      5.70      0.00
    1    4   19     -3.72      0.00
    0    4   19      3.79      0.00
    4    5   19     -5.29      0.00
    3    5   19      2.52      0.00
    2    5   19     -1.75      0.00
    1    5   19      2.61      0.00
    5    6   19     -9.09      0.00
    4    6   19      2.29      0.00
    3    6   19     -1.64      0.00
    2    6   19      3.03      0.00
    1    6   19     -8.14      0.00
    0    6   19      2.20      0.00
    6    7   19      0.11      0.00
    5    7   19     -0.70      0.00
    4    7   19     -1.90      0.00
    3    7   19     -3.40      0.00
    2    7   19     -2.07      0.00
    1    7   19     -1.64      0.00
    7    8   19     -8.22      0.00
    6    8   19     -0.62      0.00
    5    8   19     -0.92      0.00
    4    8   19      6.31      0.00
    3    8   19     -4.87      0.00
    2    8   19     -3.68      0.00
    1    8   19     -0.65      0.00
    0    8   19      3.03      0.00
    8    9   19      2.62      0.00
    7    9   19    -11.20      0.00
    6    9   19     -2.89      0.00
    5    9   19     -1.56      0.00
    4    9   19      2.47      0.00
    3    9   19     -5.14      0.00
    2    9   19     -2.30      0.00
    1    9   19     -2.00      0.00
    9   10   19     -2.02      0.00
    8   10   19     -4.41      0.00
    7   10   19     -7.10      0.00
    6   10   19     -5.06      0.00
    5   10   19      0.39      0.00
    4   10   19     -1.93      0.00
    3   10   19     -4.70      0.00
    2   10   19      1.37      0.00
    1   10   19      5.83      0.00
    0   10   19      0.48      0.00
   10   11   19      3.87      0.00
    9   11   19      2.66      0.00
    8   11   19      0.60      0.00
    7   11   19    -14.57      0.00
    6   11   19      4.57      0.00
    5   11   19     -0.06      0.00
    4   11   19     -0.18      0.00
    3   11   19      1.68      0.00
    2   11   19     -5.13      0.00
    1   11   19      2.41      0.00
   11   12   19     -4.27      0.00
   10   12   19     -0.31      0.00
    9   12   19     -7.76      0.00
    8   12   19     -5.21      0.00
    7   12   19     -5.12      0.00
    6   12   19      1.99      0.00
    5   12   19      1.40      0.00
    4   12   19     -1.91      0.00
    3   12   19      6.91      0.00
    2   12   19     -0.98      0.00
    1   12   19      0.18      0.00
    0   12   19     -1.97      0.00
   12   13   19      9.00      0.00
   11   13   19     11.26      0.00
   10   13   19     -1.79      0.00
    9   13   19      3.14      0.00
    8   13   19     -5.39      0.00
    7   13   19     -1.28      0.00
    6   13   19     -0.79      0.00
    5   13   19     -0.61      0.00
    4   13   19      0.11      0.00
    3   13   19      4.91      0.00
    2   13   19      3.71      0.00
    1   13   19     -5.80      0.00
   13   14   19      7.09      0.00
   12   14   19      3.80      0.00
   11   14   19      3.13      0.00
   10   14   19      4.18      0.00
    9   14   19      3.55      0.00
    8   14   19     11.72      0.00
    7   14   19      2.16      0.00
    6   14   19     -2.86      0.00
    5   14   19     -0.94      0.00
    4   14   19     -7.88      0.00
    3   14   19      3.43      0.00
    2   14   19     -1.42      0.00
    1   14   19      3.91      0.00
    0   14   19      7.35      0.00
   14   15   19      1.51      0.00
   13   15   19      8.79      0.00
   12   15   19     -8.47      0.00
   11   15   19      6.92      0.00
   10   15   19      2.01      0.00
    9   15   19      5.85      0.00
    8   15   19      0.63      0.00
    7   15   19      7.27      0.00
    6   15   19    -13.68      0.00
    5   15   19     -1.78      0.00
    4   15   19      8.75      0.00
    3   15   19      4.37      0.00
    2   15   19     -4.11      0.00
    1   15   19     -2.05      0.00
   15   16   19     14.30      0.00
   14   16   19     -9.33      0.00
   13   16   19      8.76      0.00
   12   16   19      3.86      0.00
   11   16   19     -1.78      0.00
   10   16   19      7.44      0.00
    9   16   19     15.22      0.00
    8   16   19      2.66      0.00
    7   16   19      7.60      0.00
    6   16   19     -5.41      0.00
    5   16   19     -4.80      0.00
    4   16   19     -2.68      0.00
    3   16   19     -4.22      0.00
    2   16   19     -0.31      0.00
    1   16   19      3.99      0.00
    0   16   19      4.73      0.00
   16   17   19      5.42      0.00
   15   17   19      6.01      0.00
   14   17   19     15.29      0.00
   13   17   19     -7.58      0.00
   12   17   19     -7.31      0.00
   11   17   19    -11.22      0.00
   10   17   19     10.17      0.00
    9   17   19    -10.55      0.00
    8   17   19      3.24      0.00
    7   17   19     -0.58      0.00
    6   17   19     -2.22      0.00
    5   17   19     -5.68      0.00
    4   17   19      2.45      0.00
    3   17   19      2.93      0.00
    2   17   19     -6.67      0.00
    1   17   19     -0.90      0.00
   17   18   19      6.96      0.00
   16   18   19     14.12      0.00
   15   18   19      4.68      0.00
   14   18   19    -11.63      0.00
   13   18   19     -2.67      0.00
   12   18   19     -0.49      0.00
   11   18   19     -1.72      0.00
   10   18   19      9.46      0.00
    9   18   19     12.13      0.00
    8   18   19      2.50      0.00
    7   18   19      9.32      0.00
    6   18   19      0.20      0.00
    5   18   19     -8.78      0.00
    4   18   19      4.74      0.00
    3   18   19     -2.11      0.00
    2   18   19     -5.58      0.00
    1   18   19      5.48      0.00
    0   18   19     -5.25      0.00
   18   19   19     -6.80      0.00
   17   19   19     31.45      0.00
   16   19   19     -7.37      0.00
   15   19   19     -4.32      0.00
   14   19   19    -12.27      0.00
   13   19   19     10.29      0.00
   12   19   19     -1.80      0.00
   11   19   19      7.08      0.00
   10   19   19      4.94      0.00
    9   19   19     10.94      0.00
    8   19   19      4.98      0.00
    7   19   19     -2.46      0.00
    6   19   19     -0.12      0.00
    5   19   19     -0.47      0.00
    4   19   19      6.20      0.00
    3   19   19      2.22      0.00
    2   19   19      1.77      0.00
    1   19   19      0.77      0.00
   19   20   19      2.72      0.00
   18   20   19      3.10      0.00
   17   20   19      3.10      0.00
   16   20   19    -11.03      0.00
   15   20   19      1.28      0.00
   14   20   19     17.42      0.00
   13   20   19      1.63      0.00
   12   20   19     -7.20      0.00
   11   20   19     -5.42      0.00
   10   20   19     -8.71      0.00
    9   20   19     -6.97      0.00
    8   20   19      8.36      0.00
    7   20   19      6.57      0.00
    6   20   19     -1.22      0.00
    5   20   19      7.79      0.00
    4   20   19     -1.32      0.00
    3   20   19     -1.09      0.00
    2   20   19     -0.91      0.00
    1   20   19      0.15      0.00
    0   20   19     -2.78      0.00
   20   21   19     -0.07      0.00
   19   21   19    -15.73      0.00
   18   21   19    -19.32      0.00
   17   21   19      5.80      0.00
   16   21   19      1.94      0.00
   15   21   19      7.50      0.00
   14   21   19      0.45      0.00
   13   21   19      7.43      0.00
   12   21   19      8.68      0.00
   11   21   19      7.09      0.00
   10   21   19      1.50      0.00
    9   21   19      0.17      0.00
    8   21   19    -11.23      0.00
    7   21   19      1.59      0.00
    6   21   19      3.91      0.00
    5   21   19      1.21      0.00
    4   21   19     -7.10      0.00
    3   21   19     -1.42      0.00
    2   21   19      2.01      0.00
    1   21   19     -9.08      0.00
   21   22   19     19.96      0.00
   20   22   19     -1.24      0.00
   19   22   19     -8.09      0.00
   18   22   19     -7.23      0.00
   17   22   19     13.22      0.00
   16   22   19     12.43      0.00
   15   22   19    -10.65      0.00
   14   22   19      2.16      0.00
   13   22   19      9.56      0.00
   12   22   19     13.34      0.00
   11   22   19      3.61      0.00
   10   22   19      6.62      0.00
    9   22   19     -2.81      0.00
    8   22   19     -3.53      0.00
    7   22   19     -4.33      0.00
    6   22   19     -2.09      0.00
    5   22   19     -6.64      0.00
    4   22   19      7.46      0.00
    3   22   19     -0.76      0.00
    2   22   19    -12.78      0.00
    1   22   19      2.01      0.00
    0   22   19      7.20      0.00
   20   23   19     -2.70      0.00
   19   23   19    -18.68      0.00
   18   23   19     14.84      0.00
   17   23   19      4.66      0.00
   16   23   19      3.58      0.00
   15   23   19     13.11      0.00
   14   23   19     -1.30      0.00
   13   23   19      5.58      0.00
   12   23   19      5.24      0.00
   11   23   19     -6.70      0.00
   10   23   19      1.96      0.00
    9   23   19     -1.53      0.00
    8   23   19     -6.61      0.00
    7   23   19      1.30      0.00
    6   23   19     11.24      0.00
    5   23   19     -4.25      0.00
    4   23   19      3.39      0.00
    3   23   19      9.06      0.00
    2   23   19      5.87      0.00
    1   23   19      7.32      0.00
   19   24   19    -10.11      0.00
   18   24   19      2.54      0.00
   17   24   19    -11.05      0.00
   16   24   19      0.30      0.00
   15   24   19    -12.14      0.00
   14   24   19    -14.25      0.00
   13   24   19     -1.68      0.00
   12   24   19      3.23      0.00
   11   24   19      8.14      0.00
   10   24   19      1.46      0.00
    9   24   19      1.88      0.00
    8   24   19      6.00      0.00
    7   24   19      0.59      0.00
    6   24   19     -6.89      0.00
    5   24   19    -15.12      0.00
    4   24   19      2.78      0.00
    3   24   19      6.18      0.00
    2   24   19      4.42      0.00
    1   24   19      0.08      0.00
    0   24   19      3.59      0.00
   17   25   19      5.65      0.00
   16   25   19      0.92      0.00
   15   25   19     -5.79      0.00
   14   25   19      4.42      0.00
   13   25   19     10.83      0.00
   12   25   19     -5.00      0.00
   11   25   19     -1.08      0.00
   10   25   19      7.25      0.00
    9   25   19     -5.48      0.00
    8   25   19     -0.72      0.00
    7   25   19     -7.08      0.00
    6   25   19    -14.49      0.00
    5   25   19     -2.74      0.00
    4   25   19     -5.95      0.00
    3   25   19     -5.41      0.00
    2   25   19      6.27      0.00
    1   25   19      5.97      0.00
   16   26   19      9.85      0.00
   15   26   19     -7.67      0.00
   14   26   19     16.34      0.00
   13   26   19     -5.66      0.00
   12   26   19     -4.16      0.00
   11   26   19      4.12      0.00
   10   26   19     -2.19      0.00
    9   26   19     -2.51      0.00
    8   26   19     -2.76      0.00
    7   26   19     -3.90      0.00
    6   26   19     -9.29      0.00
    5   26   19     -1.72      0.00
    4   26   19     11.12      0.00
    3   26   19      4.99      0.00
    2   26   19      6.36      0.00
    1   26   19     -7.31      0.00
    0   26   19     -6.06      0.00
   14   27   19      1.70      0.00
   13   27   19      5.26      0.00
   12   27   19     -1.54      0.00
   11   27   19    -13.88      0.00
   10   27   19      1.60      0.00
    9   27   19      2.82      0.00
    8   27   19     -5.12      0.00
    7   27   19     -2.67      0.00
    6   27   19     -2.58      0.00
    5   27   19      3.15      0.00
    4   27   19      4.13      0.00
    3   27   19      1.53      0.00
    2   27   19      1.31      0.00
    1   27   19     -1.69      0.00
   12   28   19     -5.06      0.00
   11   28   19     -7.80      0.00
   10   28   19     15.50      0.00
    9   28   19    -10.86      0.00
    8   28   19     -8.37      0.00
    7   28   19      9.68      0.00
    6   28   19      2.13      0.00
    5   28   19      1.39      0.00
    4   28   19      9.68      0.00
    3   28   19     15.89      0.00
    2   28   19     -3.06      0.00
    1   28   19     -0.11      0.00
    0   28   19    -12.67      0.00
   10   29   19     -1.39      0.00
    9   29   19     -4.48      0.00
    8   29   19      3.89      0.00
    7   29   19      2.61      0.00
    6   29   19      4.76      0.00
    5   29   19     -5.71      0.00
    4   29   19     -5.84      0.00
    3   29   19     -1.00      0.00
    2   29   19      1.79      0.00
    1   29   19     -2.52      0.00
    7   30   19     -7.67      0.00
    6   30   19     13.09      0.00
    5   30   19      2.38      0.00
    4   30   19     13.51      0.00
    3   30   19     -6.93      0.00
    2   30   19     -5.51      0.00
    1   30   19    -22.82      0.00
    0   30   19     -4.24      0.00
    0    0   20     15.19      0.00
    1    1   20     -7.02      0.00
    1    2   20      8.14      0.00
    0    2   20      1.89      0.00
    2    2   20     -0.74      0.00
    2    3   20     -1.78      0.00
    1    3   20      2.28      0.00
    3    3   20     -9.07      0.00
    3    4   20      1.94      0.00
    2    4   20      1.09      0.00
    1    4   20      3.31      0.00
    0    4   20     -3.27      0.00
    4    4   20     -0.40      0.00
    4    5   20     -2.71      0.00
    3    5   20     -1.79      0.00
    2    5   20     -4.24      0.00
    1    5   20      1.44      0.00
    5    5   20      2.37      0.00
    5    6   20      7.18      0.00
    4    6   20      5.05      0.00
    3    6   20      4.00      0.00
    2    6   20      5.45      0.00
    1    6   20     -2.28      0.00
    0    6   20      4.56      0.00
    6    6   20     -3.13      0.00
    6    7   20     -9.12      0.00
    5    7   20      6.09      0.00
    4    7   20     -1.34      0.00
    3    7   20      3.63      0.00
    2    7   20      4.21      0.00
    1    7   20      2.15      0.00
    7    7   20      3.66      0.00
    7    8   20      1.60      0.00
    6    8   20      1.50      0.00
    5    8   20      2.91      0.00
    4    8   20      4.90      0.00
    3    8   20     -4.09      0.00
    2    8   20      3.42      0.00
    1    8   20     -4.86      0.00
    0    8   20      7.05      0.00
    8    8   20     -2.84      0.00
    8    9   20     -2.12      0.00
    7    9   20      6.72      0.00
    6    9   20      6.09      0.00
    5    9   20      1.42      0.00
    4    9   20     -6.48      0.00
    3    9   20     -5.09      0.00
    2    9   20      2.63      0.00
    1    9   20     -4.37      0.00
    9    9   20      1.09      0.00
    9   10   20      3.42      0.00
    8   10   20      1.06      0.00
    7   10   20      2.72      0.00
    6   10   20      0.21      0.00
    5   10   20     -7.24      0.00
    4   10   20      0.10      0.00
    3   10   20     -7.63      0.00
    2   10   20      1.49      0.00
    1   10   20     -6.44      0.00
    0   10   20     -4.56      0.00
   10   10   20     -1.95      0.00
   10   11   20     -0.98      0.00
    9   11   20      0.31      0.00
    8   11   20     -2.65      0.00
    7   11   20     -4.64      0.00
    6   11   20     -2.83      0.00
    5   11   20     -9.81      0.00
    4   11   20      4.18      0.00
    3   11   20     -2.84      0.00
    2   11   20     -2.06      0.00
    1   11   20      0.02      0.00
   11   11   20      2.84      0.00
   11   12   20      5.96      0.00
   10   12   20      2.34      0.00
    9   12   20     -6.23      0.00
    8   12   20      0.22      0.00
    7   12   20     -2.06      0.00
    6   12   20      1.52      0.00
    5   12   20      0.04      0.00
    4   12   20     -3.57      0.00
    3   12   20     -5.42      0.00
    2   12   20     -1.49      0.00
    1   12   20      0.60      0.00
    0   12   20     -0.24      0.00
   12   12   20     -3.66      0.00
   12   13   20     -0.41      0.00
   11   13   20     -1.81      0.00
   10   13   20     -1.90      0.00
    9   13   20     -3.64      0.00
    8   13   20     -6.51      0.00
    7   13   20     -0.17      0.00
    6   13   20      1.97      0.00
    5   13   20     -9.78      0.00
    4   13   20     -6.53      0.00
    3   13   20      0.09      0.00
    2   13   20      2.72      0.00
    1   13   20      7.71      0.00
   13   13   20     13.25      0.00
   13   14   20     -3.77      0.00
   12   14   20     -0.20      0.00
   11   14   20     -0.20      0.00
   10   14   20     -0.76      0.00
    9   14   20     -3.34      0.00
    8   14   20      5.58      0.00
    7   14   20      2.65      0.00
    6   14   20     -1.76      0.00
    5   14   20     -2.72      0.00
    4   14   20      2.47      0.00
    3   14   20     -2.08      0.00
    2   14   20     -1.30      0.00
    1   14   20     -2.08      0.00
    0   14   20    -10.54      0.00
   14   14   20      0.19      0.00
   14   15   20     10.48      0.00
   13   15   20     -6.09      0.00
   12   15   20      5.11      0.00
   11   15   20     -3.66      0.00
   10   15   20     -1.69      0.00
    9   15   20     12.62      0.00
    8   15   20     -2.77      0.00
    7   15   20     14.69      0.00
    6   15   20     -7.17      0.00
    5   15   20     -0.01      0.00
    4   15   20     -4.06      0.00
    3   15   20      4.01      0.00
    2   15   20     -0.88      0.00
    1   15   20      2.95      0.00
   15   15   20      2.98      0.00
   15   16   20     -3.92      0.00
   14   16   20      0.46      0.00
   13   16   20     14.56      0.00
   12   16   20      2.23      0.00
   11   16   20     -0.84      0.00
   10   16   20     -5.73      0.00
    9   16   20      2.91      0.00
    8   16   20     -0.76      0.00
    7   16   20     -4.67      0.00
    6   16   20      3.42      0.00
    5   16   20      1.29      0.00
    4   16   20      2.85      0.00
    3   16   20      8.66      0.00
    2   16   20      0.66      0.00
    1   16   20      4.23      0.00
    0   16   20     -1.11      0.00
   16   16   20      7.36      0.00
   16   17   20    -18.11      0.00
   15   17   20      0.52      0.00
   14   17   20     -7.77      0.00
   13   17   20     -9.37      0.00
   12   17   20     -3.20      0.00
   11   17   20     -5.35      0.00
   10   17   20      0.02      0.00
    9   17   20      0.36      0.00
    8   17   20      4.66      0.00
    7   17   20      0.99      0.00
    6   17   20      2.32      0.00
    5   17   20     -0.31      0.00
    4   17   20      0.73      0.00
    3   17   20     -3.74      0.00
    2   17   20     10.40      0.00
    1   17   20     -1.13      0.00
   17   17   20      5.07      0.00
   17   18   20      5.55      0.00
   16   18   20     -8.77      0.00
   15   18   20      6.37      0.00
   14   18   20      0.21      0.00
   13   18   20     22.03      0.00
   12   18   20     -6.89      0.00
   11   18   20     -5.34      0.00
   10   18   20      9.70      0.00
    9   18   20     -2.09      0.00
    8   18   20     -3.18      0.00
    7   18   20      2.15      0.00
    6   18   20      4.47      0.00
    5   18   20     -8.23      0.00
    4   18   20     -2.13      0.00
    3   18   20      3.23      0.00
    2   18   20      2.88      0.00
    1   18   20      3.18      0.00
    0   18   20     10.15      0.00
   18   18   20     15.16      0.00
   18   19   20     13.57      0.00
   17   19   20      1.77      0.00
   16   19   20      7.96      0.00
   15   19   20    -13.94      0.00
   14   19   20     -6.12      0.00
   13   19   20     -2.66      0.00
   12   19   20      7.21      0.00
   11   19   20      4.35      0.00
   10   19   20     -4.20      0.00
    9   19   20     -1.98      0.00
    8   19   20     -0.96      0.00
    7   19   20     -5.84      0.00
    6   19   20     -5.15      0.00
    5   19   20      5.23      0.00
    4   19   20     -1.13      0.00
    3   19   20     -0.83      0.00
    2   19   20      2.33      0.00
    1   19   20      6.86      0.00
   19   19   20     26.32      0.00
   19   20   20    -12.65      0.00
   18   20   20     12.49      0.00
   17   20   20     -5.53      0.00
   16   20   20    -10.69      0.00
   15   20   20    -15.85      0.00
   14   20   20     -7.30      0.00
   13   20   20      0.97      0.00
   12   20   20      4.84      0.00
   11   20   20      9.16      0.00
   10   20   20     16.56      0.00
    9   20   20     -1.69      0.00
    8   20   20     -9.81      0.00
    7   20   20     -3.31      0.00
    6   20   20     -0.88      0.00
    5   20   20      2.25      0.00
    4   20   20      5.87      0.00
    3   20   20     11.66      0.00
    2   20   20      2.02      0.00
    1   20   20      0.97      0.00
    0   20   20     -1.24      0.00
   20   20   20      7.05      0.00
   20   21   20    -14.55      0.00
   19   21   20      6.51      0.00
   18   21   20    -16.30      0.00
   17   21   20     -3.43      0.00
   16   21   20      9.80      0.00
   15   21   20      8.23      0.00
   14   21   20     -6.29      0.00
   13   21   20     -2.49      0.00
   12   21   20      9.02      0.00
   11   21   20      3.44      0.00
   10   21   20     12.68      0.00
    9   21   20      2.63      0.00
    8   21   20      9.23      0.00
    7   21   20     -2.52      0.00
    6   21   20     -5.43      0.00
    5   21   20      2.57      0.00
    4   21   20     -5.00      0.00
    3   21   20     -4.81      0.00
    2   21   20     -3.35      0.00
    1   21   20      1.05      0.00
   21   21   20     -9.00      0.00
   20   22   20    -24.83      0.00
   19   22   20     21.33      0.00
   18   22   20      4.44      0.00
   17   22   20    -14.61      0.00
   16   22   20      7.37      0.00
   15   22   20      8.75      0.00
   14   22   20     -2.28      0.00
   13   22   20    -21.79      0.00
   12   22   20     -3.28      0.00
   11   22   20      1.05      0.00
   10   22   20      1.25      0.00
    9   22   20     -0.73      0.00
    8   22   20      6.22      0.00
    7   22   20     -5.18      0.00
    6   22   20     -4.44      0.00
    5   22   20    -10.99      0.00
    4   22   20     -5.94      0.00
    3   22   20      2.98      0.00
    2   22   20     -6.56      0.00
    1   22   20      3.10      0.00
    0   22   20     -9.60      0.00
   19   23   20      9.56      0.00
   18   23   20     -2.73      0.00
   17   23   20    -12.46      0.00
   16   23   20    -17.11      0.00
   15   23   20     -6.59      0.00
   14   23   20    -14.00      0.00
   13   23   20      3.66      0.00
   12   23   20     -1.55      0.00
   11   23   20    -14.01      0.00
   10   23   20     11.37      0.00
    9   23   20      1.18      0.00
    8   23   20     -1.40      0.00
    7   23   20     10.51      0.00
    6   23   20      8.52      0.00
    5   23   20      1.20      0.00
    4   23   20      1.72      0.00
    3   23   20     -1.25      0.00
    2   23   20      2.23      0.00
    1   23   20    -15.33      0.00
   18   24   20     17.02      0.00
   17   24   20      1.05      0.00
   16   24   20      2.07      0.00
   15   24   20    -26.20      0.00
   14   24   20      4.36      0.00
   13   24   20     -4.73      0.00
   12   24   20     -2.58      0.00
   11   24   20     12.33      0.00
   10   24   20     -9.20      0.00
    9   24   20      4.33      0.00
    8   24   20      4.13      0.00
    7   24   20     -3.43      0.00
    6   24   20     -0.81      0.00
    5   24   20     -5.57      0.00
    4   24   20      1.68      0.00
    3   24   20      4.07      0.00
    2   24   20      1.85      0.00
    1   24   20      7.28      0.00
    0   24   20    -12.30      0.00
   16   25   20    -21.74      0.00
   15   25   20      5.97      0.00
   14   25   20     -3.00      0.00
   13   25   20     -2.26      0.00
   12   25   20     -1.97      0.00
   11   25   20    -15.38      0.00
   10   25   20     -1.81      0.00
    9   25   20      1.91      0.00
    8   25   20      4.61      0.00
    7   25   20     -0.96      0.00
    6   25   20     -4.11      0.00
    5   25   20      1.21      0.00
    4   25   20      0.12      0.00
    3   25   20      4.69      0.00
    2   25   20      0.51      0.00
    1   25   20      2.12      0.00
   15   26   20    -43.29      0.00
   14   26   20     -0.04      0.00
   13   26   20      8.74      0.00
   12   26   20      4.00      0.00
   11   26   20      1.53      0.00
   10   26   20     -4.97      0.00
    9   26   20     -1.12      0.00
    8   26   20     -3.55      0.00
    7   26   20     -5.97      0.00
    6   26   20     -3.86      0.00
    5   26   20     -7.29      0.00
    4   26   20     -2.72      0.00
    3   26   20    -12.98      0.00
    2   26   20      8.90      0.00
    1   26   20      1.28      0.00
    0   26   20    -13.82      0.00
   13   27   20     10.71      0.00
   12   27   20     -4.31      0.00
   11   27   20      2.63      0.00
   10   27   20      0.47      0.00
    9   27   20     -3.90      0.00
    8   27   20     -2.10      0.00
    7   27   20      9.09      0.00
    6   27   20      2.43      0.00
    5   27   20     -1.60      0.00
    4   27   20     -6.64      0.00
    3   27   20     -1.47      0.00
    2   27   20      3.31      0.00
    1   27   20      4.69      0.00
   10   28   20     -1.02      0.00
    9   28   20     -3.02      0.00
    8   28   20      1.30      0.00
    7   28   20      5.07      0.00
    6   28   20      8.94      0.00
    5   28   20     -4.96      0.00
    4   28   20      0.59      0.00
    3   28   20      0.77      0.00
    2   28   20      1.77      0.00
    1   28   20     -4.47      0.00
    0   28   20      4.51      0.00
    7   29   20     -6.04      0.00
    6   29   20     -5.09      0.00
    5   29   20     -8.20      0.00
    4   29   20      5.32      0.00
    3   29   20      0.06      0.00
    2   29   20     -9.44      0.00
    1   29   20    -10.06      0.00
    1    2   21     -5.27      0.00
    0    2   21     -0.11      0.00
    2    3   21     -0.55      0.00
    1    3   21      2.90      0.00
    3    4   21     -4.81      0.00
    2    4   21      5.99      0.00
    1    4   21     -0.83      0.00
    0    4   21      7.01      0.00
    4    5   21     -4.21      0.00
    3    5   21      1.89      0.00
    2    5   21     -0.53      0.00
    1    5   21      3.60      0.00
    5    6   21     -2.42      0.00
    4    6   21     -2.30      0.00
    3    6   21     10.73      0.00
    2    6   21     10.03      0.00
    1    6   21      6.24      0.00
    0    6   21      0.74      0.00
    6    7   21     -4.44      0.00
    5    7   21      3.56      0.00
    4    7   21      0.84      0.00
    3    7   21      1.68      0.00
    2    7   21      1.24      0.00
    1    7   21      6.57      0.00
    7    8   21     -6.10      0.00
    6    8   21     -4.99      0.00
    5    8   21      0.17      0.00
    4    8   21      8.44      0.00
    3    8   21     -5.07      0.00
    2    8   21      6.32      0.00
    1    8   21     -5.70      0.00
    0    8   21      1.26      0.00
    8    9   21     -0.27      0.00
    7    9   21      2.86      0.00
    6    9   21      0.66      0.00
    5    9   21     -6.43      0.00
    4    9   21     -2.86      0.00
    3    9   21     13.83      0.00
    2    9   21     -1.34      0.00
    1    9   21     -9.34      0.00
    9   10   21     -1.52      0.00
    8   10   21      3.59      0.00
    7   10   21      2.25      0.00
    6   10   21     -1.56      0.00
    5   10   21      0.19      0.00
    4   10   21      1.10      0.00
    3   10   21     -4.24      0.00
    2   10   21      1.00      0.00
    1   10   21     -5.88      0.00
    0   10   21     -0.37      0.00
   10   11   21      0.23      0.00
    9   11   21      9.18      0.00
    8   11   21      0.97      0.00
    7   11   21    -10.75      0.00
    6   11   21     -0.80      0.00
    5   11   21      0.41      0.00
    4   11   21      2.92      0.00
    3   11   21      0.64      0.00
    2   11   21     -6.84      0.00
    1   11   21      4.85      0.00
   11   12   21     -2.66      0.00
   10   12   21     -2.75      0.00
    9   12   21      1.13      0.00
    8   12   21     -1.17      0.00
    7   12   21     -0.82      0.00
    6   12   21     -4.35      0.00
    5   12   21      3.53      0.00
    4   12   21     -8.49      0.00
    3   12   21     -5.46      0.00
    2   12   21      1.62      0.00
    1   12   21     -5.70      0.00
    0   12   21     14.89      0.00
   12   13   21     -4.64      0.00
   11   13   21      4.03      0.00
   10   13   21      7.71      0.00
    9   13   21     -0.40      0.00
    8   13   21      0.47      0.00
    7   13   21     -4.30      0.00
    6   13   21      0.67      0.00
    5   13   21     -5.23      0.00
    4   13   21     -2.87      0.00
    3   13   21      2.34      0.00
    2   13   21     -4.02      0.00
    1   13   21     -6.02      0.00
   13   14   21     15.68      0.00
   12   14   21     12.49      0.00
   11   14   21      2.63      0.00
   10   14   21     -1.76      0.00
    9   14   21     -2.77      0.00
    8   14   21      1.26      0.00
    7   14   21      5.28      0.00
    6   14   21      7.44      0.00
    5   14   21     -2.68      0.00
    4   14   21     -4.40      0.00
    3   14   21      3.05      0.00
    2   14   21     -2.16      0.00
    1   14   21     -0.31      0.00
    0   14   21     -0.28      0.00
   14   15   21     10.23      0.00
   13   15   21     -1.17      0.00
   12   15   21     -3.41      0.00
   11   15   21      7.45      0.00
   10   15   21     -7.03      0.00
    9   15   21      4.97      0.00
    8   15   21     -8.56      0.00
    7   15   21      5.65      0.00
    6   15   21     -3.79      0.00
    5   15   21      0.71      0.00
    4   15   21     -2.13      0.00
    3   15   21      1.70      0.00
    2   15   21     -1.54      0.00
    1   15   21      3.68      0.00
   15   16   21    -16.42      0.00
   14   16   21     -3.62      0.00
   13   16   21      2.84      0.00
   12   16   21     -2.40      0.00
   11   16   21      6.22      0.00
   10   16   21     -0.25      0.00
    9   16   21     -2.61      0.00
    8   16   21     -1.05      0.00
    7   16   21      2.26      0.00
    6   16   21     -3.10      0.00
    5   16   21      1.26      0.00
    4   16   21     -1.70      0.00
    3   16   21     -4.80      0.00
    2   16   21     -5.37      0.00
    1   16   21     -5.30      0.00
    0   16   21     -2.16      0.00
   16   17   21      2.25      0.00
   15   17   21      4.33      0.00
   14   17   21    -18.79      0.00
   13   17   21     -7.90      0.00
   12   17   21      4.13      0.00
   11   17   21     -5.21      0.00
   10   17   21      8.83      0.00
    9   17   21    -12.14      0.00
    8   17   21     -4.12      0.00
    7   17   21    -11.81      0.00
    6   17   21     -3.36      0.00
    5   17   21      2.30      0.00
    4   17   21      6.24      0.00
    3   17   21     -4.05      0.00
    2   17   21      0.30      0.00
    1   17   21     -1.82      0.00
   17   18   21     20.24      0.00
   16   18   21      8.27      0.00
   15   18   21     -5.06      0.00
   14   18   21     -6.87      0.00
   13   18   21      1.47      0.00
   12   18   21     -6.36      0.00
   11   18   21     -0.71      0.00
   10   18   21      4.54      0.00
    9   18   21     -1.53      0.00
    8   18   21      7.28      0.00
    7   18   21      7.79      0.00
    6   18   21     -8.09      0.00
    5   18   21      7.28      0.00
    4   18   21     -1.50      0.00
    3   18   21     -2.69      0.00
    2   18   21     -3.47      0.00
    1   18   21      2.20      0.00
    0   18   21     -7.46      0.00
   18   19   21    -31.05      0.00
   17   19   21      0.49      0.00
   16   19   21    -29.18      0.00
   15   19   21     16.26      0.00
   14   19   21     -7.39      0.00
   13   19   21     -0.75      0.00
   12   19   21      5.58      0.00
   11   19   21      2.96      0.00
   10   19   21     -0.79      0.00
    9   19   21     10.15      0.00
    8   19   21     -0.22      0.00
    7   19   21      6.16      0.00
    6   19   21    -13.86      0.00
    5   19   21     -1.30      0.00
    4   19   21      6.32      0.00
    3   19   21     -5.65      0.00
    2   19   21     -2.62      0.00
    1   19   21     -0.86      0.00
   19   20   21    -15.53      0.00
   18   20   21    -10.60      0.00
   17   20   21     -0.82      0.00
   16   20   21    -11.17      0.00
   15   20   21    -13.67      0.00
   14   20   21     -1.87      0.00
   13   20   21     16.41      0.00
   12   20   21     -8.86      0.00
   11   20   21     -2.35      0.00
   10   20   21      6.02      0.00
    9   20   21      6.38      0.00
    8   20   21      0.97      0.00
    7   20   21     10.63      0.00
    6   20   21     -1.56      0.00
    5   20   21     -5.01      0.00
    4   20   21      1.78      0.00
    3   20   21      1.00      0.00
    2   20   21     -1.85      0.00
    1   20   21      4.49      0.00
    0   20   21      5.48      0.00
   20   21   21     -7.50      0.00
   19   21   21     -3.05      0.00
   18   21   21     -5.07      0.00
   17   21   21      9.52      0.00
   16   21   21     -8.66      0.00
   15   21   21      0.30      0.00
   14   21   21      7.83      0.00
   13   21   21      4.93      0.00
   12   21   21      0.04      0.00
   11   21   21     -5.06      0.00
   10   21   21    -10.09      0.00
    9   21   21     18.11      0.00
    8   21   21     -5.20      0.00
    7   21   21    -12.32      0.00
    6   21   21      8.90      0.00
    5   21   21     -1.74      0.00
    4   21   21     -1.46      0.00
    3   21   21     -0.18      0.00
    2   21   21     -1.76      0.00
    1   21   21     -5.14      0.00
   19   22   21     33.36      0.00
   18   22   21    -12.30      0.00
   17   22   21      8.78      0.00
   16   22   21     10.86      0.00
   15   22   21     -9.39      0.00
   14   22   21      4.28      0.00
   13   22   21     -0.16      0.00
   12   22   21      0.09      0.00
   11   22   21      1.79      0.00
   10   22   21      9.73      0.00
    9   22   21    -11.75      0.00
    8   22   21      3.71      0.00
    7   22   21     -9.59      0.00
    6   22   21     -2.01      0.00
    5   22   21      1.54      0.00
    4   22   21      0.66      0.00
    3   22   21     -1.70      0.00
    2   22   21     -0.49      0.00
    1   22   21      0.36      0.00
    0   22   21     -0.45      0.00
   17   23   21     22.36      0.00
   16   23   21     20.53      0.00
   15   23   21    -11.10      0.00
   14   23   21     -8.18      0.00
   13   23   21      2.48      0.00
   12   23   21      6.99      0.00
   11   23   21    -19.42      0.00
   10   23   21     -7.62      0.00
    9   23   21      8.06      0.00
    8   23   21     -6.69      0.00
    7   23   21     -1.31      0.00
    6   23   21      9.78      0.00
    5   23   21     -6.04      0.00
    4   23   21     -0.71      0.00
    3   23   21      0.52      0.00
    2   23   21     -0.87      0.00
    1   23   21      1.76      0.00
   16   24   21     -7.04      0.00
   15   24   21      3.77      0.00
   14   24   21    -10.79      0.00
   13   24   21      5.68      0.00
   12   24   21     -7.18      0.00
   11   24   21    -12.31      0.00
   10   24   21     -7.22      0.00
    9   24   21      5.26      0.00
    8   24   21      6.72      0.00
    7   24   21     -1.28      0.00
    6   24   21      2.06      0.00
    5   24   21     -6.36      0.00
    4   24   21      9.63      0.00
    3   24   21    -13.13      0.00
    2   24   21     -5.01      0.00
    1   24   21      3.81      0.00
    0   24   21     -1.67      0.00
   15   25   21      3.08      0.00
   14   25   21     16.67      0.00
   13   25   21    -13.61      0.00
   12   25   21      3.97      0.00
   11   25   21      9.05      0.00
   10   25   21      4.19      0.00
    9   25   21     -8.52      0.00
    8   25   21     -3.51      0.00
    7   25   21      4.01      0.00
    6   25   21     -3.35      0.00
    5   25   21      0.42      0.00
    4   25   21      2.19      0.00
    3   25   21     -3.01      0.00
    2   25   21      4.73      0.00
    1   25   21     -2.89      0.00
   13   26   21     -4.73      0.00
   12   26   21     -4.47      0.00
   11   26   21     10.86      0.00
   10   26   21     11.32      0.00
    9   26   21     -1.13      0.00
    8   26   21      0.83      0.00
    7   26   21    -14.47      0.00
    6   26   21     -1.42      0.00
    5   26   21     10.15      0.00
    4   26   21      7.14      0.00
    3   26   21      2.13      0.00
    2   26   21      7.77      0.00
    1   26   21     -0.71      0.00
    0   26   21     -2.50      0.00
   11   27   21     -1.69      0.00
   10   27   21     12.24      0.00
    9   27   21      0.52      0.00
    8   27   21     -7.99      0.00
    7   27   21      5.51      0.00
    6   27   21     -3.93      0.00
    5   27   21    -10.81      0.00
    4   27   21      3.90      0.00
    3   27   21     -1.56      0.00
    2   27   21      2.47      0.00
    1   27   21      9.53      0.00
    8   28   21      0.14      0.00
    7   28   21     -9.44      0.00
    6   28   21     -0.74      0.00
    5   28   21     -1.85      0.00
    4   28   21     -6.33      0.00
    3   28   21     12.87      0.00
    2   28   21     -2.96      0.00
    1   28   21     -2.16      0.00
    0   28   21      6.32      0.00
    2   29   21      4.77      0.00
    1   29   21     18.37      0.00
    0    0   22     12.74      0.00
    1    1   22     -7.71      0.00
    1    2   22     -3.95      0.00
    0    2   22      0.75      0.00
    2    2   22      0.66      0.00
    2    3   22     -1.29      0.00
    1    3   22      6.86      0.00
    3    3   22    -15.02      0.00
    3    4   22      9.27      0.00
    2    4   22      6.62      0.00
    1    4   22      3.79      0.00
    0    4   22      5.73      0.00
    4    4   22      6.30      0.00
    4    5   22     -0.08      0.00
    3    5   22     -4.84      0.00
    2    5   22     -4.41      0.00
    1    5   22      6.60      0.00
    5    5   22    -10.50      0.00
    5    6   22      2.96      0.00
    4    6   22    -12.64      0.00
    3    6   22      2.64      0.00
    2    6   22      5.28      0.00
    1    6   22      6.83      0.00
    0    6   22      9.03      0.00
    6    6   22     -2.17      0.00
    6    7   22     -0.83      0.00
    5    7   22      1.91      0.00
    4    7   22     -6.63      0.00
    3    7   22     -1.57      0.00
    2    7   22      6.26      0.00
    1    7   22     -5.16      0.00
    7    7   22     -1.52      0.00
    7    8   22      1.10      0.00
    6    8   22     -1.78      0.00
    5    8   22     -9.66      0.00
    4    8   22     -3.73      0.00
    3    8   22     -2.50      0.00
    2    8   22      8.40      0.00
    1    8   22      3.01      0.00
    0    8   22    -10.83      0.00
    8    8   22     -1.81      0.00
    8    9   22     -0.86      0.00
    7    9   22      2.18      0.00
    6    9   22     -0.61      0.00
    5    9   22     -1.73      0.00
    4    9   22      6.16      0.00
    3    9   22     -1.40      0.00
    2    9   22      0.74      0.00
    1    9   22      1.09      0.00
    9    9   22     -1.22      0.00
    9   10   22      2.08      0.00
    8   10   22      1.32      0.00
    7   10   22      0.67      0.00
    6   10   22     -7.21      0.00
    5   10   22      7.42      0.00
    4   10   22      3.72      0.00
    3   10   22      1.84      0.00
    2   10   22     -0.57      0.00
    1   10   22     -3.97      0.00
    0   10   22      1.71      0.00
   10   10   22      4.18      0.00
   10   11   22     -0.09      0.00
    9   11   22      0.39      0.00
    8   11   22     -3.21      0.00
    7   11   22     -0.79      0.00
    6   11   22      5.07      0.00
    5   11   22      0.20      0.00
    4   11   22      1.64      0.00
    3   11   22     -1.54      0.00
    2   11   22     -5.06      0.00
    1   11   22     -0.17      0.00
   11   11   22     -6.96      0.00
   11   12   22     -0.36      0.00
   10   12   22     -0.49      0.00
    9   12   22     -3.80      0.00
    8   12   22      1.34      0.00
    7   12   22     -1.65      0.00
    6   12   22      2.52      0.00
    5   12   22      9.30      0.00
    4   12   22     -5.29      0.00
    3   12   22     -5.03      0.00
    2   12   22     -2.20      0.00
    1   12   22      0.64      0.00
    0   12   22      5.15      0.00
   12   12   22      9.19      0.00
   12   13   22     -0.01      0.00
   11   13   22     -4.64      0.00
   10   13   22     -0.24      0.00
    9   13   22      1.68      0.00
    8   13   22     -5.28      0.00
    7   13   22      0.86      0.00
    6   13   22      5.66      0.00
    5   13   22     -2.14      0.00
    4   13   22     11.87      0.00
    3   13   22     -0.61      0.00
    2   13   22      5.31      0.00
    1   13   22      3.27      0.00
   13   13   22     12.36      0.00
   13   14   22      8.82      0.00
   12   14   22     -4.69      0.00
   11   14   22     -1.96      0.00
   10   14   22      3.80      0.00
    9   14   22      4.98      0.00
    8   14   22     -4.60      0.00
    7   14   22     10.73      0.00
    6   14   22      2.47      0.00
    5   14   22      2.74      0.00
    4   14   22     -1.44      0.00
    3   14   22     -4.86      0.00
    2   14   22     -0.16      0.00
    1   14   22     -2.46      0.00
    0   14   22     -4.06      0.00
   14   14   22      0.55      0.00
   14   15   22     19.32      0.00
   13   15   22      0.53      0.00
   12   15   22      9.32      0.00
   11   15   22      7.20      0.00
   10   15   22     -2.36      0.00
    9   15   22     -0.51      0.00
    8   15   22      2.74      0.00
    7   15   22      5.14      0.00
    6   15   22     -2.89      0.00
    5   15   22      1.93      0.00
    4   15   22      3.12      0.00
    3   15   22      0.19      0.00
    2   15   22     -4.98      0.00
    1   15   22      2.32      0.00
   15   15   22      2.01      0.00
   15   16   22      2.31      0.00
   14   16   22      1.91      0.00
   13   16   22      2.27      0.00
   12   16   22     -9.85      0.00
   11   16   22      6.73      0.00
   10   16   22     -3.13      0.00
    9   16   22      3.03      0.00
    8   16   22     -6.95      0.00
    7   16   22      1.87      0.00
    6   16   22     -8.39      0.00
    5   16   22      4.00      0.00
    4   16   22     -1.50      0.00
    3   16   22      1.05      0.00
    2   16   22     -2.69      0.00
    1   16   22      1.71      0.00
    0   16   22      1.73      0.00
   16   16   22     27.70      0.00
   16   17   22    -10.52      0.00
   15   17   22     -5.78      0.00
   14   17   22     -1.63      0.00
   13   17   22      1.48      0.00
   12   17   22     -2.91      0.00
   11   17   22     -3.67      0.00
   10   17   22     -0.75      0.00
    9   17   22      3.25      0.00
    8   17   22     -2.43      0.00
    7   17   22      5.02      0.00
    6   17   22     -4.41      0.00
    5   17   22     -6.32      0.00
    4   17   22      7.88      0.00
    3   17   22     -1.77      0.00
    2   17   22     -3.22      0.00
    1   17   22      1.06      0.00
   17   17   22     -0.50      0.00
   17   18   22      9.87      0.00
   16   18   22    -14.41      0.00
   15   18   22     20.30      0.00
   14   18   22    -18.47      0.00
   13   18   22      5.74      0.00
   12   18   22     10.89      0.00
   11   18   22     -4.69      0.00
   10   18   22      2.34      0.00
    9   18   22     -1.90      0.00
    8   18   22     -0.50      0.00
    7   18   22     -4.55      0.00
    6   18   22     -5.36      0.00
    5   18   22     -7.80      0.00
    4   18   22     -0.56      0.00
    3   18   22     -7.98      0.00
    2   18   22     -0.21      0.00
    1   18   22     -8.07      0.00
    0   18   22      1.29      0.00
   18   18   22     13.68      0.00
   18   19   22     15.00      0.00
   17   19   22      0.15      0.00
   16   19   22     -1.44      0.00
   15   19   22     -9.53      0.00
   14   19   22    -17.64      0.00
   13   19   22     -3.99      0.00
   12   19   22      2.27      0.00
   11   19   22     -4.90      0.00
   10   19   22     -1.97      0.00
    9   19   22     -1.21      0.00
    8   19   22      4.97      0.00
    7   19   22     -3.56      0.00
    6   19   22     -3.54      0.00
    5   19   22     -1.38      0.00
    4   19   22     -5.73      0.00
    3   19   22     -0.35      0.00
    2   19   22     -4.23      0.00
    1   19   22     -1.04      0.00
   19   19   22      2.75      0.00
   19   20   22      6.42      0.00
   18   20   22     -6.05      0.00
   17   20   22    -15.21      0.00
   16   20   22      5.73      0.00
   15   20   22    -10.41      0.00
   14   20   22      6.19      0.00
   13   20   22      8.32      0.00
   12   20   22     -8.10      0.00
   11   20   22     -0.15      0.00
   10   20   22      2.63      0.00
    9   20   22      1.70      0.00
    8   20   22     -3.35      0.00
    7   20   22      1.65      0.00
    6   20   22     -0.81      0.00
    5   20   22      1.25      0.00
    4   20   22      1.62      0.00
    3   20   22      3.74      0.00
    2   20   22     -2.47      0.00
    1   20   22      3.21      0.00
    0   20   22      7.66      0.00
   18   21   22     -8.01      0.00
   17   21   22      9.23      0.00
   16   21   22     24.40      0.00
   15   21   22     26.25      0.00
   14   21   22     12.07      0.00
   13   21   22     -9.70      0.00
   12   21   22     12.06      0.00
   11   21   22     11.21      0.00
   10   21   22      4.06      0.00
    9   21   22      2.54      0.00
    8   21   22     -4.62      0.00
    7   21   22     -5.82      0.00
    6   21   22     -0.11      0.00
    5   21   22      1.92      0.00
    4   21   22     -3.61      0.00
    3   21   22     -0.63      0.00
    2   21   22     -3.11      0.00
    1   21   22      4.40      0.00
   17   22   22     -1.78      0.00
   16   22   22     -8.66      0.00
   15   22   22      8.03      0.00
   14   22   22     -3.29      0.00
   13   22   22     12.15      0.00
   12   22   22     14.68      0.00
   11   22   22     18.48      0.00
   10   22   22     -5.56      0.00
    9   22   22    -17.64      0.00
    8   22   22     -2.31      0.00
    7   22   22     -1.80      0.00
    6   22   22      7.17      0.00
    5   22   22     -3.81      0.00
    4   22   22      0.62      0.00
    3   22   22     -1.19      0.00
    2   22   22     -6.17      0.00
    1   22   22      4.50      0.00
    0   22   22     -2.93      0.00
   16   23   22     12.96      0.00
   15   23   22      3.03      0.00
   14   23   22     26.36      0.00
   13   23   22      2.85      0.00
   12   23   22      8.23      0.00
   11   23   22     -1.62      0.00
   10   23   22     -3.40      0.00
    9   23   22     -2.12      0.00
    8   23   22      3.51      0.00
    7   23   22      8.48      0.00
    6   23   22     12.94      0.00
    5   23   22      3.90      0.00
    4   23   22      3.35      0.00
    3   23   22     -5.12      0.00
    2   23   22     -3.81      0.00
    1   23   22     10.08      0.00
   14   24   22     -1.99      0.00
   13   24   22     -3.24      0.00
   12   24   22    -16.39      0.00
   11   24   22      9.47      0.00
   10   24   22     18.93      0.00
    9   24   22      7.12      0.00
    8   24   22      1.70      0.00
    7   24   22     -4.80      0.00
    6   24   22     -0.82      0.00
    5   24   22     -5.11      0.00
    4   24   22      5.07      0.00
    3   24   22      1.27      0.00
    2   24   22      5.81      0.00
    1   24   22      1.88      0.00
    0   24   22      4.21      0.00
   13   25   22     12.17      0.00
   12   25   22      7.57      0.00
   11   25   22     -5.41      0.00
   10   25   22      4.96      0.00
    9   25   22     13.33      0.00
    8   25   22     10.01      0.00
    7   25   22      2.24      0.00
    6   25   22     -1.45      0.00
    5   25   22     -0.95      0.00
    4   25   22     -1.21      0.00
    3   25   22      1.20      0.00
    2   25   22      7.61      0.00
    1   25   22     11.72      0.00
   11   26   22      1.19      0.00
   10   26   22     -2.92      0.00
    9   26   22     -7.57      0.00
    8   26   22     -4.14      0.00
    7   26   22     -2.48      0.00
    6   26   22     -2.61      0.00
    5   26   22     17.27      0.00
    4   26   22     -0.34      0.00
    3   26   22      4.43      0.00
    2   26   22     -3.67      0.00
    1   26   22    -10.05      0.00
    0   26   22     -2.39      0.00
    8   27   22     11.68      0.00
    7   27   22      2.92      0.00
    6   27   22      4.41      0.00
    5   27   22      3.46      0.00
    4   27   22     -0.32      0.00
    3   27   22      4.61      0.00
    2   27   22      9.58      0.00
    1   27   22    -12.99      0.00
    3   28   22      6.31      0.00
    2   28   22     12.21      0.00
    1   28   22      5.17      0.00
    0   28   22     -1.38      0.00
    1    2   23     -0.63      0.00
    0    2   23    -10.61      0.00
    2    3   23     -3.08      0.00
    1    3   23     -0.69      0.00
    3    4   23     -6.63      0.00
    2    4   23      1.59      0.00
    1    4   23      1.61      0.00
    0    4   23      9.62      0.00
    4    5   23     -2.24      0.00
    3    5   23      2.72      0.00
    2    5   23     -7.23      0.00
    1    5   23     -1.73      0.00
    5    6   23      6.55      0.00
    4    6   23     -2.82      0.00
    3    6   23      5.16      0.00
    2    6   23     -9.24      0.00
    1    6   23      6.77      0.00
    0    6   23      1.60      0.00
    6    7   23      2.91      0.00
    5    7   23     -1.80      0.00
    4    7   23     -1.26      0.00
    3    7   23     -8.86      0.00
    2    7   23     -1.80      0.00
    1    7   23      1.43      0.00
    7    8   23     -0.37      0.00
    6    8   23    -11.17      0.00
    5    8   23     -2.29      0.00
    4    8   23     -4.48      0.00
    3    8   23      2.90      0.00
    2    8   23      0.50      0.00
    1    8   23     -6.01      0.00
    0    8   23     -0.28      0.00
    8    9   23      0.81      0.00
    7    9   23     -2.56      0.00
    6    9   23     -3.00      0.00
    5    9   23      1.49      0.00
    4    9   23     -2.31      0.00
    3    9   23     -0.70      0.00
    2    9   23      1.65      0.00
    1    9   23     -4.05      0.00
    9   10   23      0.16      0.00
    8   10   23     -2.92      0.00
    7   10   23      3.87      0.00
    6   10   23     -1.34      0.00
    5   10   23      7.54      0.00
    4   10   23      2.06      0.00
    3   10   23     -4.52      0.00
    2   10   23      0.37      0.00
    1   10   23     -9.23      0.00
    0   10   23      4.29      0.00
   10   11   23     11.38      0.00
    9   11   23      4.79      0.00
    8   11   23     -2.41      0.00
    7   11   23      0.55      0.00
    6   11   23     -2.06      0.00
    5   11   23      2.31      0.00
    4   11   23      2.08      0.00
    3   11   23      3.84      0.00
    2   11   23      0.61      0.00
    1   11   23    -11.69      0.00
   11   12   23     -0.06      0.00
   10   12   23    -12.46      0.00
    9   12   23      5.62      0.00
    8   12   23     -4.24      0.00
    7   12   23     -1.91      0.00
    6   12   23      8.21      0.00
    5   12   23     -1.96      0.00
    4   12   23      3.55      0.00
    3   12   23     -5.34      0.00
    2   12   23     -3.39      0.00
    1   12   23      2.76      0.00
    0   12   23     -2.22      0.00
   12   13   23     11.19      0.00
   11   13   23      0.05      0.00
   10   13   23     -0.55      0.00
    9   13   23     -5.59      0.00
    8   13   23     -1.33      0.00
    7   13   23      2.77      0.00
    6   13   23     -0.80      0.00
    5   13   23     -7.56      0.00
    4   13   23     -5.48      0.00
    3   13   23      4.58      0.00
    2   13   23      0.63      0.00
    1   13   23     -3.65      0.00
   13   14   23      5.90      0.00
   12   14   23     -0.81      0.00
   11   14   23      3.26      0.00
   10   14   23     -4.81      0.00
    9   14   23      3.96      0.00
    8   14   23      0.99      0.00
    7   14   23      5.05      0.00
    6   14   23      8.41      0.00
    5   14   23      1.39      0.00
    4   14   23      5.54      0.00
    3   14   23     -0.06      0.00
    2   14   23      0.88      0.00
    1   14   23     -4.03      0.00
    0   14   23     -9.39      0.00
   14   15   23     16.48      0.00
   13   15   23     -3.77      0.00
   12   15   23    -11.67      0.00
   11   15   23     -6.04      0.00
   10   15   23     -2.44      0.00
    9   15   23     -0.02      0.00
    8   15   23     -0.88      0.00
    7   15   23      2.29      0.00
    6   15   23      0.12      0.00
    5   15   23     -4.54      0.00
    4   15   23      0.91      0.00
    3   15   23      7.48      0.00
    2   15   23     -1.99      0.00
    1   15   23      2.95      0.00
   15   16   23     12.68      0.00
   14   16   23     -0.41      0.00
   13   16   23     -2.29      0.00
   12   16   23     -4.47      0.00
   11   16   23    -13.20      0.00
   10   16   23     -3.97      0.00
    9   16   23     -9.23      0.00
    8   16   23     -4.91      0.00
    7   16   23      4.77      0.00
    6   16   23     -6.92      0.00
    5   16   23      3.07      0.00
    4   16   23      0.97      0.00
    3   16   23      4.11      0.00
    2   16   23     -1.25      0.00
    1   16   23      2.01      0.00
    0   16   23      5.67      0.00
   16   17   23     12.98      0.00
   15   17   23      5.80      0.00
   14   17   23      6.51      0.00
   13   17   23     14.16      0.00
   12   17   23    -11.66      0.00
   11   17   23    -17.62      0.00
   10   17   23     -3.65      0.00
    9   17   23     -0.56      0.00
    8   17   23     11.32      0.00
    7   17   23     -3.87      0.00
    6   17   23     -7.50      0.00
    5   17   23      1.08      0.00
    4   17   23      2.31      0.00
    3   17   23      3.32      0.00
    2   17   23      4.58      0.00
    1   17   23     -0.36      0.00
   17   18   23     18.84      0.00
   16   18   23      5.89      0.00
   15   18   23     11.77      0.00
   14   18   23     -0.77      0.00
   13   18   23     11.57      0.00
   12   18   23     -0.11      0.00
   11   18   23      7.83      0.00
   10   18   23      4.97      0.00
    9   18   23      6.28      0.00
    8   18   23     -1.55      0.00
    7   18   23      5.26      0.00
    6   18   23     -0.31      0.00
    5   18   23      0.87      0.00
    4   18   23     -0.63      0.00
    3   18   23      2.41      0.00
    2   18   23      5.22      0.00
    1   18   23      2.64      0.00
    0   18   23      3.52      0.00
   18   19   23     -8.94      0.00
   17   19   23     14.09      0.00
   16   19   23     -9.42      0.00
   15   19   23     19.08      0.00
   14   19   23     12.04      0.00
   13   19   23     -2.95      0.00
   12   19   23     -1.75      0.00
   11   19   23     11.05      0.00
   10   19   23     -1.76      0.00
    9   19   23      7.69      0.00
    8   19   23     -9.22      0.00
    7   19   23     -9.55      0.00
    6   19   23     -4.85      0.00
    5   19   23      8.28      0.00
    4   19   23     -1.13      0.00
    3   19   23      1.14      0.00
    2   19   23      6.10      0.00
    1   19   23     -0.16      0.00
   18   20   23     -6.88      0.00
   17   20   23     -2.95      0.00
   16   20   23     23.11      0.00
   15   20   23      8.92      0.00
   14   20   23     -9.48      0.00
   13   20   23     -0.66      0.00
   12   20   23     -6.93      0.00
   11   20   23     -9.01      0.00
   10   20   23     13.46      0.00
    9   20   23     12.18      0.00
    8   20   23      2.97      0.00
    7   20   23    -17.10      0.00
    6   20   23    -10.35      0.00
    5   20   23     12.81      0.00
    4   20   23     -1.22      0.00
    3   20   23      1.53      0.00
    2   20   23      1.96      0.00
    1   20   23      3.06      0.00
    0   20   23      0.19      0.00
   17   21   23     11.41      0.00
   16   21   23    -12.64      0.00
   15   21   23    -24.94      0.00
   14   21   23    -16.16      0.00
   13   21   23     26.40      0.00
   12   21   23     10.42      0.00
   11   21   23    -12.14      0.00
   10   21   23     -9.58      0.00
    9   21   23      7.63      0.00
    8   21   23     -9.57      0.00
    7   21   23     -7.47      0.00
    6   21   23     11.94      0.00
    5   21   23     -3.34      0.00
    4   21   23      7.86      0.00
    3   21   23      0.82      0.00
    2   21   23      9.09      0.00
    1   21   23     -2.05      0.00
   16   22   23    -19.39      0.00
   15   22   23    -19.84      0.00
   14   22   23     17.20      0.00
   13   22   23      9.95      0.00
   12   22   23     12.33      0.00
   11   22   23     -3.54      0.00
   10   22   23     -4.83      0.00
    9   22   23      1.98      0.00
    8   22   23     -4.29      0.00
    7   22   23     -1.65      0.00
    6   22   23     17.57      0.00
    5   22   23     12.25      0.00
    4   22   23      6.30      0.00
    3   22   23     -2.24      0.00
    2   22   23      0.16      0.00
    1   22   23      2.96      0.00
    0   22   23      1.76      0.00
   14   23   23     -5.98      0.00
   13   23   23     10.65      0.00
   12   23   23      4.43      0.00
   11   23   23     -5.61      0.00
   10   23   23     -9.57      0.00
    9   23   23     -1.49      0.00
    8   23   23      9.19      0.00
    7   23   23      1.55      0.00
    6   23   23     -0.23      0.00
    5   23   23     -3.10      0.00
    4   23   23      4.73      0.00
    3   23   23      5.07      0.00
    2   23   23     -0.89      0.00
    1   23   23     -0.81      0.00
   12   24   23     18.65      0.00
   11   24   23     -8.52      0.00
   10   24   23     -5.99      0.00
    9   24   23    -11.86      0.00
    8   24   23      6.24      0.00
    7   24   23     15.03      0.00
    6   24   23      2.70      0.00
    5   24   23     -4.13      0.00
    4   24   23      6.41      0.00
    3   24   23     -0.57      0.00
    2   24   23      2.44      0.00
    1   24   23      0.62      0.00
    0   24   23     -1.14      0.00
   10   25   23      7.58      0.00
    9   25   23      9.46      0.00
    8   25   23     -2.30      0.00
    7   25   23    -12.92      0.00
    6   25   23      9.95      0.00
    5   25   23      2.65      0.00
    4   25   23      8.63      0.00
    3   25   23      0.03      0.00
    2   25   23      4.56      0.00
    1   25   23      1.03      0.00
    8   26   23     -5.35      0.00
    7   26   23      3.53      0.00
    6   26   23      3.23      0.00
    5   26   23     -2.98      0.00
    4   26   23     15.06      0.00
    3   26   23     -6.55      0.00
    2   26   23     -5.89      0.00
    1   26   23     -4.16      0.00
    0   26   23      1.04      0.00
    3   27   23     -4.06      0.00
    2   27   23    -10.84      0.00
    1   27   23     -3.47      0.00
    0    0   24     20.72      0.00
    1    1   24    -14.19      0.00
    1    2   24    -14.18      0.00
    0    2   24      0.95      0.00
    2    2   24      4.89      0.00
    2    3   24     -4.14      0.00
    1    3   24      2.00      0.00
    3    3   24    -10.08      0.00
    3    4   24     -0.08      0.00
    2    4   24      5.42      0.00
    1    4   24     -8.33      0.00
    0    4   24     -2.19      0.00
    4    4   24      1.91      0.00
    4    5   24      1.07      0.00
    3    5   24      0.43      0.00
    2    5   24     -4.50      0.00
    1    5   24     -2.89      0.00
    5    5   24     -8.14      0.00
    5    6   24     -3.94      0.00
    4    6   24     -4.64      0.00
    3    6   24      3.83      0.00
    2    6   24      2.05      0.00
    1    6   24     -0.67      0.00
    0    6   24     -5.54      0.00
    6    6   24     -5.97      0.00
    6    7   24     -3.30      0.00
    5    7   24      1.65      0.00
    4    7   24      8.52      0.00
    3    7   24     -4.84      0.00
    2    7   24     -6.44      0.00
    1    7   24      6.69      0.00
    7    7   24    -17.89      0.00
    7    8   24     -3.38      0.00
    6    8   24      0.21      0.00
    5    8   24     -6.34      0.00
    4    8   24     -1.76      0.00
    3    8   24      1.28      0.00
    2    8   24     -1.37      0.00
    1    8   24      1.87      0.00
    0    8   24      2.48      0.00
    8    8   24      3.41      0.00
    8    9   24     -1.16      0.00
    7    9   24     -3.16      0.00
    6    9   24     -6.34      0.00
    5    9   24      1.91      0.00
    4    9   24     -8.65      0.00
    3    9   24      3.50      0.00
    2    9   24     -0.74      0.00
    1    9   24     -1.18      0.00
    9    9   24      6.44      0.00
    9   10   24     -0.28      0.00
    8   10   24      0.20      0.00
    7   10   24      0.16      0.00
    6   10   24     -1.22      0.00
    5   10   24      2.20      0.00
    4   10   24      3.81      0.00
    3   10   24     -0.27      0.00
    2   10   24     -3.02      0.00
    1   10   24      6.19      0.00
    0   10   24     -1.73      0.00
   10   10   24     -2.96      0.00
   10   11   24      3.49      0.00
    9   11   24     -1.24      0.00
    8   11   24     -1.90      0.00
    7   11   24      0.79      0.00
    6   11   24      4.12      0.00
    5   11   24     -3.15      0.00
    4   11   24     -3.12      0.00
    3   11   24      0.54      0.00
    2   11   24      0.71      0.00
    1   11   24      3.56      0.00
   11   11   24     -4.40      0.00
   11   12   24     -2.30      0.00
   10   12   24      1.49      0.00
    9   12   24     -2.83      0.00
    8   12   24     -3.43      0.00
    7   12   24      4.17      0.00
    6   12   24     -0.24      0.00
    5   12   24     -1.97      0.00
    4   12   24     -4.59      0.00
    3   12   24      0.79      0.00
    2   12   24     -2.17      0.00
    1   12   24     -1.38      0.00
    0   12   24     -0.81      0.00
   12   12   24     23.48      0.00
   12   13   24      2.01      0.00
   11   13   24      2.68      0.00
   10   13   24     -5.92      0.00
    9   13   24      5.67      0.00
    8   13   24      0.63      0.00
    7   13   24      8.45      0.00
    6   13   24      1.14      0.00
    5   13   24      3.90      0.00
    4   13   24     -3.00      0.00
    3   13   24      0.58      0.00
    2   13   24      3.07      0.00
    1   13   24     -6.94      0.00
   13   13   24     18.40      0.00
   13   14   24      7.12      0.00
   12   14   24      6.93      0.00
   11   14   24      4.77      0.00
   10   14   24      6.76      0.00
    9   14   24      1.65      0.00
    8   14   24      4.40      0.00
    7   14   24     -3.20      0.00
    6   14   24     -3.94      0.00
    5   14   24     -4.49      0.00
    4   14   24     -5.44      0.00
    3   14   24     -8.72      0.00
    2   14   24      9.15      0.00
    1   14   24      1.03      0.00
    0   14   24     -5.14      0.00
   14   14   24     -9.32      0.00
   14   15   24      3.19      0.00
   13   15   24     21.41      0.00
   12   15   24      2.71      0.00
   11   15   24     -2.74      0.00
   10   15   24     -1.76      0.00
    9   15   24      2.65      0.00
    8   15   24      1.64      0.00
    7   15   24      0.06      0.00
    6   15   24     -6.23      0.00
    5   15   24      2.99      0.00
    4   15   24      1.08      0.00
    3   15   24     -4.60      0.00
    2   15   24     -0.98      0.00
    1   15   24      0.05      0.00
   15   15   24      4.08      0.00
   15   16   24    -12.88      0.00
   14   16   24      5.66      0.00
   13   16   24      4.57      0.00
   12   16   24     -3.92      0.00
   11   16   24     -4.47      0.00
   10   16   24      1.16      0.00
    9   16   24      5.87      0.00
    8   16   24     -1.05      0.00
    7   16   24     13.95      0.00
    6   16   24     -4.40      0.00
    5   16   24     -4.52      0.00
    4   16   24     -6.43      0.00
    3   16   24     -0.06      0.00
    2   16   24     -5.34      0.00
    1   16   24     -0.55      0.00
    0   16   24     -0.27      0.00
   16   16   24      3.95      0.00
   16   17   24     -5.83      0.00
   15   17   24     -0.88      0.00
   14   17   24    -11.76      0.00
   13   17   24     -1.92      0.00
   12   17   24     -6.00      0.00
   11   17   24      2.76      0.00
   10   17   24      1.93      0.00
    9   17   24      2.47      0.00
    8   17   24      8.16      0.00
    7   17   24      7.38      0.00
    6   17   24     -6.90      0.00
    5   17   24      9.89      0.00
    4   17   24     -0.49      0.00
    3   17   24      0.46      0.00
    2   17   24      2.30      0.00
    1   17   24      0.79      0.00
   17   17   24     11.64      0.00
   17   18   24     16.70      0.00
   16   18   24     -1.48      0.00
   15   18   24      9.21      0.00
   14   18   24      4.99      0.00
   13   18   24     -6.47      0.00
   12   18   24      0.02      0.00
   11   18   24     -5.62      0.00
   10   18   24      1.15      0.00
    9   18   24     -1.61      0.00
    8   18   24      0.75      0.00
    7   18   24      1.05      0.00
    6   18   24      0.03      0.00
    5   18   24     -6.17      0.00
    4   18   24      0.35      0.00
    3   18   24     -5.40      0.00
    2   18   24      1.10      0.00
    1   18   24     12.59      0.00
    0   18   24     -4.70      0.00
   18   18   24     -4.14      0.00
   17   19   24      3.62      0.00
   16   19   24     12.96      0.00
   15   19   24     11.98      0.00
   14   19   24     11.15      0.00
   13   19   24     -2.37      0.00
   12   19   24      0.09      0.00
   11   19   24      0.45      0.00
   10   19   24     -3.09      0.00
    9   19   24      1.83      0.00
    8   19   24     -2.52      0.00
    7   19   24     -4.33      0.00
    6   19   24      5.59      0.00
    5   19   24     -0.70      0.00
    4   19   24      1.49      0.00
    3   19   24      1.48      0.00
    2   19   24      2.10      0.00
    1   19   24     -2.12      0.00
   16   20   24      4.18      0.00
   15   20   24     13.70      0.00
   14   20   24      7.72      0.00
   13   20   24    -19.27      0.00
   12   20   24      1.45      0.00
   11   20   24     12.19      0.00
   10   20   24     -6.90      0.00
    9   20   24     -5.08      0.00
    8   20   24     -4.62      0.00
    7   20   24      4.37      0.00
    6   20   24     -4.80      0.00
    5   20   24      6.77      0.00
    4   20   24      3.43      0.00
    3   20   24     -2.51      0.00
    2   20   24      4.03      0.00
    1   20   24      1.74      0.00
    0   20   24      6.65      0.00
   15   21   24     -5.93      0.00
   14   21   24      4.53      0.00
   13   21   24      1.09      0.00
   12   21   24     13.58      0.00
   11   21   24     16.98      0.00
   10   21   24     -4.09      0.00
    9   21   24     -3.19      0.00
    8   21   24     -8.37      0.00
    7   21   24      3.78      0.00
    6   21   24     -4.79      0.00
    5   21   24      5.33      0.00
    4   21   24     -2.04      0.00
    3   21   24      4.94      0.00
    2   21   24      2.61      0.00
    1   21   24     -5.56      0.00
   14   22   24    -18.82      0.00
   13   22   24     11.17      0.00
   12   22   24     -8.81      0.00
   11   22   24     -2.72      0.00
   10   22   24     20.10      0.00
    9   22   24     -9.58      0.00
    8   22   24     -6.24      0.00
    7   22   24      0.17      0.00
    6   22   24      2.73      0.00
    5   22   24     -3.02      0.00
    4   22   24      0.33      0.00
    3   22   24     -0.12      0.00
    2   22   24     -2.26      0.00
    1   22   24      0.02      0.00
    0   22   24    -15.83      0.00
   12   23   24    -19.10      0.00
   11   23   24      7.07      0.00
   10   23   24    -15.01      0.00
    9   23   24      6.20      0.00
    8   23   24      7.83      0.00
    7   23   24     -1.37      0.00
    6   23   24      8.84      0.00
    5   23   24     -1.65      0.00
    4   23   24      3.12      0.00
    3   23   24      1.62      0.00
    2   23   24     -1.64      0.00
    1   23   24      3.00      0.00
   10   24   24     -8.54      0.00
    9   24   24      3.43      0.00
    8   24   24    -11.42      0.00
    7   24   24    -12.89      0.00
    6   24   24     10.40      0.00
    5   24   24     -4.85      0.00
    4   24   24      3.88      0.00
    3   24   24     -0.47      0.00
    2   24   24     -0.98      0.00
    1   24   24     -0.38      0.00
    0   24   24     -4.92      0.00
    7   25   24     -2.83      0.00
    6   25   24      6.17      0.00
    5   25   24     -0.78      0.00
    4   25   24     -9.94      0.00
    3   25   24      5.27      0.00
    2   25   24      6.43      0.00
    1   25   24      5.77      0.00
    2   26   24    -15.49      0.00
    1   26   24     -2.25      0.00
    0   26   24    -13.51      0.00
    1    2   25      1.46      0.00
    0    2   25    -14.32      0.00
    2    3   25     -1.53      0.00
    1    3   25     -4.62      0.00
    3    4   25      1.60      0.00
    2    4   25      4.29      0.00
    1    4   25      4.25      0.00
    0    4   25     10.85      0.00
    4    5   25      4.61      0.00
    3    5   25      3.59      0.00
    2    5   25      2.04      0.00
    1    5   25      1.35      0.00
    5    6   25     -4.14      0.00
    4    6   25      1.66      0.00
    3    6   25     -0.47      0.00
    2    6   25     -0.36      0.00
    1    6   25     -2.06      0.00
    0    6   25      3.62      0.00
    6    7   25     -1.40      0.00
    5    7   25     -0.86      0.00
    4    7   25     -5.08      0.00
    3    7   25      5.13      0.00
    2    7   25     -1.17      0.00
    1    7   25     -0.17      0.00
    7    8   25    -11.31      0.00
    6    8   25      0.31      0.00
    5    8   25     -3.95      0.00
    4    8   25      8.31      0.00
    3    8   25     -5.57      0.00
    2    8   25     -5.98      0.00
    1    8   25      7.15      0.00
    0    8   25     -3.09      0.00
    8    9   25      2.08      0.00
    7    9   25      4.22      0.00
    6    9   25      5.92      0.00
    5    9   25      2.38      0.00
    4    9   25     -7.59      0.00
    3    9   25     -6.35      0.00
    2    9   25      5.81      0.00
    1    9   25     -3.29      0.00
    9   10   25      2.83      0.00
    8   10   25      6.68      0.00
    7   10   25      0.30      0.00
    6   10   25      1.65      0.00
    5   10   25     -0.58      0.00
    4   10   25      2.40      0.00
    3   10   25      3.23      0.00
    2   10   25      2.45      0.00
    1   10   25     -3.61      0.00
    0   10   25      6.54      0.00
   10   11   25      1.41      0.00
    9   11   25     -2.27      0.00
    8   11   25     -5.17      0.00
    7   11   25     -3.29      0.00
    6   11   25      1.36      0.00
    5   11   25      0.91      0.00
    4   11   25      0.75      0.00
    3   11   25     -2.41      0.00
    2   11   25     -4.00      0.00
    1   11   25      0.37      0.00
   11   12   25     -2.47      0.00
   10   12   25     -0.47      0.00
    9   12   25     -2.84      0.00
    8   12   25     -0.40      0.00
    7   12   25      0.78      0.00
    6   12   25     -2.74      0.00
    5   12   25     10.16      0.00
    4   12   25     -4.43      0.00
    3   12   25      0.64      0.00
    2   12   25     -3.65      0.00
    1   12   25      0.83      0.00
    0   12   25      1.13      0.00
   12   13   25    -12.44      0.00
   11   13   25      6.14      0.00
   10   13   25     -7.18      0.00
    9   13   25      0.11      0.00
    8   13   25     -3.03      0.00
    7   13   25      0.75      0.00
    6   13   25     -1.59      0.00
    5   13   25    -11.12      0.00
    4   13   25     -3.59      0.00
    3   13   25     -2.25      0.00
    2   13   25     -0.21      0.00
    1   13   25     -2.72      0.00
   13   14   25      6.52      0.00
   12   14   25      4.62      0.00
   11   14   25      0.96      0.00
   10   14   25     -1.97      0.00
    9   14   25     -3.65      0.00
    8   14   25     -5.63      0.00
    7   14   25     -4.29      0.00
    6   14   25      2.96      0.00
    5   14   25      0.26      0.00
    4   14   25      3.41      0.00
    3   14   25     -4.22      0.00
    2   14   25     -2.44      0.00
    1   14   25     -6.29      0.00
    0   14   25      0.44      0.00
   14   15   25      0.96      0.00
   13   15   25      4.39      0.00
   12   15   25      3.44      0.00
   11   15   25     -8.05      0.00
   10   15   25     -0.49      0.00
    9   15   25      4.04      0.00
    8   15   25     -0.39      0.00
    7   15   25      3.30      0.00
    6   15   25     -3.18      0.00
    5   15   25     -2.66      0.00
    4   15   25      6.60      0.00
    3   15   25     -3.15      0.00
    2   15   25     -0.41      0.00
    1   15   25     -8.23      0.00
   15   16   25     -4.14      0.00
   14   16   25     -5.34      0.00
   13   16   25     -2.02      0.00
   12   16   25     -8.98      0.00
   11   16   25     -1.05      0.00
   10   16   25      6.09      0.00
    9   16   25     -5.73      0.00
    8   16   25      0.49      0.00
    7   16   25      2.53      0.00
    6   16   25      7.01      0.00
    5   16   25      1.10      0.00
    4   16   25     -6.25      0.00
    3   16   25     -0.97      0.00
    2   16   25     -8.44      0.00
    1   16   25     -0.04      0.00
    0   16   25     -2.62      0.00
   16   17   25      1.26      0.00
   15   17   25      3.56      0.00
   14   17   25     -8.09      0.00
   13   17   25     -1.19      0.00
   12   17   25      7.72      0.00
   11   17   25     -7.57      0.00
   10   17   25      2.56      0.00
    9   17   25      0.94      0.00
    8   17   25     -4.33      0.00
    7   17   25     -0.96      0.00
    6   17   25      0.02      0.00
    5   17   25     -4.35      0.00
    4   17   25     -1.73      0.00
    3   17   25     -8.40      0.00
    2   17   25     -6.18      0.00
    1   17   25      2.51      0.00
   17   18   25     -5.82      0.00
   16   18   25     -5.61      0.00
   15   18   25      7.17      0.00
   14   18   25     -6.62      0.00
   13   18   25      7.36      0.00
   12   18   25      1.91      0.00
   11   18   25     -1.75      0.00
   10   18   25      1.58      0.00
    9   18   25      9.27      0.00
    8   18   25      5.40      0.00
    7   18   25      6.93      0.00
    6   18   25     -4.99      0.00
    5   18   25      9.11      0.00
    4   18   25      1.56      0.00
    3   18   25     -2.96      0.00
    2   18   25     -4.91      0.00
    1   18   25     10.70      0.00
    0   18   25     -5.87      0.00
   16   19   25     -5.30      0.00
   15   19   25    -16.47      0.00
   14   19   25     -8.43      0.00
   13   19   25      0.76      0.00
   12   19   25     11.11      0.00
   11   19   25      1.62      0.00
   10   19   25    -14.77      0.00
    9   19   25      9.10      0.00
    8   19   25     -3.44      0.00
    7   19   25     -3.65      0.00
    6   19   25      4.48      0.00
    5   19   25     10.74      0.00
    4   19   25     -4.28      0.00
    3   19   25      3.57      0.00
    2   19   25     -7.09      0.00
    1   19   25    -12.25      0.00
   14   20   25    -19.03      0.00
   13   20   25    -19.40      0.00
   12   20   25     -7.34      0.00
   11   20   25      7.29      0.00
   10   20   25      2.38      0.00
    9   20   25     -3.05      0.00
    8   20   25      0.96      0.00
    7   20   25    -12.30      0.00
    6   20   25      1.89      0.00
    5   20   25     -2.04      0.00
    4   20   25     -1.34      0.00
    3   20   25     -7.61      0.00
    2   20   25     -2.25      0.00
    1   20   25     -1.60      0.00
    0   20   25     -6.79      0.00
   13   21   25     14.93      0.00
   12   21   25      5.18      0.00
   11   21   25    -10.91      0.00
   10   21   25     -1.65      0.00
    9   21   25     -6.36      0.00
    8   21   25      4.59      0.00
    7   21   25    -15.85      0.00
    6   21   25     -5.61      0.00
    5   21   25      0.88      0.00
    4   21   25     12.74      0.00
    3   21   25     -0.44      0.00
    2   21   25      7.91      0.00
    1   21   25     -4.20      0.00
   11   22   25     14.58      0.00
   10   22   25      2.16      0.00
    9   22   25      3.06      0.00
    8   22   25     -6.93      0.00
    7   22   25      2.74      0.00
    6   22   25     -2.48      0.00
    5   22   25      7.27      0.00
    4   22   25      2.74      0.00
    3   22   25      5.01      0.00
    2   22   25     -3.10      0.00
    1   22   25      5.60      0.00
    0   22   25     -1.90      0.00
    9   23   25      2.69      0.00
    8   23   25    -17.27      0.00
    7   23   25     -3.00      0.00
    6   23   25     -8.27      0.00
    5   23   25     -3.10      0.00
    4   23   25     -0.38      0.00
    3   23   25     -1.57      0.00
    2   23   25    -11.95      0.00
    1   23   25     -1.35      0.00
    6   24   25      9.27      0.00
    5   24   25      9.60      0.00
    4   24   25      2.95      0.00
    3   24   25     -1.00      0.00
    2   24   25     -1.32      0.00
    1   24   25      0.67      0.00
    0   24   25      3.39      0.00
    0    0   26      5.64      0.00
    1    1   26     -7.65      0.00
    1    2   26    -10.22      0.00
    0    2   26      1.36      0.00
    2    2   26      6.48      0.00
    2    3   26      2.45      0.00
    1    3   26     -5.52      0.00
    3    3   26      3.92      0.00
    3    4   26      5.60      0.00
    2    4   26      3.18      0.00
    1    4   26     -6.26      0.00
    0    4   26     -4.50      0.00
    4    4   26      1.22      0.00
    4    5   26      9.54      0.00
    3    5   26      3.64      0.00
    2    5   26     -5.40      0.00
    1    5   26     -6.19      0.00
    5    5   26      0.77      0.00
    5    6   26     -4.90      0.00
    4    6   26      1.89      0.00
    3    6   26     14.83      0.00
    2    6   26     -7.91      0.00
    1    6   26      8.59      0.00
    0    6   26      0.71      0.00
    6    6   26      0.31      0.00
    6    7   26      1.20      0.00
    5    7   26     -0.36      0.00
    4    7   26      1.36      0.00
    3    7   26     -3.45      0.00
    2    7   26      4.17      0.00
    1    7   26      2.21      0.00
    7    7   26      4.07      0.00
    7    8   26      7.34      0.00
    6    8   26     13.16      0.00
    5    8   26      8.38      0.00
    4    8   26     -0.66      0.00
    3    8   26      2.24      0.00
    2    8   26      7.27      0.00
    1    8   26     -0.11      0.00
    0    8   26     -7.57      0.00
    8    8   26     -0.25      0.00
    8    9   26      0.00      0.00
    7    9   26      8.07      0.00
    6    9   26      1.36      0.00
    5    9   26      0.91      0.00
    4    9   26      2.95      0.00
    3    9   26     -3.26      0.00
    2    9   26     -2.62      0.00
    1    9   26      3.17      0.00
    9    9   26      5.23      0.00
    9   10   26      2.81      0.00
    8   10   26     -3.15      0.00
    7   10   26      2.68      0.00
    6   10   26      4.32      0.00
    5   10   26     -3.74      0.00
    4   10   26     -6.28      0.00
    3   10   26      0.59      0.00
    2   10   26      2.86      0.00
    1   10   26      3.62      0.00
    0   10   26     -7.64      0.00
   10   10   26     -5.40      0.00
   10   11   26      3.49      0.00
    9   11   26      2.28      0.00
    8   11   26      7.32      0.00
    7   11   26     -1.67      0.00
    6   11   26      0.96      0.00
    5   11   26     -4.84      0.00
    4   11   26      0.88      0.00
    3   11   26      6.33      0.00
    2   11   26     -0.18      0.00
    1   11   26     -2.17      0.00
   11   11   26     -2.42      0.00
   11   12   26      6.07      0.00
   10   12   26     12.05      0.00
    9   12   26      4.25      0.00
    8   12   26      3.30      0.00
    7   12   26     -1.77      0.00
    6   12   26     -8.71      0.00
    5   12   26     -0.85      0.00
    4   12   26      5.16      0.00
    3   12   26     -0.74      0.00
    2   12   26     -5.20      0.00
    1   12   26      2.70      0.00
    0   12   26      3.92      0.00
   12   12   26     -1.23      0.00
   12   13   26      0.23      0.00
   11   13   26     14.95      0.00
   10   13   26      0.66      0.00
    9   13   26     11.98      0.00
    8   13   26     -3.43      0.00
    7   13   26     -3.40      0.00
    6   13   26      4.12      0.00
    5   13   26      1.66      0.00
    4   13   26     -1.57      0.00
    3   13   26     -3.13      0.00
    2   13   26      5.28      0.00
    1   13   26      4.17      0.00
   13   13   26      7.80      0.00
   13   14   26      7.36      0.00
   12   14   26      2.41      0.00
   11   14   26      3.81      0.00
   10   14   26      4.17      0.00
    9   14   26      0.52      0.00
    8   14   26     -0.23      0.00
    7   14   26     -7.33      0.00
    6   14   26      5.72      0.00
    5   14   26      2.62      0.00
    4   14   26     -6.91      0.00
    3   14   26      2.37      0.00
    2   14   26      2.35      0.00
    1   14   26     -1.46      0.00
    0   14   26      7.33      0.00
   14   14   26     -0.68      0.00
   14   15   26      1.99      0.00
   13   15   26     11.22      0.00
   12   15   26      8.41      0.00
   11   15   26     -8.59      0.00
   10   15   26     -1.88      0.00
    9   15   26      1.13      0.00
    8   15   26      2.69      0.00
    7   15   26     -0.87      0.00
    6   15   26     12.18      0.00
    5   15   26     -1.63      0.00
    4   15   26      3.49      0.00
    3   15   26     -1.18      0.00
    2   15   26      1.69      0.00
    1   15   26     -1.27      0.00
   15   15   26      5.08      0.00
   15   16   26     12.37      0.00
   14   16   26     -3.62      0.00
   13   16   26     10.11      0.00
   12   16   26     -0.87      0.00
   11   16   26      4.30      0.00
   10   16   26      6.04      0.00
    9   16   26    -10.88      0.00
    8   16   26      2.85      0.00
    7   16   26     12.39      0.00
    6   16   26    -11.56      0.00
    5   16   26      4.30      0.00
    4   16   26     -2.63      0.00
    3   16   26      2.42      0.00
    2   16   26     -7.58      0.00
    1   16   26      0.69      0.00
    0   16   26      1.38      0.00
   16   16   26     -4.00      0.00
   16   17   26     -6.34      0.00
   15   17   26     -0.91      0.00
   14   17   26     22.62      0.00
   13   17   26      5.36      0.00
   12   17   26      3.13      0.00
   11   17   26      0.38      0.00
   10   17   26     -9.00      0.00
    9   17   26     -0.54      0.00
    8   17   26      2.36      0.00
    7   17   26     12.03      0.00
    6   17   26      3.02      0.00
    5   17   26     -1.64      0.00
    4   17   26     -0.09      0.00
    3   17   26      1.39      0.00
    2   17   26     -1.32      0.00
    1   17   26      2.40      0.00
   15   18   26      7.53      0.00
   14   18   26      3.54      0.00
   13   18   26      5.01      0.00
   12   18   26     -5.64      0.00
   11   18   26     -4.21      0.00
   10   18   26      3.66      0.00
    9   18   26     -1.91      0.00
    8   18   26     -6.58      0.00
    7   18   26      3.54      0.00
    6   18   26     -9.21      0.00
    5   18   26      1.17      0.00
    4   18   26      0.13      0.00
    3   18   26     -2.06      0.00
    2   18   26     -4.57      0.00
    1   18   26      4.56      0.00
    0   18   26      5.95      0.00
   14   19   26     17.44      0.00
   13   19   26      4.91      0.00
   12   19   26      2.76      0.00
   11   19   26      5.01      0.00
   10   19   26      4.33      0.00
    9   19   26     -3.24      0.00
    8   19   26      8.67      0.00
    7   19   26      2.45      0.00
    6   19   26     -0.58      0.00
    5   19   26      0.92      0.00
    4   19   26     -0.05      0.00
    3   19   26     -2.27      0.00
    2   19   26     -0.85      0.00
    1   19   26     -2.01      0.00
   12   20   26      1.18      0.00
   11   20   26    -10.03      0.00
   10   20   26      1.07      0.00
    9   20   26     12.93      0.00
    8   20   26     13.99      0.00
    7   20   26      4.03      0.00
    6   20   26    -10.23      0.00
    5   20   26     -5.16      0.00
    4   20   26     -8.36      0.00
    3   20   26      7.39      0.00
    2   20   26     11.60      0.00
    1   20   26      2.92      0.00
    0   20   26      5.07      0.00
   10   21   26     -3.38      0.00
    9   21   26      5.92      0.00
    8   21   26      2.31      0.00
    7   21   26     -3.91      0.00
    6   21   26      7.25      0.00
    5   21   26      6.79      0.00
    4   21   26     -3.73      0.00
    3   21   26      4.59      0.00
    2   21   26     -2.55      0.00
    1   21   26     -7.10      0.00
    8   22   26     -2.99      0.00
    7   22   26    -10.07      0.00
    6   22   26      8.65      0.00
    5   22   26      6.87      0.00
    4   22   26      1.57      0.00
    3   22   26     -5.40      0.00
    2   22   26    -14.09      0.00
    1   22   26     -0.64      0.00
    0   22   26     -8.48      0.00
    5   23   26     11.00      0.00
    4   23   26     -4.10      0.00
    3   23   26     -9.78      0.00
    2   23   26     10.67      0.00
    1   23   26      0.60      0.00
    1    2   27      3.98      0.00
    0    2   27      4.25      0.00
    2    3   27     -0.28      0.00
    1    3   27     -6.23      0.00
    3    4   27     -2.33      0.00
    2    4   27      2.02      0.00
    1    4   27     -0.47      0.00
    0    4   27      5.28      0.00
    4    5   27      0.21      0.00
    3    5   27     -2.18      0.00
    2    5   27      2.13      0.00
    1    5   27      2.16      0.00
    5    6   27     14.85      0.00
    4    6   27      0.18      0.00
    3    6   27      0.82      0.00
    2    6   27      3.67      0.00
    1    6   27     -3.00      0.00
    0    6   27     -1.35      0.00
    6    7   27      1.47      0.00
    5    7   27      6.81      0.00
    4    7   27     11.51      0.00
    3    7   27     -1.43      0.00
    2    7   27      3.80      0.00
    1    7   27      1.36      0.00
    7    8   27    -15.03      0.00
    6    8   27     -2.28      0.00
    5    8   27     -0.40      0.00
    4    8   27      2.07      0.00
    3    8   27     -3.75      0.00
    2    8   27     -7.75      0.00
    1    8   27      1.30      0.00
    0    8   27      4.30      0.00
    8    9   27     -5.95      0.00
    7    9   27      3.54      0.00
    6    9   27      2.89      0.00
    5    9   27     -9.40      0.00
    4    9   27     -1.32      0.00
    3    9   27     -0.67      0.00
    2    9   27     -1.17      0.00
    1    9   27    -12.10      0.00
    9   10   27     -5.24      0.00
    8   10   27      4.42      0.00
    7   10   27     -3.65      0.00
    6   10   27      4.39      0.00
    5   10   27     -3.32      0.00
    4   10   27      2.11      0.00
    3   10   27     11.33      0.00
    2   10   27      5.99      0.00
    1   10   27     -0.53      0.00
    0   10   27     -3.88      0.00
   10   11   27    -16.03      0.00
    9   11   27      0.51      0.00
    8   11   27      7.02      0.00
    7   11   27     -3.77      0.00
    6   11   27     -3.59      0.00
    5   11   27     -1.71      0.00
    4   11   27     -5.65      0.00
    3   11   27      6.60      0.00
    2   11   27      3.13      0.00
    1   11   27      0.48      0.00
   11   12   27    -10.82      0.00
   10   12   27      2.09      0.00
    9   12   27      1.99      0.00
    8   12   27      0.19      0.00
    7   12   27      5.11      0.00
    6   12   27     -4.37      0.00
    5   12   27     -2.50      0.00
    4   12   27      0.92      0.00
    3   12   27      8.85      0.00
    2   12   27      1.98      0.00
    1   12   27     -3.39      0.00
    0   12   27      0.30      0.00
   12   13   27      2.10      0.00
   11   13   27     -1.69      0.00
   10   13   27      1.42      0.00
    9   13   27     -4.67      0.00
    8   13   27     -9.86      0.00
    7   13   27      1.46      0.00
    6   13   27      7.36      0.00
    5   13   27     -1.14      0.00
    4   13   27      9.64      0.00
    3   13   27     -6.15      0.00
    2   13   27      0.58      0.00
    1   13   27      4.76      0.00
   13   14   27     -3.11      0.00
   12   14   27     -2.81      0.00
   11   14   27      3.53      0.00
   10   14   27      1.26      0.00
    9   14   27      0.92      0.00
    8   14   27     -0.02      0.00
    7   14   27     -3.66      0.00
    6   14   27     -0.59      0.00
    5   14   27     -0.01      0.00
    4   14   27      0.56      0.00
    3   14   27      0.14      0.00
    2   14   27      4.04      0.00
    1   14   27      6.39      0.00
    0   14   27     -1.81      0.00
   14   15   27     -2.84      0.00
   13   15   27      8.20      0.00
   12   15   27     12.11      0.00
   11   15   27      6.28      0.00
   10   15   27     -7.78      0.00
    9   15   27     -5.43      0.00
    8   15   27     -4.04      0.00
    7   15   27      2.80      0.00
    6   15   27     -7.35      0.00
    5   15   27      0.61      0.00
    4   15   27      0.50      0.00
    3   15   27     -5.27      0.00
    2   15   27     10.25      0.00
    1   15   27     -6.94      0.00
   15   16   27     10.84      0.00
   14   16   27     -0.86      0.00
   13   16   27    -22.03      0.00
   12   16   27     23.12      0.00
   11   16   27     -3.16      0.00
   10   16   27     -8.19      0.00
    9   16   27     -4.68      0.00
    8   16   27      0.86      0.00
    7   16   27      4.08      0.00
    6   16   27      5.11      0.00
    5   16   27    -11.90      0.00
    4   16   27      1.99      0.00
    3   16   27      7.65      0.00
    2   16   27      5.25      0.00
    1   16   27      9.98      0.00
    0   16   27     -1.18      0.00
   14   17   27      0.30      0.00
   13   17   27     -3.08      0.00
   12   17   27      5.74      0.00
   11   17   27    -10.09      0.00
   10   17   27      8.04      0.00
    9   17   27      0.54      0.00
    8   17   27    -26.22      0.00
    7   17   27      0.28      0.00
    6   17   27     -4.31      0.00
    5   17   27      5.02      0.00
    4   17   27      5.69      0.00
    3   17   27      3.94      0.00
    2   17   27     -5.06      0.00
    1   17   27     10.05      0.00
   13   18   27     -0.49      0.00
   12   18   27     -7.59      0.00
   11   18   27     10.03      0.00
   10   18   27    -11.48      0.00
    9   18   27      0.98      0.00
    8   18   27     19.61      0.00
    7   18   27      5.46      0.00
    6   18   27      4.20      0.00
    5   18   27      0.07      0.00
    4   18   27      1.70      0.00
    3   18   27      3.30      0.00
    2   18   27      3.83      0.00
    1   18   27     21.89      0.00
    0   18   27     -5.56      0.00
   11   19   27      3.01      0.00
   10   19   27     -7.09      0.00
    9   19   27     11.27      0.00
    8   19   27     10.25      0.00
    7   19   27      0.31      0.00
    6   19   27     -4.01      0.00
    5   19   27     -9.21      0.00
    4   19   27      6.61      0.00
    3   19   27      4.49      0.00
    2   19   27      3.01      0.00
    1   19   27     -1.00      0.00
    9   20   27     16.23      0.00
    8   20   27     -0.82      0.00
    7   20   27    -18.70      0.00
    6   20   27      0.04      0.00
    5   20   27      0.60      0.00
    4   20   27     -6.14      0.00
    3   20   27      0.94      0.00
    2   20   27     -0.44      0.00
    1   20   27     14.36      0.00
    0   20   27     -6.98      0.00
    7   21   27    -12.57      0.00
    6   21   27     10.49      0.00
    5   21   27      2.78      0.00
    4   21   27      8.80      0.00
    3   21   27    -10.11      0.00
    2   21   27     -1.08      0.00
    1   21   27     -2.57      0.00
    3   22   27      5.19      0.00
    2   22   27     -4.12      0.00
    1   22   27     10.31      0.00
    0   22   27      6.00      0.00
    0    0   28     -7.21      0.00
    1    1   28     -9.03      0.00
    1    2   28      4.26      0.00
    0    2   28     -9.23      0.00
    2    2   28      6.07      0.00
    2    3   28     -4.33      0.00
    1    3   28     -6.74      0.00
    3    3   28     -4.15      0.00
    3    4   28     -1.33      0.00
    2    4   28     -4.94      0.00
    1    4   28      4.97      0.00
    0    4   28     -2.92      0.00
    4    4   28     -5.11      0.00
    4    5   28     -4.21      0.00
    3    5   28     -4.57      0.00
    2    5   28     -0.43      0.00
    1    5   28     -2.60      0.00
    5    5   28     -5.76      0.00
    5    6   28      1.00      0.00
    4    6   28     -0.03      0.00
    3    6   28      0.61      0.00
    2    6   28      6.29      0.00
    1    6   28      1.23      0.00
    0    6   28     -1.10      0.00
    6    6   28     -3.32      0.00
    6    7   28      0.50      0.00
    5    7   28     -2.26      0.00
    4    7   28      0.76      0.00
    3    7   28      1.62      0.00
    2    7   28     -4.41      0.00
    1    7   28      0.05      0.00
    7    7   28     -4.31      0.00
    7    8   28     -1.08      0.00
    6    8   28     -2.39      0.00
    5    8   28     -5.69      0.00
    4    8   28      0.91      0.00
    3    8   28      2.47      0.00
    2    8   28     -5.40      0.00
    1    8   28      0.80      0.00
    0    8   28      2.04      0.00
    8    8   28     -8.65      0.00
    8    9   28     -0.29      0.00
    7    9   28     -5.41      0.00
    6    9   28      1.07      0.00
    5    9   28     -2.54      0.00
    4    9   28    -12.21      0.00
    3    9   28      3.74      0.00
    2    9   28      0.12      0.00
    1    9   28      0.24      0.00
    9    9   28     -2.79      0.00
    9   10   28      8.67      0.00
    8   10   28     -3.17      0.00
    7   10   28     -4.40      0.00
    6   10   28     -4.53      0.00
    5   10   28     -2.08      0.00
    4   10   28     -2.08      0.00
    3   10   28     -5.21      0.00
    2   10   28     -1.09      0.00
    1   10   28      1.43      0.00
    0   10   28      9.73      0.00
   10   10   28      2.80      0.00
   10   11   28     -6.36      0.00
    9   11   28      6.28      0.00
    8   11   28    -10.28      0.00
    7   11   28     -0.49      0.00
    6   11   28      3.82      0.00
    5   11   28      5.10      0.00
    4   11   28      7.23      0.00
    3   11   28     -0.13      0.00
    2   11   28     -0.80      0.00
    1   11   28      5.99      0.00
   11   11   28     -4.69      0.00
   11   12   28      3.47      0.00
   10   12   28     -0.26      0.00
    9   12   28    -15.07      0.00
    8   12   28      9.12      0.00
    7   12   28     -3.12      0.00
    6   12   28     -1.48      0.00
    5   12   28      1.29      0.00
    4   12   28      3.47      0.00
    3   12   28     -2.40      0.00
    2   12   28      5.34      0.00
    1   12   28      0.00      0.00
    0   12   28      6.45      0.00
   12   12   28     -8.13      0.00
   12   13   28      8.06      0.00
   11   13   28      5.59      0.00
   10   13   28    -12.32      0.00
    9   13   28      4.66      0.00
    8   13   28      0.61      0.00
    7   13   28     -0.86      0.00
    6   13   28      3.81      0.00
    5   13   28     -0.47      0.00
    4   13   28     -6.90      0.00
    3   13   28     -8.20      0.00
    2   13   28      4.46      0.00
    1   13   28     11.52      0.00
   13   13   28     -2.53      0.00
   13   14   28      0.08      0.00
   12   14   28     -7.31      0.00
   11   14   28    -11.73      0.00
   10   14   28     -6.67      0.00
    9   14   28     -2.55      0.00
    8   14   28      9.56      0.00
    7   14   28      5.71      0.00
    6   14   28      6.19      0.00
    5   14   28     -3.55      0.00
    4   14   28     -1.40      0.00
    3   14   28     -1.98      0.00
    2   14   28     -7.90      0.00
    1   14   28     -8.79      0.00
    0   14   28      1.09      0.00
   14   14   28     -4.70      0.00
   14   15   28      6.23      0.00
   13   15   28     -2.45      0.00
   12   15   28      3.11      0.00
   11   15   28     -2.87      0.00
   10   15   28      3.47      0.00
    9   15   28      0.55      0.00
    8   15   28    -12.01      0.00
    7   15   28     -7.36      0.00
    6   15   28     11.94      0.00
    5   15   28     -0.57      0.00
    4   15   28     -1.58      0.00
    3   15   28     -3.01      0.00
    2   15   28     -8.93      0.00
    1   15   28     -1.26      0.00
   13   16   28     16.00      0.00
   12   16   28    -10.83      0.00
   11   16   28      2.42      0.00
   10   16   28     -4.63      0.00
    9   16   28     -2.11      0.00
    8   16   28    -11.72      0.00
    7   16   28     -4.30      0.00
    6   16   28     -7.56      0.00
    5   16   28     -2.58      0.00
    4   16   28      5.03      0.00
    3   16   28     -0.29      0.00
    2   16   28     -1.77      0.00
    1   16   28     -2.13      0.00
    0   16   28      1.74      0.00
   11   17   28     -1.70      0.00
   10   17   28      2.19      0.00
    9   17   28      3.97      0.00
    8   17   28      7.86      0.00
    7   17   28      1.16      0.00
    6   17   28      9.08      0.00
    5   17   28      4.14      0.00
    4   17   28     -5.18      0.00
    3   17   28      7.94      0.00
    2   17   28      0.63      0.00
    1   17   28      1.67      0.00
   10   18   28    -18.00      0.00
    9   18   28      6.56      0.00
    8   18   28     -0.06      0.00
    7   18   28     -5.01      0.00
    6   18   28    -10.05      0.00
    5   18   28     -3.36      0.00
    4   18   28      6.90      0.00
    3   18   28      9.72      0.00
    2   18   28      1.43      0.00
    1   18   28     11.25      0.00
    0   18   28      6.78      0.00
    8   19   28     18.72      0.00
    7   19   28     22.52      0.00
    6   19   28     -2.41      0.00
    5   19   28     -8.05      0.00
    4   19   28      1.23      0.00
    3   19   28     -5.42      0.00
    2   19   28      0.64      0.00
    1   19   28      1.54      0.00
    5   20   28     10.49      0.00
    4   20   28    -10.45      0.00
    3   20   28      1.97      0.00
    2   20   28     -4.06      0.00
    1   20   28     -3.18      0.00
    0   20   28     -3.72      0.00
    1    2   29      1.80      0.00
    0    2   29      0.88      0.00
    2    3   29     -9.02      0.00
    1    3   29     -3.71      0.00
    3    4   29      0.87      0.00
    2    4   29     -5.01      0.00
    1    4   29      0.73      0.00
    0    4   29     -4.56      0.00
    4    5   29     -2.50      0.00
    3    5   29      4.34      0.00
    2    5   29      1.81      0.00
    1    5   29      1.16      0.00
    5    6   29      4.73      0.00
    4    6   29      2.03      0.00
    3    6   29     -2.35      0.00
    2    6   29     -0.32      0.00
    1    6   29     -5.85      0.00
    0    6   29      5.74      0.00
    6    7   29     -5.10      0.00
    5    7   29     -1.61      0.00
    4    7   29     -4.21      0.00
    3    7   29      8.04      0.00
    2    7   29     -2.82      0.00
    1    7   29     -7.56      0.00
    7    8   29     -3.32      0.00
    6    8   29     -1.89      0.00
    5    8   29      0.50      0.00
    4    8   29     -6.25      0.00
    3    8   29      0.71      0.00
    2    8   29      0.36      0.00
    1    8   29     -5.75      0.00
    0    8   29      6.22      0.00
    8    9   29     -9.23      0.00
    7    9   29     -4.93      0.00
    6    9   29      8.67      0.00
    5    9   29      2.60      0.00
    4    9   29     -2.35      0.00
    3    9   29     -3.48      0.00
    2    9   29     -7.09      0.00
    1    9   29     -7.18      0.00
    9   10   29    -15.30      0.00
    8   10   29     -4.62      0.00
    7   10   29     -1.29      0.00
    6   10   29     -8.50      0.00
    5   10   29      0.01      0.00
    4   10   29      4.86      0.00
    3   10   29      2.19      0.00
    2   10   29      1.71      0.00
    1   10   29      3.30      0.00
    0   10   29     13.00      0.00
   10   11   29     -5.08      0.00
    9   11   29      3.51      0.00
    8   11   29    -10.05      0.00
    7   11   29     -1.31      0.00
    6   11   29     -0.30      0.00
    5   11   29     -0.07      0.00
    4   11   29      2.86      0.00
    3   11   29      5.63      0.00
    2   11   29     -8.86      0.00
    1   11   29     -0.75      0.00
   11   12   29     14.85      0.00
   10   12   29     -8.09      0.00
    9   12   29      1.33      0.00
    8   12   29      0.82      0.00
    7   12   29      4.90      0.00
    6   12   29      4.72      0.00
    5   12   29     -5.25      0.00
    4   12   29      7.67      0.00
    3   12   29     -5.15      0.00
    2   12   29      2.78      0.00
    1   12   29     -1.19      0.00
    0   12   29    -13.64      0.00
   12   13   29     -3.73      0.00
   11   13   29     -9.06      0.00
   10   13   29      1.01      0.00
    9   13   29    -11.09      0.00
    8   13   29      1.01      0.00
    7   13   29     -4.95      0.00
    6   13   29      3.03      0.00
    5   13   29      3.29      0.00
    4   13   29      3.88      0.00
    3   13   29      3.99      0.00
    2   13   29      3.42      0.00
    1   13   29     -6.96      0.00
   12   14   29     17.61      0.00
   11   14   29      9.91      0.00
   10   14   29     -4.43      0.00
    9   14   29     -4.62      0.00
    8   14   29     -3.32      0.00
    7   14   29      7.49      0.00
    6   14   29     -9.03      0.00
    5   14   29    -11.92      0.00
    4   14   29      4.71      0.00
    3   14   29      4.63      0.00
    2   14   29     12.69      0.00
    1   14   29     12.20      0.00
    0   14   29    -15.86      0.00
   11   15   29    -13.58      0.00
   10   15   29     -9.84      0.00
    9   15   29      9.93      0.00
    8   15   29     -7.10      0.00
    7   15   29      7.89      0.00
    6   15   29     -0.33      0.00
    5   15   29     -7.33      0.00
    4   15   29    -14.24      0.00
    3   15   29     -3.43      0.00
    2   15   29      1.89      0.00
    1   15   29      0.22      0.00
   10   16   29     -2.20      0.00
    9   16   29     18.00      0.00
    8   16   29      6.83      0.00
    7   16   29      1.99      0.00
    6   16   29      0.50      0.00
    5   16   29    -16.35      0.00
    4   16   29     -5.81      0.00
    3   16   29    -11.66      0.00
    2   16   29     14.47      0.00
    1   16   29     19.23      0.00
    0   16   29     -3.18      0.00
    8   17   29    -24.33      0.00
    7   17   29     12.24      0.00
    6   17   29     10.64      0.00
    5   17   29     -6.95      0.00
    4   17   29    -12.78      0.00
    3   17   29     -6.79      0.00
    2   17   29    -17.72      0.00
    1   17   29     15.02      0.00
    5   18   29     15.58      0.00
    4   18   29      1.36      0.00
    3   18   29    -13.92      0.00
    2   18   29      1.56      0.00
    1   18   29     -5.47      0.00
    0   18   29      0.02      0.00
    0    0   30    -14.48      0.00
    1    1   30     -9.55      0.00
    1    2   30     -5.77      0.00
    0    2   30      0.65      0.00
    2    2   30      6.92      0.00
    2    3   30      0.96      0.00
    1    3   30     -3.53      0.00
    3    3   30      7.93      0.00
    3    4   30      3.89      0.00
    2    4   30      0.24      0.00
    1    4   30      2.06      0.00
    0    4   30      4.70      0.00
    4    4   30      2.71      0.00
    4    5   30      1.19      0.00
    3    5   30     -2.32      0.00
    2    5   30     -9.41      0.00
    1    5   30     -2.90      0.00
    5    5   30      0.60      0.00
    5    6   30      0.28      0.00
    4    6   30      5.98      0.00
    3    6   30     -1.57      0.00
    2    6   30      1.22      0.00
    1    6   30     -2.93      0.00
    0    6   30     -5.97      0.00
    6    6   30      1.32      0.00
    6    7   30      5.97      0.00
    5    7   30      0.61      0.00
    4    7   30      2.45      0.00
    3    7   30     -4.24      0.00
    2    7   30     -2.23      0.00
    1    7   30      4.84      0.00
    7    7   30     -2.40      0.00
    7    8   30    -11.02      0.00
    6    8   30     -1.69      0.00
    5    8   30     -8.95      0.00
    4    8   30     -1.73      0.00
    3    8   30     -6.05      0.00
    2    8   30      0.43      0.00
    1    8   30      0.90      0.00
    0    8   30      1.42      0.00
    8    8   30     -6.10      0.00
    8    9   30      3.52      0.00
    7    9   30     -5.98      0.00
    6    9   30     -0.68      0.00
    5    9   30      2.53      0.00
    4    9   30     -0.82      0.00
    3    9   30      0.83      0.00
    2    9   30     -0.04      0.00
    1    9   30      3.38      0.00
    9    9   30    -12.69      0.00
    9   10   30     -0.98      0.00
    8   10   30      7.10      0.00
    7   10   30     11.41      0.00
    6   10   30      4.89      0.00
    5   10   30      2.42      0.00
    4   10   30    -19.16      0.00
    3   10   30      3.88      0.00
    2   10   30     -3.56      0.00
    1   10   30     10.48      0.00
    0   10   30     -7.09      0.00
   10   10   30     -1.53      0.00
   10   11   30     -2.08      0.00
    9   11   30     -2.44      0.00
    8   11   30     -4.33      0.00
    7   11   30     -1.25      0.00
    6   11   30      0.74      0.00
    5   11   30      9.47      0.00
    4   11   30    -11.49      0.00
    3   11   30     -0.03      0.00
    2   11   30      0.35      0.00
    1   11   30      1.75      0.00
   11   11   30     -5.28      0.00
   11   12   30     -2.87      0.00
   10   12   30     -2.98      0.00
    9   12   30      8.70      0.00
    8   12   30      4.20      0.00
    7   12   30      4.32      0.00
    6   12   30     -7.24      0.00
    5   12   30      0.58      0.00
    4   12   30     -1.46      0.00
    3   12   30     -3.59      0.00
    2   12   30      2.46      0.00
    1   12   30     -4.96      0.00
    0   12   30      8.58      0.00
   10   13   30      7.80      0.00
    9   13   30      1.96      0.00
    8   13   30      5.61      0.00
    7   13   30     -0.99      0.00
    6   13   30      9.76      0.00
    5   13   30     -6.56      0.00
    4   13   30     -3.04      0.00
    3   13   30    -12.90      0.00
    2   13   30      5.72      0.00
    1   13   30      6.13      0.00
    9   14   30     12.09      0.00
    8   14   30      1.08      0.00
    7   14   30     -0.09      0.00
    6   14   30      6.05      0.00
    5   14   30      9.38      0.00
    4   14   30      5.60      0.00
    3   14   30    -11.82      0.00
    2   14   30     -3.65      0.00
    1   14   30      3.41      0.00
    0   14   30     -0.24      0.00
    7   15   30     -5.20      0.00
    6   15   30     15.00      0.00
    5   15   30      4.62      0.00
    4   15   30     -1.52      0.00
    3   15   30      4.39      0.00
    2   15   30     11.53      0.00
    1   15   30     -4.04      0.00
    5   16   30    -12.38      0.00
    4   16   30     15.69      0.00
    3   16   30     10.35      0.00
    2   16   30     -3.56      0.00
    1   16   30      5.09      0.00
    0   16   30     -7.00      0.00
    1    2   31     -1.56      0.00
    0    2   31     11.80      0.00
    2    3   31      3.08      0.00
    1    3   31      4.34      0.00
    3    4   31      7.92      0.00
    2    4   31     -3.07      0.00
    1    4   31      1.66      0.00
    0    4   31     -5.05      0.00
    4    5   31      3.77      0.00
    3    5   31     17.29      0.00
    2    5   31      5.69      0.00
    1    5   31      4.90      0.00
    5    6   31     -4.66      0.00
    4    6   31      2.96      0.00
    3    6   31     -2.25      0.00
    2    6   31      1.08      0.00
    1    6   31      5.33      0.00
    0    6   31      4.21      0.00
    6    7   31     -4.31      0.00
    5    7   31      1.72      0.00
    4    7   31    -24.52      0.00
    3    7   31     -3.89      0.00
    2    7   31     -1.78      0.00
    1    7   31     -3.45      0.00
    7    8   31     -9.25      0.00
    6    8   31     -3.10      0.00
    5    8   31      3.74      0.00
    4    8   31     -1.73      0.00
    3    8   31     -1.99      0.00
    2    8   31      5.36      0.00
    1    8   31      7.08      0.00
    0    8   31      8.35      0.00
    8    9   31     12.57      0.00
    7    9   31     -4.04      0.00
    6    9   31     10.07      0.00
    5    9   31     -3.64      0.00
    4    9   31     -1.70      0.00
    3    9   31      1.36      0.00
    2    9   31     -1.53      0.00
    1    9   31     -9.09      0.00
    9   10   31     -0.65      0.00
    8   10   31      2.07      0.00
    7   10   31      5.16      0.00
    6   10   31      0.22      0.00
    5   10   31     -4.54      0.00
    4   10   31      1.98      0.00
    3   10   31      6.08      0.00
    2   10   31     -7.85      0.00
    1   10   31      1.48      0.00
    0   10   31     -5.47      0.00
    9   11   31     -0.78      0.00
    8   11   31      2.07      0.00
    7   11   31     18.04      0.00
    6   11   31      5.51      0.00
    5   11   31      6.41      0.00
    4   11   31      0.71      0.00
    3   11   31      1.59      0.00
    2   11   31      2.56      0.00
    1   11   31     -5.18      0.00
    8   12   31     -8.08      0.00
    7   12   31     -4.32      0.00
    6   12   31     -6.50      0.00
    5   12   31      4.60      0.00
    4   12   31      1.83      0.00
    3   12   31      9.49      0.00
    2   12   31      2.41      0.00
    1   12   31     -0.49      0.00
    0   12   31      8.73      0.00
    6   13   31      7.38      0.00
    5   13   31    -11.41      0.00
    4   13   31      2.85      0.00
    3   13   31    -17.19      0.00
    2   13   31     -0.52      0.00
    1   13   31     -1.50      0.00
    3   14   31      8.22      0.00
    2   14   31    -13.71      0.00
    1   14   31      0.16      0.00
    0   14   31     -3.37      0.00
    0    0   32     -5.67      0.00
    1    1   32    -11.58      0.00
    1    2   32      7.53      0.00
    0    2   32     10.74      0.00
    2    2   32      1.75      0.00
    2    3   32      6.02      0.00
    1    3   32      4.28      0.00
    3    3   32     -8.63      0.00
    3    4   32     -1.27      0.00
    2    4   32      6.08      0.00
    1    4   32     11.30      0.00
    0    4   32      1.27      0.00
    4    4   32     -1.04      0.00
    4    5   32      2.35      0.00
    3    5   32      5.91      0.00
    2    5   32      2.32      0.00
    1    5   32      3.84      0.00
    5    5   32     -1.71      0.00
    5    6   32     -3.71      0.00
    4    6   32      5.36      0.00
    3    6   32     -3.79      0.00
    2    6   32      2.50      0.00
    1    6   32      9.60      0.00
    0    6   32     -2.55      0.00
    6    6   32      0.47      0.00
    6    7   32      3.19      0.00
    5    7   32      1.71      0.00
    4    7   32      2.65      0.00
    3    7   32     -3.54      0.00
    2    7   32     -1.65      0.00
    1    7   32      3.18      0.00
    7    7   32     -5.61      0.00
    7    8   32      0.09      0.00
    6    8   32     -2.45      0.00
    5    8   32    -13.92      0.00
    4    8   32     -0.88      0.00
    3    8   32     -1.02      0.00
    2    8   32      3.25      0.00
    1    8   32      4.78      0.00
    0    8   32     -0.80      0.00
    8    8   32     15.21      0.00
    7    9   32      9.38      0.00
    6    9   32     12.93      0.00
    5    9   32     -1.32      0.00
    4    9   32      9.06      0.00
    3    9   32      4.28      0.00
    2    9   32     -1.95      0.00
    1    9   32      4.50      0.00
    5   10   32     19.40      0.00
    4   10   32     -8.13      0.00
    3   10   32     15.97      0.00
    2   10   32      2.01      0.00
    1   10   32     -2.57      0.00
    0   10   32    -10.93      0.00
    3   11   32     17.76      0.00
    2   11   32     12.93      0.00
    1   11   32      3.19      0.00
    1    2   33     -3.11      0.00
    0    2   33      2.94      0.00
    2    3   33     -9.92      0.00
    1    3   33     -3.01      0.00
    3    4   33    -11.82      0.00
    2    4   33     -6.77      0.00
    1    4   33      9.31      0.00
    0    4   33     -3.32      0.00
    4    5   33    -10.23      0.00
    3    5   33      5.59      0.00
    2    5   33      3.68      0.00
    1    5   33      1.77      0.00
    3    6   33      3.67      0.00
    2    6   33     -1.70      0.00
    1    6   33    -15.42      0.00
    0    6   33     -1.96      0.00
    1    7   33     -2.27      0.00
   26   27    0      0.44      0.00
   27   27    0      2.96      0.00
   25   28    0     -1.41      0.00
   26   28    0     -5.17      0.00
   27   28    0     -7.12      0.00
   28   28    0      8.61      0.00
   24   29    0     -6.37      0.00
   25   29    0     -2.64      0.00
   26   29    0      4.88      0.00
   27   29    0     -4.62      0.00
   28   29    0      1.89      0.00
   23   30    0      4.62      0.00
   24   30    0     -5.28      0.00
   25   30    0    -11.94      0.00
   26   30    0     -6.67      0.00
   27   30    0     -7.89      0.00
   21   31    0      0.55      0.00
   22   31    0      9.42      0.00
   23   31    0      4.37      0.00
   24   31    0     -6.40      0.00
   25   31    0     -6.71      0.00
   26   31    0    -11.00      0.00
   20   32    0     -4.65      0.00
   21   32    0     -3.64      0.00
   22   32    0      6.07      0.00
   23   32    0     -3.34      0.00
   24   32    0      2.91      0.00
   25   32    0      4.26      0.00
   18   33    0     -4.07      0.00
   19   33    0     -4.05      0.00
   20   33    0      9.03      0.00
   21   33    0     -5.81      0.00
   22   33    0      1.04      0.00
   23   33    0      8.25      0.00
   24   33    0      4.88      0.00
   16   34    0    -13.23      0.00
   17   34    0      1.95      0.00
   18   34    0     12.91      0.00
   19   34    0     -8.46      0.00
   20   34    0     -1.09      0.00
   21   34    0     -1.87      0.00
   22   34    0     -2.40      0.00
   14   35    0      2.65      0.00
   15   35    0    -11.74      0.00
   16   35    0     11.13      0.00
   17   35    0     14.88      0.00
   18   35    0     10.37      0.00
   19   35    0     -5.20      0.00
   20   35    0    -10.69      0.00
   21   35    0     -1.12      0.00
   10   36    0      2.01      0.00
   11   36    0    -16.20      0.00
   12   36    0      2.87      0.00
   13   36    0     -7.51      0.00
   14   36    0     -7.64      0.00
   15   36    0      8.25      0.00
   16   36    0      8.66      0.00
   17   36    0      1.89      0.00
   18   36    0      2.21      0.00
   19   36    0      4.53      0.00
    6   37    0     12.88      0.00
    7   37    0      7.00      0.00
    8   37    0      9.24      0.00
    9   37    0     -5.92      0.00
   10   37    0    -20.53      0.00
   11   37    0      4.66      0.00
   12   37    0     -7.60      0.00
   13   37    0      9.16      0.00
   14   37    0      0.40      0.00
   15   37    0     -0.03      0.00
   16   37    0     -1.53      0.00
   17   37    0      9.77      0.00
   26   27    1     -2.58      0.00
   25   28    1      3.23      0.00
   26   28    1     -0.62      0.00
   27   28    1      9.24      0.00
   24   29    1      2.30      0.00
   25   29    1     -0.86      0.00
   26   29    1     -0.58      0.00
   27   29    1      2.92      0.00
   28   29    1      2.72      0.00
   23   30    1     -5.75      0.00
   24   30    1      4.77      0.00
   25   30    1      2.16      0.00
   26   30    1      1.23      0.00
   27   30    1      2.54      0.00
   21   31    1    -12.92      0.00
   22   31    1      8.49      0.00
   23   31    1      9.19      0.00
   24   31    1      2.11      0.00
   25   31    1      0.45      0.00
   26   31    1     -1.54      0.00
   20   32    1      7.61      0.00
   21   32    1      0.05      0.00
   22   32    1      2.03      0.00
   23   32    1     -1.91      0.00
   24   32    1      3.42      0.00
   25   32    1     -3.42      0.00
   18   33    1      3.28      0.00
   19   33    1    -17.09      0.00
   20   33    1      4.16      0.00
   21   33    1      4.83      0.00
   22   33    1      1.74      0.00
   23   33    1     -3.44      0.00
   24   33    1      7.82      0.00
   16   34    1     -6.84      0.00
   17   34    1     -5.06      0.00
   18   34    1     -6.53      0.00
   19   34    1      1.53      0.00
   20   34    1     -4.89      0.00
   21   34    1     -1.61      0.00
   22   34    1      3.12      0.00
   13   35    1      3.38      0.00
   14   35    1      2.86      0.00
   15   35    1      1.31      0.00
   16   35    1     10.95      0.00
   17   35    1     -3.87      0.00
   18   35    1     -1.99      0.00
   19   35    1     -6.09      0.00
   20   35    1     -0.43      0.00
   10   36    1     -4.34      0.00
   11   36    1      8.56      0.00
   12   36    1     10.40      0.00
   13   36    1      3.91      0.00
   14   36    1      0.23      0.00
   15   36    1     -1.24      0.00
   16   36    1      2.31      0.00
   17   36    1      3.26      0.00
   18   36    1     -2.07      0.00
   19   36    1      4.15      0.00
    6   37    1     10.12      0.00
    7   37    1      0.96      0.00
    8   37    1     -0.69      0.00
    9   37    1      8.45      0.00
   10   37    1     -3.59      0.00
   11   37    1      2.72      0.00
   12   37    1     -1.50      0.00
   13   37    1     -1.33      0.00
   14   37    1      2.81      0.00
   15   37    1      2.83      0.00
   16   37    1     -3.19      0.00
   17   37    1      1.78      0.00
   26   27    2      0.03      0.00
   27   27    2     -5.75      0.00
   25   28    2    -11.19      0.00
   26   28    2      0.13      0.00
   27   28    2     -3.79      0.00
   28   28    2     -4.08      0.00
   24   29    2     13.95      0.00
   25   29    2      7.79      0.00
   26   29    2      0.39      0.00
   27   29    2     -3.12      0.00
   28   29    2      5.38      0.00
   23   30    2     -5.78      0.00
   24   30    2      3.39      0.00
   25   30    2      3.95      0.00
   26   30    2      9.97      0.00
   27   30    2     -0.83      0.00
   21   31    2      4.14      0.00
   22   31    2     -6.24      0.00
   23   31    2      0.17      0.00
   24   31    2      2.03      0.00
   25   31    2     -5.58      0.00
   26   31    2     -0.21      0.00
   20   32    2      7.98      0.00
   21   32    2     -0.43      0.00
   22   32    2      2.95      0.00
   23   32    2     -5.99      0.00
   24   32    2      2.37      0.00
   25   32    2     10.04      0.00
   18   33    2      4.00      0.00
   19   33    2     -3.52      0.00
   20   33    2     13.48      0.00
   21   33    2     -1.53      0.00
   22   33    2      7.47      0.00
   23   33    2      3.22      0.00
   16   34    2     -3.79      0.00
   17   34    2     -8.17      0.00
   18   34    2      3.01      0.00
   19   34    2      0.83      0.00
   20   34    2     -7.32      0.00
   21   34    2      6.45      0.00
   22   34    2      1.37      0.00
   13   35    2     -5.27      0.00
   14   35    2      9.05      0.00
   15   35    2    -19.59      0.00
   16   35    2    -12.15      0.00
   17   35    2      0.77      0.00
   18   35    2     -8.99      0.00
   19   35    2     -7.58      0.00
   20   35    2      0.03      0.00
   10   36    2     11.62      0.00
   11   36    2      1.72      0.00
   12   36    2     13.53      0.00
   13   36    2     14.21      0.00
   14   36    2      1.71      0.00
   15   36    2     -2.91      0.00
   16   36    2     -4.53      0.00
   17   36    2     -4.67      0.00
   18   36    2      3.48      0.00
   19   36    2     -2.47      0.00
    5   37    2      9.09      0.00
    6   37    2     -3.30      0.00
    7   37    2      8.79      0.00
    8   37    2     -7.24      0.00
    9   37    2      7.65      0.00
   10   37    2      3.15      0.00
   11   37    2      2.51      0.00
   12   37    2      4.50      0.00
   13   37    2      4.27      0.00
   14   37    2     -2.38      0.00
   15   37    2      1.47      0.00
   16   37    2     -2.45      0.00
   17   37    2     12.67      0.00
   26   27    3     -1.82      0.00
   25   28    3     10.15      0.00
   26   28    3     -7.27      0.00
   27   28    3     11.35      0.00
   24   29    3     -5.48      0.00
   25   29    3     -4.08      0.00
   26   29    3      2.06      0.00
   27   29    3      0.14      0.00
   28   29    3      7.05      0.00
   22   30    3     11.23      0.00
   23   30    3     -6.95      0.00
   24   30    3      5.15      0.00
   25   30    3      2.25      0.00
   26   30    3      0.33      0.00
   27   30    3      3.11      0.00
   21   31    3    -10.59      0.00
   22   31    3     -8.60      0.00
   23   31    3      7.69      0.00
   24   31    3     -1.86      0.00
   25   31    3     -5.02      0.00
   26   31    3     -3.78      0.00
   19   32    3     -3.83      0.00
   20   32    3     10.75      0.00
   21   32    3     -4.19      0.00
   22   32    3      0.59      0.00
   23   32    3     -2.73      0.00
   24   32    3     -0.45      0.00
   25   32    3     -6.48      0.00
   18   33    3     13.68      0.00
   19   33    3     -6.62      0.00
   20   33    3      5.52      0.00
   21   33    3      0.80      0.00
   22   33    3      5.02      0.00
   23   33    3     -2.48      0.00
   16   34    3      6.84      0.00
   17   34    3     -5.15      0.00
   18   34    3      0.80      0.00
   19   34    3      9.41      0.00
   20   34    3     -2.88      0.00
   21   34    3      4.34      0.00
   22   34    3      6.98      0.00
   13   35    3      9.23      0.00
   14   35    3     -7.14      0.00
   15   35    3      0.22      0.00
   16   35    3     -3.53      0.00
   17   35    3     -3.33      0.00
   18   35    3      5.24      0.00
   19   35    3      8.24      0.00
   20   35    3      2.12      0.00
   10   36    3    -21.82      0.00
   11   36    3      5.08      0.00
   12   36    3     -0.18      0.00
   13   36    3     -1.71      0.00
   14   36    3      3.02      0.00
   15   36    3     11.07      0.00
   16   36    3      9.32      0.00
   17   36    3     -3.33      0.00
   18   36    3     -2.00      0.00
    5   37    3      1.56      0.00
    6   37    3      5.55      0.00
    7   37    3     21.27      0.00
    8   37    3      0.49      0.00
    9   37    3     10.81      0.00
   10   37    3    -14.15      0.00
   11   37    3     -5.89      0.00
   12   37    3      9.91      0.00
   13   37    3     -7.70      0.00
   14   37    3      7.68      0.00
   15   37    3      6.94      0.00
   16   37    3     -7.15      0.00
   26   27    4      1.75      0.00
   27   27    4      5.04      0.00
   25   28    4     -0.98      0.00
   26   28    4    -11.25      0.00
   27   28    4     -4.15      0.00
   28   28    4     -2.06      0.00
   24   29    4      5.37      0.00
   25   29    4     -1.44      0.00
   26   29    4      1.47      0.00
   27   29    4     -6.16      0.00
   28   29    4      0.54      0.00
   22   30    4     11.03      0.00
   23   30    4     -2.03      0.00
   24   30    4     -0.59      0.00
   25   30    4     -2.82      0.00
   26   30    4      5.48      0.00
   27   30    4     -4.58      0.00
   21   31    4     -9.28      0.00
   22   31    4     10.19      0.00
   23   31    4     -6.82      0.00
   24   31    4      1.62      0.00
   25   31    4     -3.81      0.00
   26   31    4     -3.83      0.00
   19   32    4     -2.29      0.00
   20   32    4      3.51      0.00
   21   32    4      1.37      0.00
   22   32    4     -2.16      0.00
   23   32    4      0.18      0.00
   24   32    4     -1.19      0.00
   17   33    4     15.70      0.00
   18   33    4     -1.56      0.00
   19   33    4     -1.99      0.00
   20   33    4      0.80      0.00
   21   33    4      3.25      0.00
   22   33    4     -1.67      0.00
   23   33    4      2.84      0.00
   15   34    4     -8.05      0.00
   16   34    4    -12.74      0.00
   17   34    4     -4.68      0.00
   18   34    4      4.63      0.00
   19   34    4     -3.76      0.00
   20   34    4      8.26      0.00
   21   34    4     -1.96      0.00
   22   34    4     -3.27      0.00
   13   35    4      4.87      0.00
   14   35    4      4.51      0.00
   15   35    4    -13.29      0.00
   16   35    4     -8.10      0.00
   17   35    4     -1.68      0.00
   18   35    4     -0.26      0.00
   19   35    4     -6.18      0.00
   20   35    4     -4.12      0.00
    9   36    4     -3.64      0.00
   10   36    4     -2.67      0.00
   11   36    4    -25.61      0.00
   12   36    4     12.77      0.00
   13   36    4      5.41      0.00
   14   36    4     10.61      0.00
   15   36    4      5.38      0.00
   16   36    4      4.15      0.00
   17   36    4      8.25      0.00
   18   36    4     -3.61      0.00
    3   37    4     -1.85      0.00
    4   37    4      2.23      0.00
    5   37    4     12.26      0.00
    6   37    4     -0.84      0.00
    7   37    4      2.84      0.00
    8   37    4      9.00      0.00
    9   37    4      6.87      0.00
   10   37    4     -5.26      0.00
   11   37    4      8.22      0.00
   12   37    4    -13.36      0.00
   13   37    4      2.43      0.00
   14   37    4      7.42      0.00
   15   37    4      3.27      0.00
   16   37    4     -3.43      0.00
   26   27    5     -4.25      0.00
   25   28    5      3.47      0.00
   26   28    5      0.24      0.00
   27   28    5      2.44      0.00
   23   29    5      1.54      0.00
   24   29    5      1.83      0.00
   25   29    5    -10.44      0.00
   26   29    5    -10.15      0.00
   27   29    5      2.41      0.00
   28   29    5     -4.96      0.00
   22   30    5     -2.94      0.00
   23   30    5     -8.62      0.00
   24   30    5      5.03      0.00
   25   30    5      1.30      0.00
   26   30    5      1.04      0.00
   27   30    5     -4.53      0.00
   21   31    5    -12.55      0.00
   22   31    5     -5.26      0.00
   23   31    5      2.75      0.00
   24   31    5     -9.32      0.00
   25   31    5     -6.75      0.00
   19   32    5     14.24      0.00
   20   32    5      2.99      0.00
   21   32    5     -5.58      0.00
   22   32    5     -6.85      0.00
   23   32    5     -1.26      0.00
   24   32    5      1.73      0.00
   17   33    5     -3.57      0.00
   18   33    5     14.66      0.00
   19   33    5    -13.00      0.00
   20   33    5      6.52      0.00
   21   33    5      0.69      0.00
   22   33    5     -1.95      0.00
   23   33    5      3.38      0.00
   15   34    5      9.26      0.00
   16   34    5      8.06      0.00
   17   34    5    -17.80      0.00
   18   34    5      6.03      0.00
   19   34    5     -5.56      0.00
   20   34    5      0.53      0.00
   21   34    5      1.21      0.00
   12   35    5     -0.30      0.00
   13   35    5      7.85      0.00
   14   35    5      9.84      0.00
   15   35    5     -2.30      0.00
   16   35    5      3.67      0.00
   17   35    5      0.17      0.00
   18   35    5      0.85      0.00
   19   35    5      6.40      0.00
   20   35    5     -3.45      0.00
    9   36    5      8.86      0.00
   10   36    5     -1.91      0.00
   11   36    5     -4.96      0.00
   12   36    5      8.15      0.00
   13   36    5     -3.70      0.00
   14   36    5     -3.74      0.00
   15   36    5      7.17      0.00
   16   36    5      5.21      0.00
   17   36    5      4.76      0.00
   18   36    5     -2.71      0.00
    1   37    5     -9.46      0.00
    2   37    5     -9.21      0.00
    3   37    5     11.27      0.00
    4   37    5     -9.13      0.00
    5   37    5      4.27      0.00
    6   37    5      6.45      0.00
    7   37    5     -2.45      0.00
    8   37    5     12.40      0.00
    9   37    5      0.70      0.00
   10   37    5     -4.17      0.00
   11   37    5     12.13      0.00
   12   37    5     -7.41      0.00
   13   37    5     -0.36      0.00
   14   37    5     -2.88      0.00
   15   37    5     -1.16      0.00
   16   37    5     -2.09      0.00
   26   26    6      6.30      0.00
   25   27    6     -3.61      0.00
   26   27    6     -1.02      0.00
   27   27    6      1.35      0.00
   24   28    6    -12.10      0.00
   25   28    6      0.35      0.00
   26   28    6     -2.06      0.00
   27   28    6     -4.97      0.00
   28   28    6      1.81      0.00
   23   29    6     -2.81      0.00
   24   29    6     -5.90      0.00
   25   29    6      7.37      0.00
   26   29    6      6.50      0.00
   27   29    6      0.75      0.00
   22   30    6      0.27      0.00
   23   30    6     -1.99      0.00
   24   30    6      5.37      0.00
   25   30    6     -7.30      0.00
   26   30    6      2.63      0.00
   20   31    6      7.49      0.00
   21   31    6      0.58      0.00
   22   31    6     -5.36      0.00
   23   31    6     -1.26      0.00
   24   31    6      1.46      0.00
   25   31    6     -7.77      0.00
   19   32    6      1.74      0.00
   20   32    6     -0.28      0.00
   21   32    6      1.69      0.00
   22   32    6      2.18      0.00
   23   32    6     -9.75      0.00
   24   32    6     -4.42      0.00
   17   33    6      8.49      0.00
   18   33    6     -0.88      0.00
   19   33    6     -4.62      0.00
   20   33    6     -2.30      0.00
   21   33    6     -1.52      0.00
   22   33    6     -3.55      0.00
   23   33    6      2.29      0.00
   14   34    6     11.64      0.00
   15   34    6     -1.62      0.00
   16   34    6     -2.27      0.00
   17   34    6      6.26      0.00
   18   34    6      0.04      0.00
   19   34    6     -2.31      0.00
   20   34    6      1.23      0.00
   21   34    6     -2.61      0.00
   12   35    6     -6.76      0.00
   13   35    6     -3.30      0.00
   14   35    6      1.38      0.00
   15   35    6     -4.31      0.00
   16   35    6     -4.87      0.00
   17   35    6      4.08      0.00
   18   35    6     -0.07      0.00
   19   35    6     -3.88      0.00
    8   36    6     -5.19      0.00
    9   36    6      3.88      0.00
   10   36    6      8.99      0.00
   11   36    6      3.19      0.00
   12   36    6     -7.62      0.00
   13   36    6      7.62      0.00
   14   36    6     -1.63      0.00
   15   36    6     -1.61      0.00
   16   36    6      3.14      0.00
   17   36    6      3.21      0.00
   18   36    6      0.10      0.00
    1   37    6      4.19      0.00
    2   37    6      7.73      0.00
    3   37    6      8.19      0.00
    4   37    6    -10.36      0.00
    5   37    6     11.95      0.00
    6   37    6      4.22      0.00
    7   37    6      2.09      0.00
    8   37    6      6.33      0.00
    9   37    6      6.16      0.00
   10   37    6      4.56      0.00
   11   37    6    -11.37      0.00
   12   37    6      9.93      0.00
   13   37    6      3.43      0.00
   14   37    6     -1.52      0.00
   15   37    6     -3.14      0.00
   25   27    7     -1.63      0.00
   26   27    7      1.08      0.00
   24   28    7     17.20      0.00
   25   28    7     -3.49      0.00
   26   28    7     -0.22      0.00
   27   28    7     -2.18      0.00
   23   29    7      7.68      0.00
   24   29    7     -0.21      0.00
   25   29    7     -6.89      0.00
   26   29    7      4.24      0.00
   27   29    7      5.05      0.00
   21   30    7      3.48      0.00
   22   30    7     -7.27      0.00
   23   30    7     -5.36      0.00
   24   30    7     -5.43      0.00
   25   30    7      1.44      0.00
   26   30    7      7.38      0.00
   20   31    7    -16.89      0.00
   21   31    7      1.07      0.00
   22   31    7      2.23      0.00
   23   31    7      0.65      0.00
   24   31    7      2.86      0.00
   25   31    7     -8.17      0.00
   18   32    7     -0.58      0.00
   19   32    7     -8.77      0.00
   20   32    7      0.04      0.00
   21   32    7      0.44      0.00
   22   32    7     -2.01      0.00
   23   32    7      5.40      0.00
   24   32    7      4.46      0.00
   16   33    7     -3.12      0.00
   17   33    7     -6.51      0.00
   18   33    7      0.39      0.00
   19   33    7    -15.99      0.00
   20   33    7      2.80      0.00
   21   33    7      5.95      0.00
   22   33    7      2.94      0.00
   14   34    7      9.04      0.00
   15   34    7      6.94      0.00
   16   34    7     12.70      0.00
   17   34    7     -6.89      0.00
   18   34    7      5.14      0.00
   19   34    7     -3.27      0.00
   20   34    7     -5.50      0.00
   21   34    7     -1.00      0.00
   11   35    7     -3.03      0.00
   12   35    7     -0.07      0.00
   13   35    7    -10.67      0.00
   14   35    7     -6.54      0.00
   15   35    7      1.77      0.00
   16   35    7      0.00      0.00
   17   35    7      3.82      0.00
   18   35    7     10.40      0.00
   19   35    7     -0.26      0.00
    7   36    7    -21.72      0.00
    8   36    7      3.56      0.00
    9   36    7     -1.82      0.00
   10   36    7    -13.27      0.00
   11   36    7      5.07      0.00
   12   36    7      0.04      0.00
   13   36    7      7.15      0.00
   14   36    7     -4.26      0.00
   15   36    7     -1.75      0.00
   16   36    7      3.39      0.00
   17   36    7     -6.28      0.00
    1   37    7      3.03      0.00
    2   37    7     -2.88      0.00
    3   37    7     -5.86      0.00
    4   37    7     -0.73      0.00
    5   37    7      7.12      0.00
    6   37    7      0.34      0.00
    7   37    7     -3.59      0.00
    8   37    7      0.75      0.00
    9   37    7      8.89      0.00
   10   37    7     -6.87      0.00
   11   37    7      1.40      0.00
   12   37    7      4.46      0.00
   13   37    7      1.62      0.00
   14   37    7      0.21      0.00
   15   37    7      2.76      0.00
   26   26    8     -5.53      0.00
   25   27    8    -10.69      0.00
   26   27    8      4.93      0.00
   27   27    8    -10.77      0.00
   24   28    8      2.31      0.00
   25   28    8      1.03      0.00
   26   28    8     -0.31      0.00
   27   28    8      0.02      0.00
   28   28    8     -9.68      0.00
   22   29    8    -12.21      0.00
   23   29    8      6.18      0.00
   24   29    8      1.90      0.00
   25   29    8     -5.04      0.00
   26   29    8     -0.06      0.00
   27   29    8      0.30      0.00
   21   30    8      1.15      0.00
   22   30    8      3.22      0.00
   23   30    8     -4.61      0.00
   24   30    8      4.69      0.00
   25   30    8      7.63      0.00
   26   30    8     -1.44      0.00
   19   31    8    -10.44      0.00
   20   31    8      0.26      0.00
   21   31    8     -8.17      0.00
   22   31    8     11.49      0.00
   23   31    8     -0.70      0.00
   24   31    8     -6.10      0.00
   25   31    8      0.93      0.00
   18   32    8      0.91      0.00
   19   32    8     -8.34      0.00
   20   32    8     -1.71      0.00
   21   32    8      0.25      0.00
   22   32    8     -8.19      0.00
   23   32    8     -1.28      0.00
   16   33    8      1.31      0.00
   17   33    8      0.66      0.00
   18   33    8     -6.70      0.00
   19   33    8    -13.81      0.00
   20   33    8     -1.15      0.00
   21   33    8     -7.98      0.00
   22   33    8     -1.72      0.00
   13   34    8     17.15      0.00
   14   34    8      2.25      0.00
   15   34    8     -0.15      0.00
   16   34    8      0.94      0.00
   17   34    8      1.44      0.00
   18   34    8     -1.98      0.00
   19   34    8     -2.21      0.00
   20   34    8     -1.67      0.00
   10   35    8     -7.16      0.00
   11   35    8     -8.39      0.00
   12   35    8    -17.36      0.00
   13   35    8     -4.10      0.00
   14   35    8      5.24      0.00
   15   35    8     -2.34      0.00
   16   35    8      3.30      0.00
   17   35    8      3.84      0.00
   18   35    8      1.89      0.00
   19   35    8     -2.87      0.00
    5   36    8      2.57      0.00
    6   36    8     -0.92      0.00
    7   36    8     -6.57      0.00
    8   36    8      6.17      0.00
    9   36    8     -1.47      0.00
   10   36    8      0.56      0.00
   11   36    8      0.42      0.00
   12   36    8      6.50      0.00
   13   36    8     -0.46      0.00
   14   36    8     -4.15      0.00
   15   36    8      2.26      0.00
   16   36    8      5.42      0.00
   17   36    8      3.80      0.00
    1   37    8     -1.32      0.00
    2   37    8     -3.91      0.00
    3   37    8     -0.80      0.00
    4   37    8      1.31      0.00
    5   37    8      2.53      0.00
    6   37    8      3.22      0.00
    7   37    8     -7.76      0.00
    8   37    8      1.72      0.00
    9   37    8      7.96      0.00
   10   37    8      6.17      0.00
   11   37    8     -2.75      0.00
   12   37    8      3.59      0.00
   13   37    8      2.93      0.00
   14   37    8      6.97      0.00
   25   26    9     13.87      0.00
   24   27    9      2.84      0.00
   25   27    9     -5.01      0.00
   26   27    9      2.46      0.00
   23   28    9      5.01      0.00
   24   28    9      5.94      0.00
   25   28    9      3.17      0.00
   26   28    9     -8.95      0.00
   27   28    9     -2.22      0.00
   22   29    9      1.58      0.00
   23   29    9     -0.18      0.00
   24   29    9      4.30      0.00
   25   29    9     -1.98      0.00
   26   29    9      1.49      0.00
   20   30    9      3.67      0.00
   21   30    9    -10.05      0.00
   22   30    9      5.48      0.00
   23   30    9     -1.07      0.00
   24   30    9      3.00      0.00
   25   30    9      1.99      0.00
   19   31    9     -5.93      0.00
   20   31    9     -3.17      0.00
   21   31    9    -12.48      0.00
   22   31    9     -1.04      0.00
   23   31    9      1.37      0.00
   24   31    9      1.99      0.00
   17   32    9    -12.06      0.00
   18   32    9      1.17      0.00
   19   32    9      4.21      0.00
   20   32    9     -0.57      0.00
   21   32    9      3.35      0.00
   22   32    9     -2.23      0.00
   23   32    9     -4.45      0.00
   15   33    9     -4.23      0.00
   16   33    9    -14.80      0.00
   17   33    9      5.00      0.00
   18   33    9     -2.90      0.00
   19   33    9     -1.56      0.00
   20   33    9      5.73      0.00
   21   33    9     -0.75      0.00
   12   34    9      1.63      0.00
   13   34    9     -3.94      0.00
   14   34    9     12.76      0.00
   15   34    9      3.53      0.00
   16   34    9      1.50      0.00
   17   34    9      5.33      0.00
   18   34    9      8.09      0.00
   19   34    9      0.70      0.00
   20   34    9      0.08      0.00
    9   35    9     12.18      0.00
   10   35    9      2.92      0.00
   11   35    9      9.22      0.00
   12   35    9      1.07      0.00
   13   35    9     -5.66      0.00
   14   35    9     -3.57      0.00
   15   35    9     -6.02      0.00
   16   35    9      0.52      0.00
   17   35    9      3.42      0.00
   18   35    9      2.90      0.00
    0   36    9     -3.72      0.00
    1   36    9     -1.42      0.00
    2   36    9      6.88      0.00
    3   36    9     -5.34      0.00
    4   36    9      2.39      0.00
    5   36    9     -8.88      0.00
    6   36    9     -0.96      0.00
    7   36    9      3.43      0.00
    8   36    9     -9.42      0.00
    9   36    9     -0.64      0.00
   10   36    9     10.74      0.00
   11   36    9      3.97      0.00
   12   36    9     14.08      0.00
   13   36    9     -6.94      0.00
   14   36    9     -1.51      0.00
   15   36    9     -1.54      0.00
   16   36    9     -0.87      0.00
    1   37    9     -4.48      0.00
    2   37    9    -10.85      0.00
    3   37    9     -1.48      0.00
    4   37    9     -7.46      0.00
    5   37    9      4.77      0.00
    6   37    9      4.67      0.00
    7   37    9     10.45      0.00
    8   37    9      1.84      0.00
    9   37    9     -0.01      0.00
   10   37    9     -7.38      0.00
   11   37    9      2.61      0.00
   12   37    9     -3.39      0.00
   13   37    9     -0.04      0.00
   14   37    9     -3.22      0.00
   25   26   10     -1.46      0.00
   26   26   10     -9.81      0.00
   24   27   10      0.83      0.00
   25   27   10     -7.63      0.00
   26   27   10     -5.26      0.00
   27   27   10     -6.75      0.00
   23   28   10      0.48      0.00
   24   28   10     -2.06      0.00
   25   28   10      2.85      0.00
   26   28   10     -0.52      0.00
   27   28   10     -0.73      0.00
   21   29   10      5.56      0.00
   22   29   10     -4.29      0.00
   23   29   10     -6.76      0.00
   24   29   10      5.37      0.00
   25   29   10     -6.67      0.00
   26   29   10     -5.47      0.00
   20   30   10      3.67      0.00
   21   30   10     -6.12      0.00
   22   30   10      9.05      0.00
   23   30   10      5.33      0.00
   24   30   10      2.80      0.00
   25   30   10      6.11      0.00
   18   31   10      3.71      0.00
   19   31   10     12.35      0.00
   20   31   10      0.87      0.00
   21   31   10      0.28      0.00
   22   31   10      0.90      0.00
   23   31   10     -0.20      0.00
   24   31   10     -4.85      0.00
   16   32   10     12.03      0.00
   17   32   10      3.68      0.00
   18   32   10     -2.39      0.00
   19   32   10      1.03      0.00
   20   32   10      6.80      0.00
   21   32   10     -1.00      0.00
   22   32   10     -1.26      0.00
   14   33   10      5.11      0.00
   15   33   10      1.54      0.00
   16   33   10      7.17      0.00
   17   33   10      6.91      0.00
   18   33   10     -6.74      0.00
   19   33   10     -4.07      0.00
   20   33   10      2.10      0.00
   21   33   10     -8.71      0.00
   11   34   10      3.50      0.00
   12   34   10     -4.74      0.00
   13   34   10    -11.33      0.00
   14   34   10     -8.13      0.00
   15   34   10    -10.86      0.00
   16   34   10     -8.78      0.00
   17   34   10      1.57      0.00
   18   34   10     -4.65      0.00
   19   34   10      0.12      0.00
    7   35   10      2.84      0.00
    8   35   10      1.74      0.00
    9   35   10      0.52      0.00
   10   35   10      5.67      0.00
   11   35   10      1.35      0.00
   12   35   10     -5.57      0.00
   13   35   10     -3.82      0.00
   14   35   10     -4.34      0.00
   15   35   10     -9.57      0.00
   16   35   10     -4.35      0.00
   17   35   10     -2.35      0.00
    0   36   10    -18.40      0.00
    1   36   10      7.47      0.00
    2   36   10      1.26      0.00
    3   36   10      9.51      0.00
    4   36   10      5.73      0.00
    5   36   10     -0.47      0.00
    6   36   10    -12.13      0.00
    7   36   10     -2.60      0.00
    8   36   10     -7.67      0.00
    9   36   10      1.50      0.00
   10   36   10     -1.13      0.00
   11   36   10     -2.26      0.00
   12   36   10      2.49      0.00
   13   36   10      1.96      0.00
   14   36   10      0.07      0.00
   15   36   10     -2.81      0.00
    1   37   10     -1.65      0.00
    2   37   10     -5.30      0.00
    3   37   10      0.21      0.00
    4   37   10      2.00      0.00
    5   37   10     -2.22      0.00
    6   37   10     -4.11      0.00
    7   37   10     -2.85      0.00
    8   37   10      1.18      0.00
    9   37   10      4.70      0.00
   10   37   10      0.89      0.00
   11   37   10     -2.74      0.00
   12   37   10      5.71      0.00
   13   37   10      0.19      0.00
   24   26   11      0.14      0.00
   25   26   11      6.94      0.00
   23   27   11     14.20      0.00
   24   27   11     -1.18      0.00
   25   27   11     -7.87      0.00
   26   27   11      3.87      0.00
   22   28   11      8.34      0.00
   23   28   11      9.86      0.00
   24   28   11      2.40      0.00
   25   28   11      2.96      0.00
   26   28   11     -0.79      0.00
   27   28   11      6.27      0.00
   21   29   11     -4.96      0.00
   22   29   11     -3.09      0.00
   23   29   11     -7.10      0.00
   24   29   11     -4.07      0.00
   25   29   11      5.90      0.00
   26   29   11      3.42      0.00
   19   30   11      0.22      0.00
   20   30   11      8.73      0.00
   21   30   11      2.10      0.00
   22   30   11      2.72      0.00
   23   30   11    -10.12      0.00
   24   30   11     -2.53      0.00
   17   31   11     -1.49      0.00
   18   31   11      1.04      0.00
   19   31   11     -4.45      0.00
   20   31   11    -12.60      0.00
   21   31   11     -6.52      0.00
   22   31   11      4.23      0.00
   23   31   11     -7.39      0.00
   15   32   11      2.19      0.00
   16   32   11     -0.34      0.00
   17   32   11      7.38      0.00
   18   32   11     -7.83      0.00
   19   32   11      3.51      0.00
   20   32   11     -1.79      0.00
   21   32   11     -7.40      0.00
   22   32   11     -0.02      0.00
   13   33   11      7.39      0.00
   14   33   11     -1.17      0.00
   15   33   11     20.53      0.00
   16   33   11     -2.08      0.00
   17   33   11      8.34      0.00
   18   33   11     -1.11      0.00
   19   33   11     -4.10      0.00
   20   33   11      3.24      0.00
   10   34   11      5.33      0.00
   11   34   11     11.06      0.00
   12   34   11      7.11      0.00
   13   34   11      3.90      0.00
   14   34   11     -7.16      0.00
   15   34   11     -4.36      0.00
   16   34   11      2.57      0.00
   17   34   11      3.69      0.00
   18   34   11      4.93      0.00
   19   34   11      5.91      0.00
    5   35   11     -1.91      0.00
    6   35   11      1.69      0.00
    7   35   11      8.50      0.00
    8   35   11      4.56      0.00
    9   35   11     -9.84      0.00
   10   35   11     -2.77      0.00
   11   35   11      1.49      0.00
   12   35   11     10.17      0.00
   13   35   11     -4.37      0.00
   14   35   11      6.87      0.00
   15   35   11     -4.60      0.00
   16   35   11      6.27      0.00
   17   35   11     -4.94      0.00
    0   36   11    -15.45      0.00
    1   36   11      2.11      0.00
    2   36   11     -0.53      0.00
    3   36   11      2.08      0.00
    4   36   11      8.04      0.00
    5   36   11      7.99      0.00
    6   36   11      4.95      0.00
    7   36   11     -6.25      0.00
    8   36   11      4.26      0.00
    9   36   11    -12.15      0.00
   10   36   11    -10.30      0.00
   11   36   11      5.00      0.00
   12   36   11     -0.84      0.00
   13   36   11      3.35      0.00
   14   36   11     -0.07      0.00
    1   37   11     -3.60      0.00
    2   37   11     -3.97      0.00
    3   37   11      3.29      0.00
    4   37   11     -5.94      0.00
    5   37   11      1.79      0.00
    6   37   11     -3.16      0.00
    7   37   11     -0.11      0.00
    8   37   11      5.65      0.00
    9   37   11      5.56      0.00
   10   37   11     -6.66      0.00
   11   37   11     -2.26      0.00
   12   37   11      9.33      0.00
   25   25   12     -3.97      0.00
   24   26   12      2.21      0.00
   25   26   12      1.34      0.00
   26   26   12      0.21      0.00
   23   27   12      7.21      0.00
   24   27   12      5.76      0.00
   25   27   12     -0.06      0.00
   26   27   12     -2.80      0.00
   27   27   12      0.65      0.00
   21   28   12      0.98      0.00
   22   28   12     -4.70      0.00
   23   28   12     -0.04      0.00
   24   28   12      7.44      0.00
   25   28   12      7.83      0.00
   26   28   12      2.22      0.00
   20   29   12      0.01      0.00
   21   29   12     10.56      0.00
   22   29   12     -0.15      0.00
   23   29   12      4.38      0.00
   24   29   12     -0.72      0.00
   25   29   12      7.24      0.00
   18   30   12     -0.74      0.00
   19   30   12     -3.82      0.00
   20   30   12      9.89      0.00
   21   30   12     -5.06      0.00
   22   30   12      8.28      0.00
   23   30   12      6.02      0.00
   24   30   12      8.82      0.00
   17   31   12      3.18      0.00
   18   31   12     -6.45      0.00
   19   31   12      0.10      0.00
   20   31   12      5.18      0.00
   21   31   12      7.11      0.00
   22   31   12     -3.08      0.00
   23   31   12      2.90      0.00
   15   32   12     -6.08      0.00
   16   32   12     -1.62      0.00
   17   32   12      2.25      0.00
   18   32   12      4.16      0.00
   19   32   12     -3.54      0.00
   20   32   12      4.00      0.00
   21   32   12      2.22      0.00
   12   33   12    -16.52      0.00
   13   33   12     -4.45      0.00
   14   33   12      0.10      0.00
   15   33   12     -2.16      0.00
   16   33   12      5.91      0.00
   17   33   12      5.85      0.00
   18   33   12      2.30      0.00
   19   33   12      3.83      0.00
   20   33   12     -3.71      0.00
    8   34   12      2.30      0.00
    9   34   12     -8.94      0.00
   10   34   12      8.27      0.00
   11   34   12     -4.62      0.00
   12   34   12      3.90      0.00
   13   34   12     -6.35      0.00
   14   34   12      7.24      0.00
   15   34   12     -6.29      0.00
   16   34   12     -5.15      0.00
   17   34   12      0.55      0.00
   18   34   12     -6.22      0.00
    1   35   12     -2.86      0.00
    2   35   12     14.94      0.00
    3   35   12    -11.02      0.00
    4   35   12     -1.12      0.00
    5   35   12     -6.88      0.00
    6   35   12     -4.11      0.00
    7   35   12      3.68      0.00
    8   35   12      1.74      0.00
    9   35   12     -2.80      0.00
   10   35   12     -4.30      0.00
   11   35   12      7.13      0.00
   12   35   12      2.16      0.00
   13   35   12      0.75      0.00
   14   35   12      1.58      0.00
   15   35   12      6.36      0.00
   16   35   12      1.89      0.00
    0   36   12      6.00      0.00
    1   36   12     -7.19      0.00
    2   36   12      0.81      0.00
    3   36   12      5.73      0.00
    4   36   12      5.58      0.00
    5   36   12     -1.96      0.00
    6   36   12     -8.82      0.00
    7   36   12      0.87      0.00
    8   36   12     -5.52      0.00
    9   36   12      0.63      0.00
   10   36   12      1.29      0.00
   11   36   12     -8.26      0.00
   12   36   12     -0.88      0.00
   13   36   12      1.09      0.00
    1   37   12     -5.32      0.00
    2   37   12     -8.03      0.00
    3   37   12      0.44      0.00
    4   37   12     -8.98      0.00
    5   37   12     -1.57      0.00
    6   37   12      8.47      0.00
    7   37   12     12.04      0.00
    8   37   12      5.12      0.00
    9   37   12      9.01      0.00
   10   37   12     -3.31      0.00
   11   37   12     -8.00      0.00
   24   25   13    -13.81      0.00
   23   26   13      5.08      0.00
   24   26   13      6.94      0.00
   25   26   13      5.96      0.00
   22   27   13     -3.54      0.00
   23   27   13      2.07      0.00
   24   27   13      3.61      0.00
   25   27   13     -2.27      0.00
   26   27   13      3.64      0.00
   21   28   13     -2.39      0.00
   22   28   13      0.28      0.00
   23   28   13      0.61      0.00
   24   28   13     -4.89      0.00
   25   28   13     -1.23      0.00
   19   29   13      9.62      0.00
   20   29   13     16.14      0.00
   21   29   13    -10.44      0.00
   22   29   13     -2.46      0.00
   23   29   13      0.61      0.00
   24   29   13     -2.16      0.00
   18   30   13     -0.35      0.00
   19   30   13      8.15      0.00
   20   30   13     11.29      0.00
   21   30   13     -4.67      0.00
   22   30   13      2.58      0.00
   23   30   13      4.58      0.00
   15   31   13     -7.28      0.00
   16   31   13     -5.15      0.00
   17   31   13     10.55      0.00
   18   31   13      7.57      0.00
   19   31   13     -1.10      0.00
   20   31   13      1.46      0.00
   21   31   13     -0.49      0.00
   22   31   13      0.22      0.00
   13   32   13     -2.61      0.00
   14   32   13     -9.46      0.00
   15   32   13     -8.43      0.00
   16   32   13     -7.83      0.00
   17   32   13     -3.69      0.00
   18   32   13      0.87      0.00
   19   32   13      0.27      0.00
   20   32   13     -1.52      0.00
   10   33   13     -7.56      0.00
   11   33   13      0.39      0.00
   12   33   13     -1.48      0.00
   13   33   13      5.83      0.00
   14   33   13     -2.25      0.00
   15   33   13      4.86      0.00
   16   33   13      2.44      0.00
   17   33   13     -4.09      0.00
   18   33   13     -5.24      0.00
   19   33   13      0.81      0.00
    6   34   13     -1.40      0.00
    7   34   13     -0.97      0.00
    8   34   13     -1.78      0.00
    9   34   13     -6.23      0.00
   10   34   13      9.91      0.00
   11   34   13     23.28      0.00
   12   34   13     -4.28      0.00
   13   34   13     -0.92      0.00
   14   34   13     -3.52      0.00
   15   34   13     -1.42      0.00
   16   34   13      4.28      0.00
   17   34   13     -5.42      0.00
    1   35   13    -10.03      0.00
    2   35   13     -8.13      0.00
    3   35   13      1.00      0.00
    4   35   13      6.58      0.00
    5   35   13      0.87      0.00
    6   35   13      2.80      0.00
    7   35   13     -4.34      0.00
    8   35   13     -3.22      0.00
    9   35   13     -2.82      0.00
   10   35   13     -6.26      0.00
   11   35   13     -0.27      0.00
   12   35   13      0.07      0.00
   13   35   13      6.28      0.00
   14   35   13      8.77      0.00
   15   35   13      0.00      0.00
    0   36   13    -19.52      0.00
    1   36   13     -4.56      0.00
    2   36   13     -1.24      0.00
    3   36   13      3.02      0.00
    4   36   13     -0.40      0.00
    5   36   13      4.86      0.00
    6   36   13      8.03      0.00
    7   36   13      2.47      0.00
    8   36   13     -4.03      0.00
    9   36   13     -7.44      0.00
   10   36   13     -4.64      0.00
   11   36   13     -0.92      0.00
   12   36   13      0.80      0.00
    1   37   13     -0.73      0.00
    2   37   13     -3.13      0.00
    3   37   13      1.92      0.00
    4   37   13     -8.27      0.00
    5   37   13     -3.86      0.00
    6   37   13      6.35      0.00
    7   37   13     -9.75      0.00
    8   37   13     -2.17      0.00
    9   37   13      1.65      0.00
   24   25   14      9.63      0.00
   25   25   14     -1.09      0.00
   22   26   14     10.79      0.00
   23   26   14     -4.15      0.00
   24   26   14      7.35      0.00
   25   26   14      2.42      0.00
   26   26   14      0.11      0.00
   21   27   14     -8.18      0.00
   22   27   14      3.09      0.00
   23   27   14     -2.42      0.00
   24   27   14     -0.86      0.00
   25   27   14      2.46      0.00
   26   27   14     -0.34      0.00
   20   28   14     -5.26      0.00
   21   28   14     -4.82      0.00
   22   28   14     -6.28      0.00
   23   28   14      6.58      0.00
   24   28   14     -0.01      0.00
   25   28   14      4.94      0.00
   18   29   14     -0.47      0.00
   19   29   14     -8.92      0.00
   20   29   14      5.10      0.00
   21   29   14     -0.47      0.00
   22   29   14     -1.54      0.00
   23   29   14      9.30      0.00
   24   29   14      2.97      0.00
   16   30   14     -5.12      0.00
   17   30   14      0.10      0.00
   18   30   14     -1.96      0.00
   19   30   14     -2.71      0.00
   20   30   14     -3.30      0.00
   21   30   14      7.26      0.00
   22   30   14     -0.25      0.00
   14   31   14      1.65      0.00
   15   31   14     -9.08      0.00
   16   31   14      0.68      0.00
   17   31   14     -1.35      0.00
   18   31   14      2.12      0.00
   19   31   14     -1.11      0.00
   20   31   14     -4.24      0.00
   21   31   14      1.14      0.00
   12   32   14    -12.83      0.00
   13   32   14     -8.93      0.00
   14   32   14      7.71      0.00
   15   32   14      4.16      0.00
   16   32   14     -3.96      0.00
   17   32   14     -3.21      0.00
   18   32   14     -6.87      0.00
   19   32   14     -4.29      0.00
   20   32   14      4.94      0.00
    8   33   14    -12.59      0.00
    9   33   14      2.54      0.00
   10   33   14     -9.83      0.00
   11   33   14     -2.20      0.00
   12   33   14      1.25      0.00
   13   33   14      1.33      0.00
   14   33   14     11.69      0.00
   15   33   14     -5.97      0.00
   16   33   14     -5.28      0.00
   17   33   14      2.16      0.00
   18   33   14     -3.41      0.00
    0   34   14     21.26      0.00
    1   34   14      1.73      0.00
    2   34   14     -0.81      0.00
    3   34   14     10.38      0.00
    4   34   14     -2.31      0.00
    5   34   14      6.78      0.00
    6   34   14     -3.21      0.00
    7   34   14    -14.55      0.00
    8   34   14     -5.43      0.00
    9   34   14    -13.01      0.00
   10   34   14     -3.12      0.00
   11   34   14     -5.99      0.00
   12   34   14     -9.13      0.00
   13   34   14      6.91      0.00
   14   34   14      0.09      0.00
   15   34   14     -0.63      0.00
   16   34   14     -6.57      0.00
    1   35   14     -9.45      0.00
    2   35   14      0.10      0.00
    3   35   14     -9.21      0.00
    4   35   14      0.94      0.00
    5   35   14     -4.24      0.00
    6   35   14      1.51      0.00
    7   35   14      7.72      0.00
    8   35   14     -1.13      0.00
    9   35   14      7.00      0.00
   10   35   14     -0.91      0.00
   11   35   14    -12.17      0.00
   12   35   14     -1.27      0.00
   13   35   14      0.97      0.00
   14   35   14     -1.96      0.00
    0   36   14      8.31      0.00
    1   36   14      1.88      0.00
    2   36   14      4.10      0.00
    3   36   14     -0.22      0.00
    4   36   14     -5.09      0.00
    5   36   14     -3.11      0.00
    6   36   14      0.09      0.00
    7   36   14     -0.95      0.00
    8   36   14      1.33      0.00
    9   36   14     -8.56      0.00
   10   36   14     -0.28      0.00
   11   36   14     -3.05      0.00
    1   37   14     -0.19      0.00
    2   37   14      3.28      0.00
    3   37   14     -2.42      0.00
    4   37   14     -0.65      0.00
    5   37   14      1.56      0.00
    6   37   14     -3.43      0.00
    7   37   14      9.63      0.00
   23   25   15     11.24      0.00
   24   25   15    -12.04      0.00
   21   26   15     -6.93      0.00
   22   26   15     -7.80      0.00
   23   26   15      9.94      0.00
   24   26   15      4.88      0.00
   25   26   15     -1.52      0.00
   20   27   15      7.68      0.00
   21   27   15     -6.85      0.00
   22   27   15      9.26      0.00
   23   27   15      2.51      0.00
   24   27   15     -7.18      0.00
   25   27   15     -2.63      0.00
   19   28   15     -5.23      0.00
   20   28   15     -0.12      0.00
   21   28   15      9.89      0.00
   22   28   15     -3.93      0.00
   23   28   15     -4.24      0.00
   24   28   15     -3.05      0.00
   17   29   15      2.95      0.00
   18   29   15     -4.76      0.00
   19   29   15     -1.57      0.00
   20   29   15      7.96      0.00
   21   29   15     -5.19      0.00
   22   29   15     -4.29      0.00
   23   29   15     -2.50      0.00
   15   30   15      8.47      0.00
   16   30   15     -5.23      0.00
   17   30   15     -4.15      0.00
   18   30   15     -4.36      0.00
   19   30   15     10.10      0.00
   20   30   15      3.44      0.00
   21   30   15     -1.52      0.00
   22   30   15     -0.64      0.00
   13   31   15      5.84      0.00
   14   31   15      4.53      0.00
   15   31   15     -3.06      0.00
   16   31   15     -3.09      0.00
   17   31   15    -10.62      0.00
   18   31   15     -1.65      0.00
   19   31   15     -1.78      0.00
   20   31   15     -0.87      0.00
   10   32   15     10.51      0.00
   11   32   15      1.14      0.00
   12   32   15     14.69      0.00
   13   32   15    -10.22      0.00
   14   32   15     -7.51      0.00
   15   32   15     -8.93      0.00
   16   32   15     -4.20      0.00
   17   32   15     -1.41      0.00
   18   32   15      1.26      0.00
   19   32   15      2.42      0.00
    6   33   15     11.26      0.00
    7   33   15     -6.78      0.00
    8   33   15     -4.90      0.00
    9   33   15      5.07      0.00
   10   33   15     -1.04      0.00
   11   33   15     -3.77      0.00
   12   33   15     -3.59      0.00
   13   33   15     -2.71      0.00
   14   33   15      6.90      0.00
   15   33   15     -3.39      0.00
   16   33   15      0.55      0.00
   17   33   15     -0.31      0.00
    0   34   15     13.48      0.00
    1   34   15     -9.38      0.00
    2   34   15     -7.91      0.00
    3   34   15     -1.97      0.00
    4   34   15      9.68      0.00
    5   34   15    -10.69      0.00
    6   34   15      0.40      0.00
    7   34   15      5.70      0.00
    8   34   15    -10.94      0.00
    9   34   15      2.56      0.00
   10   34   15     -4.54      0.00
   11   34   15      2.43      0.00
   12   34   15     -6.86      0.00
   13   34   15      5.81      0.00
   14   34   15     -3.25      0.00
   15   34   15     -2.92      0.00
    1   35   15     -5.51      0.00
    2   35   15      1.92      0.00
    3   35   15      1.26      0.00
    4   35   15      1.15      0.00
    5   35   15    -10.10      0.00
    6   35   15     -1.19      0.00
    7   35   15      3.33      0.00
    8   35   15     -7.01      0.00
    9   35   15      1.17      0.00
   10   35   15     -3.34      0.00
   11   35   15     -1.47      0.00
   12   35   15     -3.78      0.00
    0   36   15     -2.54      0.00
    1   36   15      4.20      0.00
    2   36   15     -3.35      0.00
    3   36   15     -0.30      0.00
    4   36   15     -4.39      0.00
    5   36   15     -2.75      0.00
    6   36   15      7.60      0.00
    7   36   15     -9.84      0.00
    8   36   15      7.48      0.00
    9   36   15     -2.51      0.00
    1   37   15      2.10      0.00
    2   37   15      0.84      0.00
    3   37   15     -0.57      0.00
    4   37   15    -10.28      0.00
   23   24   16      6.16      0.00
   24   24   16      0.63      0.00
   22   25   16     -9.10      0.00
   23   25   16     10.63      0.00
   24   25   16      7.24      0.00
   25   25   16     -9.81      0.00
   21   26   16    -12.99      0.00
   22   26   16     -7.97      0.00
   23   26   16    -11.76      0.00
   24   26   16      3.10      0.00
   25   26   16      1.29      0.00
   26   26   16      3.56      0.00
   19   27   16     -3.49      0.00
   20   27   16     -5.98      0.00
   21   27   16    -10.86      0.00
   22   27   16     -5.00      0.00
   23   27   16      2.90      0.00
   24   27   16     -3.60      0.00
   18   28   16      5.79      0.00
   19   28   16      0.49      0.00
   20   28   16     -8.44      0.00
   21   28   16      0.32      0.00
   22   28   16      0.42      0.00
   23   28   16     -5.17      0.00
   16   29   16     13.82      0.00
   17   29   16     -1.75      0.00
   18   29   16     10.03      0.00
   19   29   16      3.42      0.00
   20   29   16     -3.26      0.00
   21   29   16      5.50      0.00
   22   29   16     -7.79      0.00
   14   30   16      3.28      0.00
   15   30   16     -7.09      0.00
   16   30   16      5.48      0.00
   17   30   16      2.65      0.00
   18   30   16      5.91      0.00
   19   30   16      4.29      0.00
   20   30   16     -9.57      0.00
   21   30   16      2.80      0.00
   11   31   16    -14.38      0.00
   12   31   16      2.46      0.00
   13   31   16      0.83      0.00
   14   31   16      2.91      0.00
   15   31   16      1.71      0.00
   16   31   16     -1.76      0.00
   17   31   16     11.48      0.00
   18   31   16     -1.41      0.00
   19   31   16     -5.30      0.00
    8   32   16     -0.95      0.00
    9   32   16     -3.12      0.00
   10   32   16     10.01      0.00
   11   32   16      3.78      0.00
   12   32   16    -11.80      0.00
   13   32   16      1.68      0.00
   14   32   16     -4.01      0.00
   15   32   16      1.80      0.00
   16   32   16      5.72      0.00
   17   32   16     -2.92      0.00
   18   32   16     -1.99      0.00
    1   33   16     10.83      0.00
    2   33   16     -5.27      0.00
    3   33   16      1.78      0.00
    4   33   16      2.29      0.00
    5   33   16      1.41      0.00
    6   33   16      7.37      0.00
    7   33   16      4.63      0.00
    8   33   16     -3.92      0.00
    9   33   16      1.42      0.00
   10   33   16     -2.06      0.00
   11   33   16     -0.27      0.00
   12   33   16     -3.87      0.00
   13   33   16     -1.49      0.00
   14   33   16      0.97      0.00
   15   33   16     -2.30      0.00
   16   33   16     -5.03      0.00
    0   34   16     15.52      0.00
    1   34   16      3.12      0.00
    2   34   16      7.85      0.00
    3   34   16      6.26      0.00
    4   34   16     -2.66      0.00
    5   34   16     -5.70      0.00
    6   34   16    -11.55      0.00
    7   34   16      4.81      0.00
    8   34   16      3.85      0.00
    9   34   16     -3.41      0.00
   10   34   16     -4.52      0.00
   11   34   16      1.37      0.00
   12   34   16     -0.56      0.00
   13   34   16     -4.54      0.00
   14   34   16     -4.68      0.00
    1   35   16     -2.50      0.00
    2   35   16     11.53      0.00
    3   35   16      1.84      0.00
    4   35   16     -2.27      0.00
    5   35   16      1.85      0.00
    6   35   16      1.35      0.00
    7   35   16      1.07      0.00
    8   35   16     -0.55      0.00
    9   35   16      0.04      0.00
   10   35   16      1.62      0.00
   11   35   16      1.77      0.00
    0   36   16     11.93      0.00
    1   36   16      0.50      0.00
    2   36   16      2.07      0.00
    3   36   16     -8.14      0.00
    4   36   16      2.83      0.00
    5   36   16      5.99      0.00
    6   36   16      0.59      0.00
    7   36   16     -3.87      0.00
   22   24   17     -2.72      0.00
   23   24   17    -19.19      0.00
   21   25   17     21.26      0.00
   22   25   17     -6.82      0.00
   23   25   17     -8.37      0.00
   24   25   17     10.13      0.00
   20   26   17    -13.16      0.00
   21   26   17      0.70      0.00
   22   26   17      2.12      0.00
   23   26   17     -5.72      0.00
   24   26   17     -2.01      0.00
   25   26   17      7.07      0.00
   18   27   17      5.57      0.00
   19   27   17      2.32      0.00
   20   27   17     -2.18      0.00
   21   27   17     -6.51      0.00
   22   27   17      0.95      0.00
   23   27   17      1.72      0.00
   24   27   17     -7.07      0.00
   16   28   17     -1.56      0.00
   17   28   17      6.35      0.00
   18   28   17    -13.70      0.00
   19   28   17      3.00      0.00
   20   28   17      2.23      0.00
   21   28   17     -3.59      0.00
   22   28   17      3.64      0.00
   15   29   17      4.40      0.00
   16   29   17      1.41      0.00
   17   29   17      2.81      0.00
   18   29   17      1.13      0.00
   19   29   17      1.02      0.00
   20   29   17      4.19      0.00
   21   29   17     -3.06      0.00
   12   30   17     -6.24      0.00
   13   30   17     -4.40      0.00
   14   30   17    -11.81      0.00
   15   30   17      7.39      0.00
   16   30   17     -2.51      0.00
   17   30   17     -0.57      0.00
   18   30   17      7.25      0.00
   19   30   17      4.29      0.00
   20   30   17      3.96      0.00
    9   31   17      9.66      0.00
   10   31   17     -4.06      0.00
   11   31   17      0.52      0.00
   12   31   17     -6.31      0.00
   13   31   17      5.05      0.00
   14   31   17      1.44      0.00
   15   31   17     -2.65      0.00
   16   31   17     -3.73      0.00
   17   31   17     -8.42      0.00
   18   31   17      1.94      0.00
    4   32   17      0.46      0.00
    5   32   17     -3.74      0.00
    6   32   17      3.56      0.00
    7   32   17     -0.19      0.00
    8   32   17      1.04      0.00
    9   32   17     -5.80      0.00
   10   32   17      0.84      0.00
   11   32   17      7.07      0.00
   12   32   17     -2.32      0.00
   13   32   17     -2.27      0.00
   14   32   17     10.78      0.00
   15   32   17     -8.22      0.00
   16   32   17      2.11      0.00
    1   33   17      1.74      0.00
    2   33   17      5.05      0.00
    3   33   17      5.69      0.00
    4   33   17      6.99      0.00
    5   33   17      0.79      0.00
    6   33   17      3.78      0.00
    7   33   17      1.92      0.00
    8   33   17     -1.85      0.00
    9   33   17     -4.79      0.00
   10   33   17      5.78      0.00
   11   33   17     -5.13      0.00
   12   33   17     -3.07      0.00
   13   33   17      6.89      0.00
   14   33   17      1.73      0.00
    0   34   17     18.12      0.00
    1   34   17      2.89      0.00
    2   34   17     -4.50      0.00
    3   34   17     -3.06      0.00
    4   34   17      7.99      0.00
    5   34   17     -6.58      0.00
    6   34   17      7.31      0.00
    7   34   17     -6.16      0.00
    8   34   17     -2.30      0.00
    9   34   17     -5.97      0.00
   10   34   17     -0.24      0.00
   11   34   17      3.03      0.00
   12   34   17      4.05      0.00
    1   35   17     -0.16      0.00
    2   35   17     -2.72      0.00
    3   35   17      6.16      0.00
    4   35   17     -5.35      0.00
    5   35   17     -1.32      0.00
    6   35   17     -2.54      0.00
    7   35   17      0.48      0.00
    8   35   17    -11.61      0.00
    9   35   17      1.44      0.00
    0   36   17      6.36      0.00
    1   36   17     -0.61      0.00
    2   36   17     -3.78      0.00
    3   36   17     -1.44      0.00
    4   36   17      8.56      0.00
   22   23   18    -10.57      0.00
   23   23   18     20.92      0.00
   21   24   18     -2.65      0.00
   22   24   18      3.62      0.00
   23   24   18     -1.92      0.00
   24   24   18     14.11      0.00
   20   25   18      9.00      0.00
   21   25   18      6.08      0.00
   22   25   18      6.42      0.00
   23   25   18      2.33      0.00
   24   25   18      8.80      0.00
   25   25   18    -10.55      0.00
   18   26   18      3.91      0.00
   19   26   18      4.79      0.00
   20   26   18    -12.40      0.00
   21   26   18     -4.97      0.00
   22   26   18     -3.38      0.00
   23   26   18      2.52      0.00
   24   26   18      0.18      0.00
   17   27   18      4.76      0.00
   18   27   18     -0.92      0.00
   19   27   18     -2.16      0.00
   20   27   18      2.68      0.00
   21   27   18     -8.41      0.00
   22   27   18     -1.02      0.00
   23   27   18      1.17      0.00
   15   28   18    -14.39      0.00
   16   28   18     -4.41      0.00
   17   28   18     -0.14      0.00
   18   28   18      7.52      0.00
   19   28   18      5.64      0.00
   20   28   18     -6.03      0.00
   21   28   18     -5.29      0.00
   22   28   18      6.72      0.00
   13   29   18     -5.77      0.00
   14   29   18      3.49      0.00
   15   29   18      1.00      0.00
   16   29   18      2.10      0.00
   17   29   18      7.69      0.00
   18   29   18     -2.68      0.00
   19   29   18     -2.62      0.00
   20   29   18     -5.62      0.00
   10   30   18     -1.73      0.00
   11   30   18     -5.05      0.00
   12   30   18     -2.04      0.00
   13   30   18      1.86      0.00
   14   30   18     -2.45      0.00
   15   30   18     -5.70      0.00
   16   30   18      1.34      0.00
   17   30   18     -1.02      0.00
   18   30   18     -0.37      0.00
   19   30   18      0.27      0.00
    6   31   18      0.30      0.00
    7   31   18     10.04      0.00
    8   31   18      6.05      0.00
    9   31   18      2.99      0.00
   10   31   18      5.31      0.00
   11   31   18     10.01      0.00
   12   31   18      6.45      0.00
   13   31   18     -1.18      0.00
   14   31   18      2.06      0.00
   15   31   18     -0.04      0.00
   16   31   18     -0.49      0.00
   17   31   18     -1.57      0.00
    0   32   18      4.14      0.00
    1   32   18     -1.91      0.00
    2   32   18     10.05      0.00
    3   32   18     -5.28      0.00
    4   32   18     13.34      0.00
    5   32   18      1.11      0.00
    6   32   18     -7.36      0.00
    7   32   18     -1.16      0.00
    8   32   18     -2.76      0.00
    9   32   18     -2.15      0.00
   10   32   18      1.62      0.00
   11   32   18     16.76      0.00
   12   32   18      1.81      0.00
   13   32   18     -0.05      0.00
   14   32   18     -2.17      0.00
   15   32   18      4.16      0.00
    1   33   18      3.56      0.00
    2   33   18      3.54      0.00
    3   33   18      1.63      0.00
    4   33   18      4.53      0.00
    5   33   18      7.26      0.00
    6   33   18      3.56      0.00
    7   33   18     -2.50      0.00
    8   33   18      7.37      0.00
    9   33   18      5.44      0.00
   10   33   18     -2.75      0.00
   11   33   18     -5.62      0.00
   12   33   18     -3.84      0.00
   13   33   18      5.49      0.00
    0   34   18     -2.12      0.00
    1   34   18    -12.22      0.00
    2   34   18     -2.38      0.00
    3   34   18     -2.70      0.00
    4   34   18     -2.42      0.00
    5   34   18     -3.88      0.00
    6   34   18      1.85      0.00
    7   34   18      6.57      0.00
    8   34   18      2.83      0.00
    9   34   18     -3.06      0.00
   10   34   18     -0.12      0.00
    1   35   18     -4.98      0.00
    2   35   18     -1.26      0.00
    3   35   18     -2.81      0.00
    4   35   18     -3.76      0.00
    5   35   18      0.88      0.00
    6   35   18     -0.19      0.00
   21   23   19     -3.39      0.00
   22   23   19      0.04      0.00
   20   24   19    -12.29      0.00
   21   24   19      0.57      0.00
   22   24   19      5.61      0.00
   23   24   19    -13.13      0.00
   18   25   19    -11.65      0.00
   19   25   19     12.25      0.00
   20   25   19     -3.25      0.00
   21   25   19      9.54      0.00
   22   25   19      2.76      0.00
   23   25   19     -1.08      0.00
   24   25   19      3.27      0.00
   17   26   19      0.89      0.00
   18   26   19      1.15      0.00
   19   26   19      0.97      0.00
   20   26   19      6.11      0.00
   21   26   19      2.00      0.00
   22   26   19      1.86      0.00
   23   26   19     -8.72      0.00
   15   27   19     14.29      0.00
   16   27   19    -13.65      0.00
   17   27   19     -3.53      0.00
   18   27   19     -1.05      0.00
   19   27   19     -2.41      0.00
   20   27   19      0.99      0.00
   21   27   19     10.09      0.00
   22   27   19      5.91      0.00
   13   28   19      3.58      0.00
   14   28   19     -1.69      0.00
   15   28   19     14.12      0.00
   16   28   19     -5.66      0.00
   17   28   19     -4.88      0.00
   18   28   19     -6.24      0.00
   19   28   19      0.46      0.00
   20   28   19      8.46      0.00
   11   29   19      3.39      0.00
   12   29   19      7.72      0.00
   13   29   19      9.72      0.00
   14   29   19     10.32      0.00
   15   29   19     -6.10      0.00
   16   29   19     -2.68      0.00
   17   29   19     -4.03      0.00
   18   29   19     -5.46      0.00
   19   29   19     15.22      0.00
    8   30   19      6.33      0.00
    9   30   19      4.78      0.00
   10   30   19      5.02      0.00
   11   30   19      4.80      0.00
   12   30   19     -1.00      0.00
   13   30   19     -5.24      0.00
   14   30   19      5.99      0.00
   15   30   19     -2.00      0.00
   16   30   19      2.61      0.00
   17   30   19     -4.62      0.00
   18   30   19     -0.74      0.00
    1   31   19      2.65      0.00
    2   31   19     -1.22      0.00
    3   31   19     -2.85      0.00
    4   31   19    -17.44      0.00
    5   31   19     11.75      0.00
    6   31   19    -19.71      0.00
    7   31   19      4.33      0.00
    8   31   19      1.89      0.00
    9   31   19      1.28      0.00
   10   31   19     -3.25      0.00
   11   31   19      2.47      0.00
   12   31   19    -10.37      0.00
   13   31   19      7.85      0.00
   14   31   19      5.99      0.00
   15   31   19     -0.90      0.00
   16   31   19     -4.24      0.00
    0   32   19      9.29      0.00
    1   32   19      3.30      0.00
    2   32   19     -3.49      0.00
    3   32   19      2.42      0.00
    4   32   19     -0.41      0.00
    5   32   19      2.19      0.00
    6   32   19      8.81      0.00
    7   32   19      3.79      0.00
    8   32   19     -3.47      0.00
    9   32   19     -2.10      0.00
   10   32   19      5.36      0.00
   11   32   19     -2.09      0.00
   12   32   19      0.97      0.00
   13   32   19      3.66      0.00
   14   32   19      1.37      0.00
    1   33   19     -3.94      0.00
    2   33   19     -3.55      0.00
    3   33   19      5.61      0.00
    4   33   19      3.66      0.00
    5   33   19     -5.07      0.00
    6   33   19      8.15      0.00
    7   33   19     -1.00      0.00
    8   33   19      8.70      0.00
    9   33   19     -6.09      0.00
   10   33   19      0.05      0.00
   11   33   19     -3.34      0.00
    0   34   19      4.08      0.00
    1   34   19      0.35      0.00
    2   34   19      1.96      0.00
    3   34   19      5.72      0.00
    4   34   19     -4.52      0.00
    5   34   19     -2.11      0.00
    6   34   19      9.26      0.00
    7   34   19     -0.10      0.00
    8   34   19     -5.43      0.00
   21   22   20    -11.79      0.00
   22   22   20      7.61      0.00
   20   23   20     -3.04      0.00
   21   23   20    -14.69      0.00
   22   23   20     -4.30      0.00
   23   23   20     36.55      0.00
   19   24   20     -3.87      0.00
   20   24   20      3.57      0.00
   21   24   20    -23.04      0.00
   22   24   20      7.65      0.00
   23   24   20     -2.96      0.00
   24   24   20      2.05      0.00
   17   25   20     20.57      0.00
   18   25   20      4.96      0.00
   19   25   20      6.92      0.00
   20   25   20      4.07      0.00
   21   25   20      2.08      0.00
   22   25   20     -5.89      0.00
   23   25   20      5.98      0.00
   16   26   20     25.08      0.00
   17   26   20     -9.74      0.00
   18   26   20     -6.77      0.00
   19   26   20      2.15      0.00
   20   26   20     -5.48      0.00
   21   26   20     -0.96      0.00
   22   26   20      0.39      0.00
   14   27   20     -7.16      0.00
   15   27   20      6.25      0.00
   16   27   20      6.78      0.00
   17   27   20     -9.86      0.00
   18   27   20      6.13      0.00
   19   27   20      6.80      0.00
   20   27   20     -1.65      0.00
   21   27   20      3.89      0.00
   11   28   20     -2.25      0.00
   12   28   20     13.96      0.00
   13   28   20     -4.46      0.00
   14   28   20      3.00      0.00
   15   28   20      6.35      0.00
   16   28   20     -6.41      0.00
   17   28   20      4.53      0.00
   18   28   20     -0.07      0.00
   19   28   20      0.22      0.00
    8   29   20      1.73      0.00
    9   29   20      4.46      0.00
   10   29   20      4.08      0.00
   11   29   20      0.39      0.00
   12   29   20      4.88      0.00
   13   29   20     -8.63      0.00
   14   29   20      7.20      0.00
   15   29   20      8.58      0.00
   16   29   20      3.72      0.00
   17   29   20      3.74      0.00
   18   29   20      1.93      0.00
    0   30   20      5.18      0.00
    1   30   20     -1.34      0.00
    2   30   20     -7.04      0.00
    3   30   20      1.78      0.00
    4   30   20    -15.60      0.00
    5   30   20      1.42      0.00
    6   30   20    -10.41      0.00
    7   30   20      4.34      0.00
    8   30   20      2.60      0.00
    9   30   20     -4.51      0.00
   10   30   20      3.64      0.00
   11   30   20      5.57      0.00
   12   30   20      1.26      0.00
   13   30   20      1.69      0.00
   14   30   20      4.60      0.00
   15   30   20      3.40      0.00
   16   30   20     -1.18      0.00
    1   31   20      0.32      0.00
    2   31   20      7.47      0.00
    3   31   20     -5.71      0.00
    4   31   20      5.64      0.00
    5   31   20     -2.18      0.00
    6   31   20      3.53      0.00
    7   31   20      0.19      0.00
    8   31   20      1.02      0.00
    9   31   20     -3.22      0.00
   10   31   20      3.23      0.00
   11   31   20      9.24      0.00
   12   31   20      1.48      0.00
   13   31   20      2.92      0.00
   14   31   20      3.38      0.00
    0   32   20     -5.77      0.00
    1   32   20      3.26      0.00
    2   32   20     -7.50      0.00
    3   32   20     -9.08      0.00
    4   32   20     -0.82      0.00
    5   32   20      4.45      0.00
    6   32   20     -3.89      0.00
    7   32   20      2.05      0.00
    8   32   20     -4.09      0.00
    9   32   20      8.17      0.00
   10   32   20      0.09      0.00
   11   32   20      8.65      0.00
   12   32   20     -3.35      0.00
    1   33   20      1.83      0.00
    2   33   20     -5.67      0.00
    3   33   20     -2.22      0.00
    4   33   20     -7.84      0.00
    5   33   20     -2.67      0.00
    6   33   20      3.78      0.00
    7   33   20     -3.10      0.00
    8   33   20      0.84      0.00
    9   33   20      7.18      0.00
    0   34   20     -2.20      0.00
    1   34   20     -2.95      0.00
    2   34   20      4.78      0.00
    3   34   20     -3.44      0.00
    4   34   20      4.57      0.00
   20   22   21     -0.94      0.00
   21   22   21     11.04      0.00
   18   23   21     14.89      0.00
   19   23   21    -22.56      0.00
   20   23   21      4.97      0.00
   21   23   21     25.38      0.00
   22   23   21    -16.69      0.00
   17   24   21    -32.24      0.00
   18   24   21     -7.63      0.00
   19   24   21      3.41      0.00
   20   24   21      5.93      0.00
   21   24   21      0.32      0.00
   22   24   21     -4.30      0.00
   23   24   21     -9.07      0.00
   16   25   21     -8.48      0.00
   17   25   21      1.91      0.00
   18   25   21     -9.50      0.00
   19   25   21     -6.71      0.00
   20   25   21      8.07      0.00
   21   25   21      3.39      0.00
   22   25   21      1.66      0.00
   14   26   21    -12.21      0.00
   15   26   21     -9.80      0.00
   16   26   21     -2.21      0.00
   17   26   21     -6.75      0.00
   18   26   21     -0.64      0.00
   19   26   21      5.56      0.00
   20   26   21     -3.16      0.00
   21   26   21     -4.51      0.00
   12   27   21     -6.72      0.00
   13   27   21     16.03      0.00
   14   27   21     -4.98      0.00
   15   27   21     -9.74      0.00
   16   27   21     -3.12      0.00
   17   27   21    -16.07      0.00
   18   27   21     -9.14      0.00
   19   27   21     -5.02      0.00
    9   28   21      6.48      0.00
   10   28   21      3.49      0.00
   11   28   21     -3.05      0.00
   12   28   21     -0.85      0.00
   13   28   21     -1.31      0.00
   14   28   21     -0.50      0.00
   15   28   21      0.93      0.00
   16   28   21     -2.77      0.00
   17   28   21     10.01      0.00
   18   28   21     -3.67      0.00
    3   29   21     -2.68      0.00
    4   29   21     -5.52      0.00
    5   29   21    -12.28      0.00
    6   29   21     -0.57      0.00
    7   29   21     -9.39      0.00
    8   29   21      7.32      0.00
    9   29   21      0.19      0.00
   10   29   21      6.45      0.00
   11   29   21    -12.68      0.00
   12   29   21      1.13      0.00
   13   29   21      3.01      0.00
   14   29   21     -0.38      0.00
   15   29   21      1.16      0.00
   16   29   21      0.98      0.00
    0   30   21     28.69      0.00
    1   30   21     -7.66      0.00
    2   30   21      1.38      0.00
    3   30   21     17.74      0.00
    4   30   21     -0.64      0.00
    5   30   21     -0.53      0.00
    6   30   21     -1.76      0.00
    7   30   21     -1.75      0.00
    8   30   21      0.79      0.00
    9   30   21     -5.34      0.00
   10   30   21      2.80      0.00
   11   30   21     -0.23      0.00
   12   30   21     -4.75      0.00
   13   30   21     -3.96      0.00
   14   30   21      5.13      0.00
   15   30   21      2.23      0.00
    1   31   21     -0.05      0.00
    2   31   21      5.45      0.00
    3   31   21      6.30      0.00
    4   31   21      6.56      0.00
    5   31   21      1.26      0.00
    6   31   21    -12.89      0.00
    7   31   21     -3.21      0.00
    8   31   21     -1.65      0.00
    9   31   21      1.45      0.00
   10   31   21      1.49      0.00
   11   31   21     -8.15      0.00
   12   31   21     -2.81      0.00
    0   32   21     -5.16      0.00
    1   32   21      0.18      0.00
    2   32   21     -0.05      0.00
    3   32   21      4.79      0.00
    4   32   21      8.13      0.00
    5   32   21      4.90      0.00
    6   32   21     -1.11      0.00
    7   32   21      4.05      0.00
    8   32   21      6.36      0.00
    9   32   21     -2.74      0.00
   10   32   21      1.99      0.00
    1   33   21     -0.90      0.00
    2   33   21      3.95      0.00
    3   33   21      1.88      0.00
    4   33   21     -2.66      0.00
    5   33   21      2.59      0.00
    6   33   21     -2.14      0.00
   20   20   22    -46.49      0.00
   19   21   22    -12.96      0.00
   20   21   22     11.66      0.00
   21   21   22    -20.82      0.00
   18   22   22      7.67      0.00
   19   22   22      6.43      0.00
   20   22   22    -14.77      0.00
   21   22   22     17.70      0.00
   22   22   22     -6.29      0.00
   17   23   22    -27.13      0.00
   18   23   22    -12.86      0.00
   19   23   22      3.10      0.00
   20   23   22     -2.20      0.00
   21   23   22     -4.27      0.00
   22   23   22      6.37      0.00
   23   23   22      3.11      0.00
   15   24   22     41.45      0.00
   16   24   22     -5.27      0.00
   17   24   22     23.60      0.00
   18   24   22     -3.04      0.00
   19   24   22    -13.26      0.00
   20   24   22     11.99      0.00
   21   24   22     -2.47      0.00
   22   24   22     -0.78      0.00
   14   25   22     26.59      0.00
   15   25   22     -6.54      0.00
   16   25   22     13.57      0.00
   17   25   22    -15.44      0.00
   18   25   22      0.13      0.00
   19   25   22     10.47      0.00
   20   25   22      1.94      0.00
   21   25   22      6.77      0.00
   12   26   22      1.60      0.00
   13   26   22      2.44      0.00
   14   26   22      8.42      0.00
   15   26   22      5.41      0.00
   16   26   22      9.57      0.00
   17   26   22      6.00      0.00
   18   26   22    -13.20      0.00
   19   26   22      0.45      0.00
    9   27   22      8.16      0.00
   10   27   22      0.67      0.00
   11   27   22     -2.64      0.00
   12   27   22     -2.03      0.00
   13   27   22     -4.68      0.00
   14   27   22      8.82      0.00
   15   27   22      2.90      0.00
   16   27   22     13.34      0.00
   17   27   22      4.96      0.00
   18   27   22      3.88      0.00
    4   28   22      1.61      0.00
    5   28   22     -1.72      0.00
    6   28   22      8.87      0.00
    7   28   22      7.23      0.00
    8   28   22      1.20      0.00
    9   28   22     -1.69      0.00
   10   28   22     -1.48      0.00
   11   28   22      0.26      0.00
   12   28   22      1.63      0.00
   13   28   22      9.90      0.00
   14   28   22      6.50      0.00
   15   28   22     -6.49      0.00
   16   28   22      1.97      0.00
   17   28   22     -3.06      0.00
    1   29   22      9.74      0.00
    2   29   22      3.56      0.00
    3   29   22     11.50      0.00
    4   29   22      7.87      0.00
    5   29   22     -1.21      0.00
    6   29   22      5.32      0.00
    7   29   22     -3.92      0.00
    8   29   22     -5.22      0.00
    9   29   22     -2.96      0.00
   10   29   22      0.63      0.00
   11   29   22     -3.10      0.00
   12   29   22     -6.97      0.00
   13   29   22     -1.09      0.00
   14   29   22      2.37      0.00
   15   29   22      2.84      0.00
    0   30   22     -5.03      0.00
    1   30   22      5.69      0.00
    2   30   22      2.74      0.00
    3   30   22      6.18      0.00
    4   30   22      2.73      0.00
    5   30   22    -10.96      0.00
    6   30   22      5.64      0.00
    7   30   22      3.35      0.00
    8   30   22     -5.62      0.00
    9   30   22     -3.44      0.00
   10   30   22     -1.95      0.00
   11   30   22     -4.88      0.00
   12   30   22      1.12      0.00
   13   30   22      1.39      0.00
    1   31   22     -1.03      0.00
    2   31   22     10.21      0.00
    3   31   22     -1.22      0.00
    4   31   22     -6.69      0.00
    5   31   22      6.05      0.00
    6   31   22      0.48      0.00
    7   31   22      8.81      0.00
    8   31   22      2.62      0.00
    9   31   22      2.05      0.00
   10   31   22     -6.85      0.00
    0   32   22     -1.41      0.00
    1   32   22      4.68      0.00
    2   32   22     -2.94      0.00
    3   32   22      1.96      0.00
    4   32   22     -2.28      0.00
    5   32   22      1.65      0.00
    6   32   22     -3.70      0.00
    7   32   22     -3.00      0.00
   19   20   23     16.93      0.00
   18   21   23     -4.20      0.00
   19   21   23     13.12      0.00
   20   21   23     -4.65      0.00
   17   22   23      3.37      0.00
   18   22   23    -14.76      0.00
   19   22   23     -5.14      0.00
   20   22   23      3.38      0.00
   21   22   23     -0.46      0.00
   15   23   23     19.88      0.00
   16   23   23     -6.56      0.00
   17   23   23     -3.23      0.00
   18   23   23     -5.47      0.00
   19   23   23     -1.31      0.00
   20   23   23     -9.98      0.00
   21   23   23      2.55      0.00
   22   23   23     -3.97      0.00
   13   24   23      7.85      0.00
   14   24   23     -5.29      0.00
   15   24   23    -36.47      0.00
   16   24   23      3.44      0.00
   17   24   23     -7.94      0.00
   18   24   23     -4.36      0.00
   19   24   23     -1.82      0.00
   20   24   23     -5.35      0.00
   21   24   23     -2.61      0.00
   11   25   23      8.61      0.00
   12   25   23     11.66      0.00
   13   25   23     17.97      0.00
   14   25   23    -12.28      0.00
   15   25   23     11.31      0.00
   16   25   23     14.32      0.00
   17   25   23      6.27      0.00
   18   25   23      7.06      0.00
   19   25   23     -4.94      0.00
    9   26   23    -12.73      0.00
   10   26   23      9.09      0.00
   11   26   23      5.17      0.00
   12   26   23     10.54      0.00
   13   26   23     -3.55      0.00
   14   26   23     17.86      0.00
   15   26   23      3.03      0.00
   16   26   23      8.94      0.00
   17   26   23      1.94      0.00
   18   26   23      3.80      0.00
    4   27   23    -14.12      0.00
    5   27   23      9.69      0.00
    6   27   23      3.82      0.00
    7   27   23      5.58      0.00
    8   27   23      4.93      0.00
    9   27   23      5.18      0.00
   10   27   23     -4.55      0.00
   11   27   23     -5.61      0.00
   12   27   23     -0.64      0.00
   13   27   23      3.14      0.00
   14   27   23     -4.07      0.00
   15   27   23      5.71      0.00
   16   27   23      0.61      0.00
    0   28   23    -12.66      0.00
    1   28   23      5.57      0.00
    2   28   23      2.04      0.00
    3   28   23    -10.25      0.00
    4   28   23      2.09      0.00
    5   28   23      3.68      0.00
    6   28   23     -2.51      0.00
    7   28   23      0.85      0.00
    8   28   23     -2.41      0.00
    9   28   23      0.57      0.00
   10   28   23     17.67      0.00
   11   28   23      5.18      0.00
   12   28   23      9.04      0.00
   13   28   23     -6.35      0.00
   14   28   23    -11.35      0.00
   15   28   23      0.12      0.00
    1   29   23      1.22      0.00
    2   29   23     -5.10      0.00
    3   29   23      3.56      0.00
    4   29   23      4.04      0.00
    5   29   23      0.11      0.00
    6   29   23      1.38      0.00
    7   29   23     -7.44      0.00
    8   29   23      0.40      0.00
    9   29   23      3.95      0.00
   10   29   23      5.29      0.00
   11   29   23      5.96      0.00
   12   29   23      1.26      0.00
   13   29   23      1.99      0.00
    0   30   23     -1.62      0.00
    1   30   23     -3.02      0.00
    2   30   23     -7.96      0.00
    3   30   23      5.04      0.00
    4   30   23      5.33      0.00
    5   30   23     12.93      0.00
    6   30   23      7.33      0.00
    7   30   23      1.93      0.00
    8   30   23      5.03      0.00
    9   30   23     -5.55      0.00
   10   30   23      7.09      0.00
    1   31   23     -5.97      0.00
    2   31   23      2.54      0.00
    3   31   23      1.39      0.00
    4   31   23     -0.61      0.00
    5   31   23     -3.72      0.00
    6   31   23      4.40      0.00
    7   31   23     -0.51      0.00
   18   19   24     -3.79      0.00
   19   19   24     10.90      0.00
   17   20   24     -0.99      0.00
   18   20   24      5.06      0.00
   19   20   24     -4.27      0.00
   20   20   24     -0.06      0.00
   16   21   24     -0.68      0.00
   17   21   24      1.27      0.00
   18   21   24     26.27      0.00
   19   21   24      4.40      0.00
   20   21   24     -4.51      0.00
   21   21   24     12.19      0.00
   15   22   24      1.68      0.00
   16   22   24      9.10      0.00
   17   22   24     -5.75      0.00
   18   22   24     -7.95      0.00
   19   22   24      8.17      0.00
   20   22   24     -0.30      0.00
   21   22   24      1.52      0.00
   13   23   24      9.38      0.00
   14   23   24      6.68      0.00
   15   23   24     -0.81      0.00
   16   23   24      3.85      0.00
   17   23   24      1.38      0.00
   18   23   24     -3.24      0.00
   19   23   24     -1.62      0.00
   20   23   24      0.76      0.00
   11   24   24    -11.33      0.00
   12   24   24     11.82      0.00
   13   24   24     -9.06      0.00
   14   24   24      1.48      0.00
   15   24   24     -0.17      0.00
   16   24   24      1.08      0.00
   17   24   24      5.71      0.00
   18   24   24      7.65      0.00
   19   24   24     15.20      0.00
    8   25   24     16.90      0.00
    9   25   24      1.99      0.00
   10   25   24    -13.18      0.00
   11   25   24      3.61      0.00
   12   25   24      0.82      0.00
   13   25   24      5.04      0.00
   14   25   24      5.84      0.00
   15   25   24     10.49      0.00
   16   25   24     -1.70      0.00
   17   25   24     -5.05      0.00
   18   25   24     -9.38      0.00
    3   26   24     -4.35      0.00
    4   26   24      2.57      0.00
    5   26   24     -2.50      0.00
    6   26   24      1.90      0.00
    7   26   24      1.36      0.00
    8   26   24     -3.20      0.00
    9   26   24     -3.48      0.00
   10   26   24     -1.85      0.00
   11   26   24    -14.72      0.00
   12   26   24     -7.64      0.00
   13   26   24     -5.52      0.00
   14   26   24     16.42      0.00
   15   26   24      3.66      0.00
   16   26   24     -5.54      0.00
    1   27   24     -8.97      0.00
    2   27   24     -8.92      0.00
    3   27   24    -12.86      0.00
    4   27   24    -16.55      0.00
    5   27   24     -1.27      0.00
    6   27   24     -1.65      0.00
    7   27   24      4.93      0.00
    8   27   24      3.26      0.00
    9   27   24      4.05      0.00
   10   27   24      3.86      0.00
   11   27   24     -8.68      0.00
   12   27   24     -8.59      0.00
   13   27   24      2.25      0.00
   14   27   24      4.43      0.00
   15   27   24     -4.84      0.00
    0   28   24     12.90      0.00
    1   28   24     -0.61      0.00
    2   28   24      1.59      0.00
    3   28   24     -9.00      0.00
    4   28   24     -2.08      0.00
    5   28   24     -2.29      0.00
    6   28   24     -3.16      0.00
    7   28   24      1.67      0.00
    8   28   24      2.72      0.00
    9   28   24     -1.17      0.00
   10   28   24     -6.11      0.00
   11   28   24      1.42      0.00
   12   28   24      6.32      0.00
   13   28   24      1.26      0.00
    1   29   24      2.47      0.00
    2   29   24      0.84      0.00
    3   29   24      3.90      0.00
    4   29   24     -5.67      0.00
    5   29   24     -3.50      0.00
    6   29   24      4.88      0.00
    7   29   24      2.86      0.00
    8   29   24     -0.91      0.00
    9   29   24     -1.65      0.00
   10   29   24     -2.80      0.00
    0   30   24     -4.93      0.00
    1   30   24     -2.39      0.00
    2   30   24     -1.24      0.00
    3   30   24      0.83      0.00
    4   30   24     -5.75      0.00
    5   30   24     -2.91      0.00
    6   30   24     -5.51      0.00
    7   30   24     -6.71      0.00
   17   19   25    -15.09      0.00
   18   19   25      3.95      0.00
   15   20   25      4.29      0.00
   16   20   25      0.74      0.00
   17   20   25      3.78      0.00
   18   20   25      2.15      0.00
   19   20   25     -0.63      0.00
   14   21   25    -10.00      0.00
   15   21   25     -9.16      0.00
   16   21   25     13.99      0.00
   17   21   25     -9.20      0.00
   18   21   25      1.40      0.00
   19   21   25     -6.44      0.00
   20   21   25      8.44      0.00
   12   22   25      1.04      0.00
   13   22   25     12.14      0.00
   14   22   25     -9.86      0.00
   15   22   25      6.46      0.00
   16   22   25     11.93      0.00
   17   22   25     14.40      0.00
   18   22   25    -16.20      0.00
   19   22   25      4.84      0.00
   20   22   25    -10.14      0.00
   10   23   25     20.81      0.00
   11   23   25    -11.40      0.00
   12   23   25     12.69      0.00
   13   23   25     -6.49      0.00
   14   23   25     -1.36      0.00
   15   23   25     18.87      0.00
   16   23   25     -2.02      0.00
   17   23   25      9.78      0.00
   18   23   25     14.04      0.00
   19   23   25      1.99      0.00
    7   24   25    -20.71      0.00
    8   24   25     -5.74      0.00
    9   24   25     -4.58      0.00
   10   24   25     -6.20      0.00
   11   24   25      7.19      0.00
   12   24   25     -7.65      0.00
   13   24   25      8.81      0.00
   14   24   25     -3.37      0.00
   15   24   25      0.72      0.00
   16   24   25     -6.89      0.00
   17   24   25     -3.10      0.00
    1   25   25      1.30      0.00
    2   25   25      6.31      0.00
    3   25   25      0.71      0.00
    4   25   25     14.21      0.00
    5   25   25     -3.30      0.00
    6   25   25      9.09      0.00
    7   25   25      1.03      0.00
    8   25   25      7.23      0.00
    9   25   25     13.28      0.00
   10   25   25     -0.10      0.00
   11   25   25    -12.53      0.00
   12   25   25      3.40      0.00
   13   25   25    -10.37      0.00
   14   25   25     15.26      0.00
   15   25   25      5.23      0.00
   16   25   25      4.23      0.00
    0   26   25      5.42      0.00
    1   26   25     -1.30      0.00
    2   26   25      6.41      0.00
    3   26   25     -3.17      0.00
    4   26   25     -3.02      0.00
    5   26   25      6.83      0.00
    6   26   25     -4.50      0.00
    7   26   25      5.41      0.00
    8   26   25      5.57      0.00
    9   26   25    -10.68      0.00
   10   26   25     10.13      0.00
   11   26   25     -4.57      0.00
   12   26   25     -3.57      0.00
   13   26   25      3.30      0.00
   14   26   25     -0.98      0.00
    1   27   25      1.87      0.00
    2   27   25      2.48      0.00
    3   27   25     -0.78      0.00
    4   27   25      2.08      0.00
    5   27   25     -5.40      0.00
    6   27   25     -2.90      0.00
    7   27   25     -8.82      0.00
    8   27   25     -9.31      0.00
    9   27   25      6.58      0.00
   10   27   25     -1.35      0.00
   11   27   25     -9.27      0.00
   12   27   25     -0.35      0.00
   13   27   25     -6.17      0.00
    0   28   25      3.88      0.00
    1   28   25     -2.66      0.00
    2   28   25     -2.28      0.00
    3   28   25      4.02      0.00
    4   28   25     -3.34      0.00
    5   28   25     -0.11      0.00
    6   28   25     -8.67      0.00
    7   28   25      2.39      0.00
    8   28   25     -2.80      0.00
    9   28   25     -3.92      0.00
   10   28   25      5.84      0.00
    1   29   25      4.67      0.00
    2   29   25     -2.94      0.00
    3   29   25     -2.75      0.00
    4   29   25     -1.26      0.00
    5   29   25     -7.95      0.00
    6   29   25     -0.22      0.00
    7   29   25      0.86      0.00
   17   17   26     13.71      0.00
   16   18   26     -2.81      0.00
   17   18   26     -1.60      0.00
   18   18   26      1.29      0.00
   15   19   26      4.69      0.00
   16   19   26      6.05      0.00
   17   19   26     12.98      0.00
   18   19   26     -8.97      0.00
   19   19   26      3.95      0.00
   13   20   26     11.36      0.00
   14   20   26     10.50      0.00
   15   20   26    -14.52      0.00
   16   20   26      9.16      0.00
   17   20   26     -0.74      0.00
   18   20   26      6.41      0.00
   19   20   26     -8.85      0.00
   20   20   26     -2.60      0.00
   11   21   26      1.98      0.00
   12   21   26     12.66      0.00
   13   21   26      8.47      0.00
   14   21   26      4.45      0.00
   15   21   26      2.80      0.00
   16   21   26     -8.03      0.00
   17   21   26      0.93      0.00
   18   21   26     -7.96      0.00
   19   21   26      4.81      0.00
    9   22   26      4.93      0.00
   10   22   26    -19.69      0.00
   11   22   26     -2.31      0.00
   12   22   26     -2.38      0.00
   13   22   26     -7.82      0.00
   14   22   26      2.92      0.00
   15   22   26      8.86      0.00
   16   22   26     -0.98      0.00
   17   22   26    -14.19      0.00
   18   22   26      7.74      0.00
    6   23   26      2.80      0.00
    7   23   26     16.16      0.00
    8   23   26     -8.19      0.00
    9   23   26     -1.49      0.00
   10   23   26     -5.95      0.00
   11   23   26      4.36      0.00
   12   23   26     -3.35      0.00
   13   23   26      5.36      0.00
   14   23   26    -10.00      0.00
   15   23   26      0.47      0.00
   16   23   26     -8.42      0.00
   17   23   26      1.41      0.00
    0   24   26     -9.85      0.00
    1   24   26      1.19      0.00
    2   24   26      1.43      0.00
    3   24   26    -14.52      0.00
    4   24   26      8.68      0.00
    5   24   26     -8.14      0.00
    6   24   26      2.89      0.00
    7   24   26     -1.47      0.00
    8   24   26      0.66      0.00
    9   24   26     -8.46      0.00
   10   24   26    -13.50      0.00
   11   24   26      3.44      0.00
   12   24   26     -3.67      0.00
   13   24   26     -1.32      0.00
   14   24   26      5.18      0.00
   15   24   26     -7.29      0.00
   16   24   26      2.54      0.00
    1   25   26     11.11      0.00
    2   25   26      4.82      0.00
    3   25   26     -1.44      0.00
    4   25   26     -6.28      0.00
    5   25   26      3.77      0.00
    6   25   26      4.93      0.00
    7   25   26      5.35      0.00
    8   25   26     16.41      0.00
    9   25   26    -11.79      0.00
   10   25   26    -10.89      0.00
   11   25   26     -5.22      0.00
   12   25   26      6.42      0.00
   13   25   26      2.54      0.00
   14   25   26     -3.82      0.00
    0   26   26     -1.39      0.00
    1   26   26     -1.14      0.00
    2   26   26     -4.06      0.00
    3   26   26      4.81      0.00
    4   26   26    -12.37      0.00
    5   26   26      2.57      0.00
    6   26   26     10.11      0.00
    7   26   26     -5.75      0.00
    8   26   26     -8.31      0.00
    9   26   26      4.41      0.00
   10   26   26     -1.59      0.00
   11   26   26      6.05      0.00
   12   26   26      3.87      0.00
    1   27   26     -3.52      0.00
    2   27   26      3.91      0.00
    3   27   26     -1.94      0.00
    4   27   26     -1.72      0.00
    5   27   26     -8.61      0.00
    6   27   26      2.45      0.00
    7   27   26      0.29      0.00
    8   27   26      0.83      0.00
    9   27   26      3.13      0.00
   10   27   26      7.96      0.00
    0   28   26      3.34      0.00
    1   28   26      3.37      0.00
    2   28   26      0.43      0.00
    3   28   26      9.87      0.00
    4   28   26      0.30      0.00
    5   28   26      0.80      0.00
    6   28   26      2.77      0.00
    7   28   26      0.59      0.00
   15   17   27     10.35      0.00
   16   17   27    -13.85      0.00
   14   18   27     -1.40      0.00
   15   18   27      0.79      0.00
   16   18   27     15.84      0.00
   17   18   27     -3.18      0.00
   12   19   27     -4.26      0.00
   13   19   27     -0.25      0.00
   14   19   27     -6.53      0.00
   15   19   27      8.46      0.00
   16   19   27      2.33      0.00
   17   19   27     -3.51      0.00
   18   19   27      0.22      0.00
   10   20   27      7.66      0.00
   11   20   27     -9.57      0.00
   12   20   27     -8.23      0.00
   13   20   27     -5.46      0.00
   14   20   27     -0.20      0.00
   15   20   27      4.40      0.00
   16   20   27     17.78      0.00
   17   20   27      0.12      0.00
   18   20   27      0.55      0.00
   19   20   27      1.58      0.00
    8   21   27      6.54      0.00
    9   21   27      8.68      0.00
   10   21   27      2.78      0.00
   11   21   27     -3.48      0.00
   12   21   27      6.85      0.00
   13   21   27     -3.59      0.00
   14   21   27      2.48      0.00
   15   21   27      5.06      0.00
   16   21   27      5.07      0.00
   17   21   27     -2.43      0.00
   18   21   27      3.83      0.00
    4   22   27     -6.49      0.00
    5   22   27     16.00      0.00
    6   22   27     -1.12      0.00
    7   22   27      1.26      0.00
    8   22   27      1.42      0.00
    9   22   27      1.06      0.00
   10   22   27     22.75      0.00
   11   22   27      4.41      0.00
   12   22   27    -16.78      0.00
   13   22   27      0.04      0.00
   14   22   27     -5.73      0.00
   15   22   27      6.40      0.00
   16   22   27      2.39      0.00
    1   23   27      6.45      0.00
    2   23   27     -9.69      0.00
    3   23   27     -0.55      0.00
    4   23   27    -10.03      0.00
    5   23   27      9.45      0.00
    6   23   27     -1.68      0.00
    7   23   27      2.13      0.00
    8   23   27     -1.25      0.00
    9   23   27      5.05      0.00
   10   23   27     -6.23      0.00
   11   23   27    -11.65      0.00
   12   23   27     -4.76      0.00
   13   23   27      3.35      0.00
   14   23   27     -5.24      0.00
   15   23   27     -1.94      0.00
    0   24   27      8.30      0.00
    1   24   27      7.52      0.00
    2   24   27      3.33      0.00
    3   24   27     -7.56      0.00
    4   24   27      3.70      0.00
    5   24   27     -7.84      0.00
    6   24   27      1.70      0.00
    7   24   27      6.53      0.00
    8   24   27     -2.73      0.00
    9   24   27      1.84      0.00
   10   24   27      3.47      0.00
   11   24   27     -4.56      0.00
   12   24   27     -4.90      0.00
   13   24   27      1.11      0.00
   14   24   27     -6.03      0.00
    1   25   27      0.89      0.00
    2   25   27     -1.44      0.00
    3   25   27      1.59      0.00
    4   25   27      6.47      0.00
    5   25   27     -2.21      0.00
    6   25   27     -2.06      0.00
    7   25   27      0.51      0.00
    8   25   27      4.48      0.00
    9   25   27      5.88      0.00
   10   25   27      7.66      0.00
   11   25   27     -4.75      0.00
   12   25   27      7.93      0.00
    0   26   27      8.77      0.00
    1   26   27     -7.01      0.00
    2   26   27      8.88      0.00
    3   26   27     -8.91      0.00
    4   26   27      1.33      0.00
    5   26   27      3.79      0.00
    6   26   27      1.03      0.00
    7   26   27      0.68      0.00
    8   26   27      2.20      0.00
    9   26   27      1.21      0.00
    1   27   27     -3.31      0.00
    2   27   27     10.71      0.00
    3   27   27      4.03      0.00
    4   27   27     -7.53      0.00
    5   27   27      3.99      0.00
    6   27   27     -0.79      0.00
   15   15   28    -10.74      0.00
   14   16   28      0.40      0.00
   15   16   28      8.80      0.00
   16   16   28     -6.99      0.00
   12   17   28    -13.39      0.00
   13   17   28     12.96      0.00
   14   17   28     -0.35      0.00
   15   17   28     -8.69      0.00
   16   17   28      3.56      0.00
   17   17   28     -0.47      0.00
   11   18   28      4.20      0.00
   12   18   28      6.21      0.00
   13   18   28     -1.33      0.00
   14   18   28     -4.71      0.00
   15   18   28     -8.81      0.00
   16   18   28     -4.50      0.00
   17   18   28     -1.45      0.00
   18   18   28     -7.00      0.00
    9   19   28    -20.04      0.00
   10   19   28      6.85      0.00
   11   19   28     -7.23      0.00
   12   19   28      7.02      0.00
   13   19   28      6.73      0.00
   14   19   28     -2.17      0.00
   15   19   28      3.76      0.00
   16   19   28     -5.26      0.00
   17   19   28      1.43      0.00
   18   19   28      4.20      0.00
    6   20   28      1.80      0.00
    7   20   28    -11.91      0.00
    8   20   28      9.84      0.00
    9   20   28     14.75      0.00
   10   20   28      6.64      0.00
   11   20   28     -4.84      0.00
   12   20   28     -1.94      0.00
   13   20   28     -3.95      0.00
   14   20   28      0.40      0.00
   15   20   28     -0.72      0.00
   16   20   28     -0.91      0.00
   17   20   28      0.33      0.00
    1   21   28     -5.75      0.00
    2   21   28     -7.61      0.00
    3   21   28     -2.54      0.00
    4   21   28      1.82      0.00
    5   21   28     -0.26      0.00
    6   21   28     -0.71      0.00
    7   21   28      0.75      0.00
    8   21   28      3.12      0.00
    9   21   28     -5.43      0.00
   10   21   28     -0.13      0.00
   11   21   28     10.30      0.00
   12   21   28      7.24      0.00
   13   21   28     -7.90      0.00
   14   21   28     -2.90      0.00
   15   21   28      2.13      0.00
   16   21   28      3.18      0.00
    0   22   28      2.71      0.00
    1   22   28     -1.38      0.00
    2   22   28      0.23      0.00
    3   22   28      0.58      0.00
    4   22   28    -19.94      0.00
    5   22   28    -12.44      0.00
    6   22   28    -11.55      0.00
    7   22   28      4.48      0.00
    8   22   28     -1.62      0.00
    9   22   28     -5.54      0.00
   10   22   28     -1.17      0.00
   11   22   28     -1.48      0.00
   12   22   28     -2.96      0.00
   13   22   28     -0.21      0.00
   14   22   28     -0.44      0.00
    1   23   28      1.13      0.00
    2   23   28      1.79      0.00
    3   23   28      4.25      0.00
    4   23   28      1.33      0.00
    5   23   28     -5.66      0.00
    6   23   28      5.63      0.00
    7   23   28      4.81      0.00
    8   23   28      0.16      0.00
    9   23   28      1.42      0.00
   10   23   28     -5.45      0.00
   11   23   28      8.97      0.00
   12   23   28     -1.67      0.00
   13   23   28      3.30      0.00
    0   24   28     -1.20      0.00
    1   24   28     -2.97      0.00
    2   24   28      2.04      0.00
    3   24   28     -2.29      0.00
    4   24   28      2.54      0.00
    5   24   28      4.77      0.00
    6   24   28     -4.12      0.00
    7   24   28      1.30      0.00
    8   24   28    -11.85      0.00
    9   24   28      3.67      0.00
   10   24   28      8.55      0.00
   11   24   28      0.79      0.00
    1   25   28      5.36      0.00
    2   25   28      8.88      0.00
    3   25   28     -3.62      0.00
    4   25   28     -3.84      0.00
    5   25   28     -1.79      0.00
    6   25   28     11.75      0.00
    7   25   28     -6.47      0.00
    8   25   28     -1.01      0.00
    0   26   28     -5.49      0.00
    1   26   28      2.43      0.00
    2   26   28     -4.88      0.00
    3   26   28     -5.05      0.00
    4   26   28     -0.38      0.00
    5   26   28      5.85      0.00
   13   14   29     -5.52      0.00
   12   15   29     22.09      0.00
   13   15   29     -2.06      0.00
   14   15   29      2.12      0.00
   11   16   29    -15.52      0.00
   12   16   29    -22.32      0.00
   13   16   29     -1.92      0.00
   14   16   29     12.51      0.00
   15   16   29      1.47      0.00
    9   17   29    -10.36      0.00
   10   17   29      4.38      0.00
   11   17   29     -3.70      0.00
   12   17   29      9.45      0.00
   13   17   29     -5.18      0.00
   14   17   29      0.99      0.00
   15   17   29     13.08      0.00
   16   17   29      1.53      0.00
    6   18   29     -0.14      0.00
    7   18   29      2.32      0.00
    8   18   29      9.45      0.00
    9   18   29     -6.67      0.00
   10   18   29     -9.43      0.00
   11   18   29     -2.03      0.00
   12   18   29     -6.41      0.00
   13   18   29     -2.16      0.00
   14   18   29      2.52      0.00
   15   18   29     15.31      0.00
   16   18   29      3.07      0.00
   17   18   29     -0.29      0.00
    1   19   29     -3.40      0.00
    2   19   29     -4.21      0.00
    3   19   29     -0.41      0.00
    4   19   29      4.07      0.00
    5   19   29      6.24      0.00
    6   19   29     17.57      0.00
    7   19   29    -12.30      0.00
    8   19   29    -13.65      0.00
    9   19   29     -5.27      0.00
   10   19   29    -20.51      0.00
   11   19   29      3.28      0.00
   12   19   29      1.70      0.00
   13   19   29     -5.61      0.00
   14   19   29     -1.97      0.00
   15   19   29      3.93      0.00
   16   19   29      0.98      0.00
    0   20   29     -2.45      0.00
    1   20   29      5.54      0.00
    2   20   29     -1.03      0.00
    3   20   29     -1.45      0.00
    4   20   29     -7.69      0.00
    5   20   29     -4.33      0.00
    6   20   29      4.20      0.00
    7   20   29    -10.27      0.00
    8   20   29     -5.13      0.00
    9   20   29      0.76      0.00
   10   20   29     -6.10      0.00
   11   20   29     -8.54      0.00
   12   20   29     -5.37      0.00
   13   20   29     -2.37      0.00
   14   20   29      2.79      0.00
   15   20   29      2.27      0.00
    1   21   29     -5.86      0.00
    2   21   29    -16.13      0.00
    3   21   29      4.15      0.00
    4   21   29      0.40      0.00
    5   21   29     -1.87      0.00
    6   21   29      3.55      0.00
    7   21   29    -13.16      0.00
    8   21   29      7.74      0.00
    9   21   29      2.54      0.00
   10   21   29      0.82      0.00
   11   21   29     -7.69      0.00
   12   21   29      2.14      0.00
   13   21   29      9.83      0.00
    0   22   29      1.33      0.00
    1   22   29      5.74      0.00
    2   22   29      0.81      0.00
    3   22   29      5.15      0.00
    4   22   29     -0.82      0.00
    5   22   29     -5.19      0.00
    6   22   29     -0.01      0.00
    7   22   29     -5.08      0.00
    8   22   29     -6.88      0.00
    9   22   29      7.53      0.00
   10   22   29      6.58      0.00
   11   22   29      2.46      0.00
   12   22   29     -1.34      0.00
    1   23   29      5.84      0.00
    2   23   29     -7.87      0.00
    3   23   29     -3.14      0.00
    4   23   29      2.40      0.00
    5   23   29     11.66      0.00
    6   23   29    -18.76      0.00
    7   23   29     -9.34      0.00
    8   23   29      0.42      0.00
    9   23   29     -3.53      0.00
   10   23   29      2.02      0.00
    0   24   29      1.46      0.00
    1   24   29      3.92      0.00
    2   24   29     -5.08      0.00
    3   24   29     -2.42      0.00
    4   24   29      4.48      0.00
    5   24   29     -2.31      0.00
    6   24   29     -9.26      0.00
    7   24   29      1.07      0.00
    1   25   29     -8.26      0.00
    2   25   29      7.48      0.00
    3   25   29     -3.23      0.00
   12   12   30    -11.73      0.00
   11   13   30     -3.47      0.00
   12   13   30     10.04      0.00
   13   13   30      5.33      0.00
   10   14   30    -13.26      0.00
   11   14   30    -11.70      0.00
   12   14   30     15.20      0.00
   13   14   30      0.60      0.00
   14   14   30     -9.22      0.00
    8   15   30    -13.10      0.00
    9   15   30      9.19      0.00
   10   15   30     -7.37      0.00
   11   15   30      8.97      0.00
   12   15   30      4.36      0.00
   13   15   30      7.29      0.00
   14   15   30      3.84      0.00
   15   15   30     -9.79      0.00
    6   16   30     -3.67      0.00
    7   16   30     -0.13      0.00
    8   16   30     -2.65      0.00
    9   16   30     11.38      0.00
   10   16   30     -9.65      0.00
   11   16   30     -3.92      0.00
   12   16   30     -3.19      0.00
   13   16   30     10.45      0.00
   14   16   30     12.06      0.00
   15   16   30      1.06      0.00
   16   16   30     -5.05      0.00
    1   17   30      1.87      0.00
    2   17   30     -8.56      0.00
    3   17   30     18.61      0.00
    4   17   30      4.18      0.00
    5   17   30     -0.03      0.00
    6   17   30     -1.22      0.00
    7   17   30      1.01      0.00
    8   17   30      8.60      0.00
    9   17   30      7.88      0.00
   10   17   30      3.86      0.00
   11   17   30      7.71      0.00
   12   17   30     -7.44      0.00
   13   17   30      3.27      0.00
   14   17   30     -5.70      0.00
   15   17   30      1.78      0.00
   16   17   30      0.20      0.00
    0   18   30     -0.16      0.00
    1   18   30     -1.61      0.00
    2   18   30     19.84      0.00
    3   18   30      8.84      0.00
    4   18   30      3.32      0.00
    5   18   30     -9.79      0.00
    6   18   30      0.63      0.00
    7   18   30     -8.17      0.00
    8   18   30     -7.91      0.00
    9   18   30     -9.21      0.00
   10   18   30      1.20      0.00
   11   18   30      5.56      0.00
   12   18   30     -1.52      0.00
   13   18   30      3.34      0.00
   14   18   30     -1.51      0.00
   15   18   30     -0.15      0.00
    1   19   30      2.14      0.00
    2   19   30    -10.46      0.00
    3   19   30     11.13      0.00
    4   19   30     -5.04      0.00
    5   19   30    -10.79      0.00
    6   19   30      1.90      0.00
    7   19   30      5.01      0.00
    8   19   30     15.54      0.00
    9   19   30     -6.20      0.00
   10   19   30      1.02      0.00
   11   19   30     -9.28      0.00
   12   19   30     -4.10      0.00
   13   19   30      8.06      0.00
   14   19   30      5.39      0.00
    0   20   30     -5.05      0.00
    1   20   30      0.66      0.00
    2   20   30     -0.75      0.00
    3   20   30      1.98      0.00
    4   20   30     -2.38      0.00
    5   20   30     -0.36      0.00
    6   20   30      0.52      0.00
    7   20   30     -2.09      0.00
    8   20   30      7.46      0.00
    9   20   30      6.49      0.00
   10   20   30      5.38      0.00
   11   20   30      0.55      0.00
   12   20   30     -3.92      0.00
    1   21   30     -5.07      0.00
    2   21   30     -5.83      0.00
    3   21   30      5.18      0.00
    4   21   30     -1.85      0.00
    5   21   30      2.09      0.00
    6   21   30      3.16      0.00
    7   21   30      9.99      0.00
    8   21   30      3.65      0.00
    9   21   30     -6.50      0.00
   10   21   30      0.62      0.00
   11   21   30     -2.17      0.00
    0   22   30      5.37      0.00
    1   22   30     -3.45      0.00
    2   22   30     -7.55      0.00
    3   22   30     -4.78      0.00
    4   22   30     -3.26      0.00
    5   22   30     -4.20      0.00
    6   22   30      1.83      0.00
    7   22   30     -0.86      0.00
    8   22   30     -1.55      0.00
    1   23   30     -0.12      0.00
    2   23   30      2.71      0.00
    3   23   30     -1.04      0.00
    4   23   30     -0.40      0.00
    5   23   30      6.14      0.00
   10   11   31     -2.40      0.00
    9   12   31     10.51      0.00
   10   12   31      1.04      0.00
   11   12   31      7.07      0.00
    7   13   31     -6.14      0.00
    8   13   31    -17.38      0.00
    9   13   31     -7.85      0.00
   10   13   31     -6.40      0.00
   11   13   31      0.16      0.00
   12   13   31      6.33      0.00
    4   14   31     -7.91      0.00
    5   14   31     -8.76      0.00
    6   14   31     -8.97      0.00
    7   14   31     -3.55      0.00
    8   14   31     10.66      0.00
    9   14   31      6.98      0.00
   10   14   31     -1.80      0.00
   11   14   31     -0.62      0.00
   12   14   31     -1.83      0.00
   13   14   31     -7.54      0.00
    1   15   31     -5.55      0.00
    2   15   31    -10.55      0.00
    3   15   31    -14.82      0.00
    4   15   31      5.05      0.00
    5   15   31     -0.56      0.00
    6   15   31     -5.30      0.00
    7   15   31      2.99      0.00
    8   15   31     -4.03      0.00
    9   15   31     -5.31      0.00
   10   15   31     -0.73      0.00
   11   15   31     -1.65      0.00
   12   15   31      3.40      0.00
   13   15   31     -0.98      0.00
   14   15   31      3.51      0.00
    0   16   31    -16.74      0.00
    1   16   31      7.80      0.00
    2   16   31     12.11      0.00
    3   16   31     -6.05      0.00
    4   16   31     -9.40      0.00
    5   16   31      1.80      0.00
    6   16   31      2.48      0.00
    7   16   31      8.75      0.00
    8   16   31     -7.06      0.00
    9   16   31     -3.77      0.00
   10   16   31     -3.18      0.00
   11   16   31     -0.62      0.00
   12   16   31      1.48      0.00
   13   16   31     -2.89      0.00
   14   16   31     -6.18      0.00
   15   16   31     -4.50      0.00
    1   17   31     -9.30      0.00
    2   17   31     -7.28      0.00
    3   17   31      4.11      0.00
    4   17   31      4.99      0.00
    5   17   31      1.33      0.00
    6   17   31      5.86      0.00
    7   17   31      4.07      0.00
    8   17   31     -2.49      0.00
    9   17   31      4.11      0.00
   10   17   31     -5.06      0.00
   11   17   31      0.14      0.00
   12   17   31      6.26      0.00
   13   17   31      4.36      0.00
   14   17   31     -6.49      0.00
    0   18   31    -16.76      0.00
    1   18   31      6.03      0.00
    2   18   31      9.26      0.00
    3   18   31      6.13      0.00
    4   18   31      5.86      0.00
    5   18   31     -4.17      0.00
    6   18   31     -2.49      0.00
    7   18   31      7.88      0.00
    8   18   31      2.99      0.00
    9   18   31     11.67      0.00
   10   18   31      2.08      0.00
   11   18   31     -4.62      0.00
   12   18   31      0.00      0.00
    1   19   31     -2.29      0.00
    2   19   31      5.17      0.00
    3   19   31      3.00      0.00
    4   19   31      1.65      0.00
    5   19   31     -1.31      0.00
    6   19   31      2.85      0.00
    7   19   31     -6.83      0.00
    8   19   31     -0.90      0.00
    9   19   31     -3.79      0.00
   10   19   31      1.42      0.00
   11   19   31     -0.17      0.00
    0   20   31     -3.56      0.00
    1   20   31     -2.64      0.00
    2   20   31     -4.50      0.00
    3   20   31      1.07      0.00
    4   20   31     -2.50      0.00
    5   20   31      0.41      0.00
    6   20   31     -2.28      0.00
    7   20   31     -4.55      0.00
    8   20   31      4.53      0.00
    9   20   31      3.21      0.00
    1   21   31     -5.74      0.00
    2   21   31      0.26      0.00
    3   21   31     -3.62      0.00
    4   21   31      2.12      0.00
    5   21   31      2.19      0.00
    6   21   31     -0.04      0.00
    0   22   31     -2.68      0.00
    1   22   31      9.29      0.00
    8    9   32     -1.93      0.00
    9    9   32     -1.61      0.00
    6   10   32     -2.14      0.00
    7   10   32     -8.38      0.00
    8   10   32     19.62      0.00
    9   10   32      1.83      0.00
   10   10   32     -8.26      0.00
    4   11   32    -10.30      0.00
    5   11   32      1.71      0.00
    6   11   32     -7.34      0.00
    7   11   32     -5.92      0.00
    8   11   32      2.19      0.00
    9   11   32      5.56      0.00
   10   11   32      5.71      0.00
   11   11   32     -0.75      0.00
    0   12   32      0.26      0.00
    1   12   32     -6.52      0.00
    2   12   32     -0.53      0.00
    3   12   32      1.93      0.00
    4   12   32      2.64      0.00
    5   12   32      0.97      0.00
    6   12   32      5.60      0.00
    7   12   32      7.75      0.00
    8   12   32     -4.55      0.00
    9   12   32     -1.95      0.00
   10   12   32      4.37      0.00
   11   12   32     -0.73      0.00
   12   12   32     12.75      0.00
    1   13   32    -11.33      0.00
    2   13   32      4.03      0.00
    3   13   32      4.94      0.00
    4   13   32      9.09      0.00
    5   13   32      1.03      0.00
    6   13   32      3.86      0.00
    7   13   32      2.76      0.00
    8   13   32     -3.84      0.00
    9   13   32     -5.64      0.00
   10   13   32    -11.85      0.00
   11   13   32     -0.18      0.00
   12   13   32      8.20      0.00
   13   13   32      4.11      0.00
    0   14   32     -0.90      0.00
    1   14   32     -1.54      0.00
    2   14   32      5.00      0.00
    3   14   32     -3.50      0.00
    4   14   32     -3.68      0.00
    5   14   32     -4.79      0.00
    6   14   32      7.60      0.00
    7   14   32     -0.56      0.00
    8   14   32    -10.16      0.00
    9   14   32     -5.60      0.00
   10   14   32      0.29      0.00
   11   14   32     -4.02      0.00
   12   14   32     -4.53      0.00
   13   14   32      2.51      0.00
   14   14   32     -5.87      0.00
    1   15   32      2.20      0.00
    2   15   32     -3.50      0.00
    3   15   32      2.59      0.00
    4   15   32     -5.27      0.00
    5   15   32     -7.87      0.00
    6   15   32      1.82      0.00
    7   15   32      7.37      0.00
    8   15   32     -3.44      0.00
    9   15   32     -1.66      0.00
   10   15   32     -5.50      0.00
   11   15   32     -0.54      0.00
   12   15   32      2.81      0.00
   13   15   32      1.78      0.00
    0   16   32      8.00      0.00
    1   16   32      8.84      0.00
    2   16   32     -4.14      0.00
    3   16   32     -5.62      0.00
    4   16   32     -1.69      0.00
    5   16   32      1.57      0.00
    6   16   32      2.24      0.00
    7   16   32     -0.49      0.00
    8   16   32     -9.09      0.00
    9   16   32      3.96      0.00
   10   16   32     -1.92      0.00
   11   16   32      3.25      0.00
   12   16   32     -3.21      0.00
    1   17   32      8.85      0.00
    2   17   32      1.35      0.00
    3   17   32     -4.71      0.00
    4   17   32     -1.15      0.00
    5   17   32     -1.36      0.00
    6   17   32      6.71      0.00
    7   17   32      5.65      0.00
    8   17   32      0.95      0.00
    9   17   32      4.57      0.00
   10   17   32     -3.05      0.00
   11   17   32     -0.41      0.00
    0   18   32      4.85      0.00
    1   18   32      4.69      0.00
    2   18   32     -0.59      0.00
    3   18   32      2.71      0.00
    4   18   32      0.16      0.00
    5   18   32     -2.67      0.00
    6   18   32      8.59      0.00
    7   18   32     -1.33      0.00
    8   18   32      4.25      0.00
    9   18   32      0.84      0.00
    1   19   32      1.40      0.00
    2   19   32     -0.48      0.00
    3   19   32     -3.87      0.00
    4   19   32      1.26      0.00
    5   19   32      5.48      0.00
    6   19   32      8.99      0.00
    7   19   32     -5.93      0.00
    0   20   32      5.61      0.00
    1   20   32      5.32      0.00
    2   20   32     -3.98      0.00
    3   20   32      6.39      0.00
    4    6   33     -0.28      0.00
    5    6   33     16.28      0.00
    2    7   33     -3.53      0.00
    3    7   33     -2.02      0.00
    4    7   33     -1.19      0.00
    5    7   33     -0.11      0.00
    6    7   33      2.94      0.00
    0    8   33     -0.67      0.00
    1    8   33      0.13      0.00
    2    8   33     11.04      0.00
    3    8   33      5.06      0.00
    4    8   33      7.94      0.00
    5    8   33      3.02      0.00
    6    8   33    -10.22      0.00
    7    8   33     -3.73      0.00
    1    9   33      2.06      0.00
    2    9   33     -0.28      0.00
    3    9   33     -0.62      0.00
    4    9   33     -6.22      0.00
    5    9   33    -10.90      0.00
    6    9   33      8.99      0.00
    7    9   33     -1.47      0.00
    8    9   33    -14.53      0.00
    0   10   33      7.70      0.00
    1   10   33     -4.82      0.00
    2   10   33      0.04      0.00
    3   10   33      3.59      0.00
    4   10   33     -6.61      0.00
    5   10   33     -7.68      0.00
    6   10   33     -1.60      0.00
    7   10   33    -23.98      0.00
    8   10   33     -0.03      0.00
    9   10   33      8.59      0.00
    1   11   33     -1.74      0.00
    2   11   33     -0.96      0.00
    3   11   33      6.20      0.00
    4   11   33     -2.74      0.00
    5   11   33      2.85      0.00
    6   11   33     -3.59      0.00
    7   11   33      7.64      0.00
    8   11   33      1.61      0.00
    9   11   33     -2.84      0.00
   10   11   33     -0.80      0.00
    0   12   33     -4.93      0.00
    1   12   33      2.43      0.00
    2   12   33      3.37      0.00
    3   12   33      0.36      0.00
    4   12   33      9.16      0.00
    5   12   33     -1.23      0.00
    6   12   33     -2.49      0.00
    7   12   33     -1.77      0.00
    8   12   33     -3.21      0.00
    9   12   33     10.29      0.00
   10   12   33      8.46      0.00
   11   12   33      7.11      0.00
    1   13   33     -6.35      0.00
    2   13   33    -10.86      0.00
    3   13   33      4.98      0.00
    4   13   33     -4.85      0.00
    5   13   33      0.13      0.00
    6   13   33      6.01      0.00
    7   13   33      1.05      0.00
    8   13   33     -5.12      0.00
    9   13   33     -2.35      0.00
   10   13   33     -1.09      0.00
   11   13   33      0.54      0.00
   12   13   33     -4.10      0.00
    0   14   33      0.37      0.00
    1   14   33      3.56      0.00
    2   14   33      0.11      0.00
    3   14   33     -0.68      0.00
    4   14   33      8.86      0.00
    5   14   33      2.61      0.00
    6   14   33      5.28      0.00
    7   14   33      8.50      0.00
    8   14   33      0.70      0.00
    9   14   33     -2.58      0.00
   10   14   33      0.91      0.00
   11   14   33     -7.57      0.00
    1   15   33      1.36      0.00
    2   15   33     -3.26      0.00
    3   15   33      7.83      0.00
    4   15   33     10.34      0.00
    5   15   33      3.12      0.00
    6   15   33     -2.18      0.00
    7   15   33     -2.99      0.00
    8   15   33     -1.40      0.00
    9   15   33      2.57      0.00
   10   15   33     -6.70      0.00
    0   16   33      7.08      0.00
    1   16   33      0.35      0.00
    2   16   33      7.77      0.00
    3   16   33      6.39      0.00
    4   16   33      0.01      0.00
    5   16   33     -3.90      0.00
    6   16   33     -6.24      0.00
    7   16   33      3.58      0.00
    8   16   33      3.12      0.00
    1   17   33      3.73      0.00
    2   17   33      0.05      0.00
    3   17   33     -7.23      0.00
    4   17   33      0.47      0.00
    5   17   33      4.64      0.00
    6   17   33     -2.33      0.00
    0   18   33     -3.87      0.00
    1   18   33      6.11      0.00
    2   18   33      4.33      0.00
    0    0    0      0.00      0.00
# SQUEEZE RESULTS (Version = 150216)
# Note: Data are Listed for all Voids in the P1 Unit Cell
# i.e. Centre of Gravity, Solvent Accessible Volume,
# Recovered number of Electrons in the Void and
# Details about the Squeezed Material
loop_
  _platon_squeeze_void_nr
  _platon_squeeze_void_average_x
  _platon_squeeze_void_average_y
  _platon_squeeze_void_average_z
  _platon_squeeze_void_volume
  _platon_squeeze_void_count_electrons
  _platon_squeeze_void_content
   1 -0.007  0.004 -0.006     21026      4634 ' '
_platon_squeeze_void_probe_radius                  1.20
_platon_squeeze_details
)
TITL B in Cc                          New: P42/mbc
CELL   31.2360   31.2360   28.1940     90.00     90.00     90.00
SPGR P42/mbc
# Solvent Accessible Volume =     21033
# Electrons Found in S.A.V. =      4604
# Note: Atoms in Void as Cxxx and Qxxx all others
C101 0.840 0.352 0.500 !       2.32 eA-3
C102 0.567 0.934 0.376 !       2.06 eA-3
C103 0.416 0.059 0.380 !       1.87 eA-3
C104 0.584 0.941 0.620 !       1.87 eA-3
C105 0.444 0.095 0.881 !       1.87 eA-3
C106 0.064 0.599 0.381 !       1.85 eA-3
C107 0.046 0.602 0.888 !       1.75 eA-3
Q108 0.754 0.211 0.000 !       1.74 eA-3
C109 0.796 0.600 0.157 !       1.72 eA-3
C110 0.285 0.093 0.328 !       1.61 eA-3
C111 0.018 0.477 0.500 !       1.59 eA-3
C112 0.530 0.320 0.503 !       1.58 eA-3
C113 0.606 0.196 0.327 !       1.55 eA-3
Q114 0.227 0.258-0.002 !       1.48 eA-3
C115 1.000 0.501 0.484 !       1.47 eA-3
C116 0.840 0.055 0.000 !       1.44 eA-3
C117 0.259 0.502 0.476 !       1.39 eA-3
C118 0.619 0.786 0.220 !       1.39 eA-3
C119 0.338 0.102 0.498 !       1.36 eA-3
C120 0.482 0.258-0.003 !       1.35 eA-3
C121 0.157 0.477 0.001 !       1.34 eA-3
C122 0.204 0.597 0.300 !       1.31 eA-3
C123 0.216 0.390 0.170 !       1.31 eA-3
C124 1.000 1.000 0.500 !       1.31 eA-3
C125 0.201 0.500-0.001 !       1.30 eA-3
C126 0.614 0.078 0.499 !       1.30 eA-3
C127 0.283 0.127 0.303 !       1.30 eA-3
C128 0.958 0.172 0.001 !       1.29 eA-3
C129 0.487 0.008 0.000 !       1.26 eA-3
C130 0.502 0.289 0.002 !       1.25 eA-3
C131 0.251 0.881 0.188 !       1.25 eA-3
Q132 0.407 0.090 0.364 !       1.24 eA-3
C133 0.236 0.328 0.002 !       1.22 eA-3
C134 0.462 0.180 0.501 !       1.22 eA-3
C135 0.270 1.000 0.498 !       1.21 eA-3
C136 0.274 0.712 0.157 !       1.20 eA-3
C137 0.235 0.586 0.353 !       1.20 eA-3
C138 0.716 0.297 0.484 !       1.20 eA-3
C139 0.215 0.023 0.501 !       1.20 eA-3
C140 0.783 0.803 0.176 !       1.19 eA-3
C141 0.648 0.109 0.497 !       1.19 eA-3
C142 0.142 0.430 0.503 !       1.19 eA-3
C143 0.947 0.825 0.478 !       1.18 eA-3
C144 0.258 0.484 0.000 !       1.17 eA-3
C145 0.674 0.007 0.046 !       1.17 eA-3
C146 0.349 0.484-0.004 !       1.16 eA-3
C147 0.628 0.177 0.325 !       1.12 eA-3
C148 0.945 0.211-0.001 !       1.12 eA-3
C149 0.390 0.056 0.086 !       1.12 eA-3
C150 0.542 0.289 0.499 !       1.11 eA-3
C151 0.799 0.195 0.324 !       1.11 eA-3
C152 0.232 0.600 0.299 !       1.11 eA-3
C153 0.562 0.790 0.150 !       1.11 eA-3
C154 0.735 0.463 0.478 !       1.11 eA-3
C155 0.084 0.164 0.500 !       1.11 eA-3
C156 0.373 0.777 0.289 !       1.11 eA-3
C157 0.980 0.680 0.484 !       1.10 eA-3
C158 0.645 0.454 0.477 !       1.10 eA-3
C159 0.342 0.909 0.481 !       1.09 eA-3
C160 0.855 0.320 0.499 !       1.09 eA-3
C161 0.415 0.779 0.377 !       1.09 eA-3
C162 0.102 0.256 0.344 !       1.09 eA-3
C163 0.716 0.084 0.874 !       1.08 eA-3
C164 0.485 0.037 0.038 !       1.08 eA-3
C165 0.298 0.924 0.872 !       1.07 eA-3
C166 0.085 0.333 0.989 !       1.07 eA-3
C167 0.015 0.692 0.467 !       1.07 eA-3
C168 0.686 0.477 0.501 !       1.07 eA-3
C169 0.161 1.000 0.497 !       1.07 eA-3
C170 0.455 0.448 0.344 !       1.06 eA-3
C171 0.017 0.522 0.470 !       1.06 eA-3
C172 0.344 0.533 0.266 !       1.05 eA-3
C173 0.723 0.616 0.170 !       1.05 eA-3
C174 0.626 0.416 0.357 !       1.04 eA-3
C175 0.109 0.689 0.169 !       1.04 eA-3
C176 0.702 0.523 0.021 !       1.03 eA-3
C177 0.267 0.477 0.499 !       1.03 eA-3
C178 0.915 0.211-0.004 !       1.03 eA-3
C179 0.094 0.863 0.870 !       1.02 eA-3
C180 0.191 0.195 0.498 !       1.02 eA-3
C181 0.186 0.804 0.297 !       1.02 eA-3
C182 0.982 0.367 0.482 !       1.00 eA-3
C183 0.397 0.094 0.499 !       0.99 eA-3
C184 0.783 0.221 0.311 !       0.99 eA-3
C185 0.610 0.094 0.002 !       0.99 eA-3
C186 0.455 0.141 0.498 !       0.98 eA-3
C187 0.096 0.880 0.318 !       0.98 eA-3
C188 0.996 0.219 0.498 !       0.98 eA-3
C189 0.530 0.152 0.463 !       0.98 eA-3
C190 0.387 0.073 0.090 !       0.98 eA-3
C191 0.666 0.258 0.477 !       0.97 eA-3
C192 0.185 0.473 0.056 !       0.97 eA-3
C193 0.217 0.055 0.478 !       0.97 eA-3
C194 0.083 0.179 0.531 !       0.96 eA-3
C195 0.917 0.821 0.469 !       0.96 eA-3
C196 0.806 0.966 0.480 !       0.96 eA-3
C197 0.340 0.162 0.049 !       0.96 eA-3
C198 0.180 0.914 0.972 !       0.96 eA-3
C199 0.625 0.039 0.003 !       0.96 eA-3
)
;
_shelx_fab_checksum              33935
loop_
_space_group_symop_operation_xyz
'x, y, z'
'-y, x, z+1/2'
'-x, -y, z'
'y, -x, z+1/2'
'x+1/2, -y+1/2, -z'
'y+1/2, x+1/2, -z+1/2'
'-x+1/2, y+1/2, -z'
'-y+1/2, -x+1/2, -z+1/2'
'-x, -y, -z'
'y, -x, -z-1/2'
'x, y, -z'
'-y, x, -z-1/2'
'-x-1/2, y-1/2, z'
'-y-1/2, -x-1/2, z-1/2'
'x-1/2, -y-1/2, z'
'y-1/2, x-1/2, z-1/2'
loop_
_atom_site_label
_atom_site_type_symbol
_atom_site_fract_x
_atom_site_fract_y
_atom_site_fract_z
_atom_site_U_iso_or_equiv
_atom_site_adp_type
_atom_site_occupancy
_atom_site_site_symmetry_order
_atom_site_calc_flag
_atom_site_refinement_flags_posn
_atom_site_refinement_flags_adp
_atom_site_refinement_flags_occupancy
_atom_site_disorder_assembly
_atom_site_disorder_group
C1 C 0.9023(2) 0.2003(2) 0.4356(2) 0.0548(16) Uani 1 1 d . . . . .
C2 C 0.9261(2) 0.22082(19) 0.3960(2) 0.0528(15) Uani 1 1 d . . . . .
C3 C 0.9129(2) 0.2599(2) 0.3781(2) 0.0667(19) Uani 1 1 d . . . . .
H3 H 0.8892 0.2733 0.3913 0.080 Uiso 1 1 calc R U . . .
C4 C 0.9343(2) 0.2794(2) 0.3409(2) 0.0672(19) Uani 1 1 d . . . . .
H4 H 0.9250 0.3057 0.3293 0.081 Uiso 1 1 calc R U . . .
C5 C 0.9834(2) 0.2217(2) 0.3389(3) 0.076(2) Uani 1 1 d . . . . .
H5 H 1.0073 0.2082 0.3262 0.091 Uiso 1 1 calc R U . . .
C6 C 0.9613(2) 0.2026(2) 0.3769(3) 0.077(2) Uani 1 1 d . . . . .
H6 H 0.9711 0.1768 0.3891 0.093 Uiso 1 1 calc R U . . .
C7 C 0.9702(2) 0.2593(2) 0.3207(2) 0.0589(17) Uani 1 1 d . . . . .
C8 C 0.9963(2) 0.3242(2) 0.2779(2) 0.0579(17) Uani 1 1 d . . . . .
H8 H 0.9836 0.3407 0.3016 0.070 Uiso 1 1 calc R U . . .
C9 C 0.9927(2) 0.27969(19) 0.2804(2) 0.0611(18) Uani 1 1 d . . . . .
C10 C 1.0122(2) 0.2556(2) 0.2446(2) 0.069(2) Uani 1 1 d . . . . .
H10 H 1.0107 0.2259 0.2455 0.082 Uiso 1 1 calc R U . . .
C11 C 1.0342(2) 0.2760(2) 0.2074(2) 0.0635(18) Uani 1 1 d . . . . .
C12 C 1.0350(2) 0.32044(19) 0.2083(2) 0.0608(18) Uani 1 1 d . . . . .
H12 H 1.0487 0.3347 0.1837 0.073 Uiso 1 1 calc R U . . .
C13 C 1.0567(2) 0.25171(19) 0.1702(2) 0.0632(18) Uani 1 1 d . . . . .
C14 C 1.0407(3) 0.2138(2) 0.1553(3) 0.085(2) Uani 1 1 d . . . . .
H14 H 1.0159 0.2032 0.1692 0.102 Uiso 1 1 calc R U . . .
C15 C 1.0610(3) 0.1898(2) 0.1189(3) 0.080(2) Uani 1 1 d . . . . .
H15 H 1.0492 0.1642 0.1084 0.096 Uiso 1 1 calc R U . . .
C16 C 1.0990(2) 0.2052(2) 0.0993(2) 0.0590(16) Uani 1 1 d . . . . .
C17 C 1.1140(2) 0.2432(2) 0.1150(3) 0.078(2) Uani 1 1 d . . . . .
H17 H 1.1389 0.2544 0.1017 0.093 Uiso 1 1 calc R U . . .
C18 C 1.0933(2) 0.2659(2) 0.1505(3) 0.078(2) Uani 1 1 d . . . . .
H18 H 1.1050 0.2915 0.1611 0.094 Uiso 1 1 calc R U . . .
C19 C 1.1218(2) 0.1802(2) 0.0632(2) 0.0557(16) Uani 1 1 d . . . A 1
O3 O 1.15695(16) 0.19510(14) 0.04884(15) 0.0632(12) Uani 1 1 d . . . A 1
O4 O 1.10478(14) 0.14601(15) 0.04909(15) 0.0616(12) Uani 1 1 d . . . A 1
Cu1 Cu 0.83302(3) 0.19247(3) 0.5000 0.0447(3) Uani 1 2 d S T P . .
Cu2 Cu 0.89026(3) 0.13060(3) 0.5000 0.0461(3) Uani 1 2 d S T P . .
Cu3 Cu 1.02158(2) 0.40859(2) 0.24561(2) 0.0492(3) Uani 1 1 d . . . . .
Cu4 Cu 1.0000 0.5000 0.29964(3) 0.0472(3) Uani 1 2 d S T P . .
N1 N 1.01703(17) 0.34408(15) 0.24286(17) 0.0546(13) Uani 1 1 d . . . . .
O1 O 0.86918(14) 0.21796(13) 0.45075(14) 0.0560(11) Uani 1 1 d . . . . .
O2 O 0.91733(14) 0.16539(15) 0.45027(15) 0.0622(12) Uani 1 1 d . . . . .
O5 O 0.7829(3) 0.2396(2) 0.5000 0.100(3) Uani 1 2 d S T P . .
O6 O 0.9366(3) 0.0802(3) 0.5000 0.108(3) Uani 1 2 d S T P . .
O7 O 1.02991(11) 0.47009(11) 0.2500 0.0417(13) Uani 1 2 d S T P . .
O8 O 1.03438(19) 0.40016(15) 0.31434(17) 0.0873(17) Uani 1 1 d . . . . .
O9 O 1.02586(15) 0.46813(15) 0.35192(15) 0.0748(15) Uani 1 1 d . . . . .
O10 O 1.09350(15) 0.4476(2) 0.31931(18) 0.0892(17) Uani 1 1 d . . . . .
O11 O 1.06743(17) 0.41386(16) 0.38886(16) 0.0790(15) Uani 1 1 d . . . . .
O12 O 0.95894(16) 0.41900(17) 0.2208(2) 0.0860(15) Uani 1 1 d . . . . .
O13 O 0.9186(2) 0.38253(19) 0.2818(3) 0.122(2) Uani 1 1 d . . . . .
S1 S 1.05600(5) 0.43211(6) 0.34416(5) 0.0580(5) Uani 1 1 d . . . . .
S2 S 0.91945(6) 0.41945(6) 0.2500 0.0794(9) Uani 1 2 d S T P . .
loop_
_atom_site_aniso_label
_atom_site_aniso_U_11
_atom_site_aniso_U_22
_atom_site_aniso_U_33
_atom_site_aniso_U_23
_atom_site_aniso_U_13
_atom_site_aniso_U_12
C1 0.071(4) 0.059(4) 0.034(3) 0.002(3) 0.004(3) -0.008(3)
C2 0.063(4) 0.048(4) 0.047(3) 0.000(3) 0.016(3) -0.002(3)
C3 0.070(4) 0.072(5) 0.058(4) 0.001(4) 0.032(3) 0.001(4)
C4 0.090(5) 0.040(3) 0.071(4) 0.007(3) 0.031(4) 0.008(3)
C5 0.074(5) 0.066(5) 0.088(5) 0.010(4) 0.040(4) 0.007(4)
C6 0.092(5) 0.063(5) 0.077(5) 0.018(4) 0.036(4) 0.011(4)
C7 0.068(4) 0.049(4) 0.060(4) 0.000(3) 0.029(3) -0.007(3)
C8 0.067(4) 0.050(4) 0.057(4) -0.002(3) 0.031(3) 0.007(3)
C9 0.079(5) 0.046(4) 0.059(4) 0.007(3) 0.034(4) 0.007(3)
C10 0.089(5) 0.053(4) 0.064(4) 0.005(3) 0.033(4) 0.000(4)
C11 0.076(5) 0.053(4) 0.061(4) -0.001(3) 0.028(4) -0.006(3)
C12 0.075(4) 0.045(4) 0.062(4) -0.001(3) 0.028(4) 0.006(3)
C13 0.086(5) 0.041(3) 0.063(4) -0.009(3) 0.029(4) 0.001(3)
C14 0.092(6) 0.079(5) 0.083(5) -0.005(4) 0.055(5) 0.002(4)
C15 0.089(5) 0.059(4) 0.092(6) -0.021(4) 0.029(5) 0.006(4)
C16 0.065(4) 0.059(4) 0.053(4) -0.003(3) 0.014(3) 0.012(3)
C17 0.080(5) 0.068(5) 0.086(5) -0.009(4) 0.036(4) -0.001(4)
C18 0.097(6) 0.057(4) 0.081(5) -0.018(4) 0.046(4) -0.011(4)
C19 0.077(5) 0.053(4) 0.037(3) 0.000(3) 0.005(3) 0.017(4)
O3 0.080(3) 0.060(3) 0.049(3) -0.008(2) 0.014(2) 0.007(2)
O4 0.062(3) 0.067(3) 0.056(3) -0.011(2) 0.015(2) 0.008(2)
Cu1 0.0486(6) 0.0525(6) 0.0330(5) 0.000 0.000 -0.0078(5)
Cu2 0.0499(6) 0.0523(6) 0.0360(5) 0.000 0.000 -0.0092(5)
Cu3 0.0586(5) 0.0446(4) 0.0444(4) 0.0040(3) 0.0161(3) 0.0058(3)
Cu4 0.0541(6) 0.0534(6) 0.0340(5) 0.000 0.000 0.0111(5)
N1 0.068(3) 0.042(3) 0.054(3) 0.007(2) 0.025(3) 0.007(2)
O1 0.065(3) 0.055(3) 0.048(2) 0.002(2) 0.014(2) -0.005(2)
O2 0.065(3) 0.069(3) 0.053(3) 0.012(2) 0.010(2) -0.007(2)
O5 0.120(7) 0.081(5) 0.099(6) 0.000 0.000 0.030(5)
O6 0.088(6) 0.095(6) 0.140(8) 0.000 0.000 0.014(5)
O7 0.0459(19) 0.0459(19) 0.033(3) 0.0050(16) 0.0050(16) 0.005(2)
O8 0.147(5) 0.066(3) 0.049(3) 0.012(2) -0.002(3) -0.015(3)
O9 0.099(4) 0.090(3) 0.036(2) 0.013(2) 0.009(2) 0.047(3)
O10 0.059(3) 0.143(5) 0.066(3) 0.054(3) 0.002(2) 0.000(3)
O11 0.103(4) 0.089(4) 0.045(3) 0.028(2) -0.004(3) 0.023(3)
O12 0.072(3) 0.095(4) 0.091(4) -0.021(3) 0.001(3) 0.017(3)
O13 0.096(4) 0.077(4) 0.194(7) 0.042(4) 0.024(5) 0.002(3)
S1 0.0651(10) 0.0683(11) 0.0405(8) 0.0181(8) 0.0061(7) 0.0137(9)
S2 0.0597(10) 0.0597(10) 0.119(3) -0.0064(12) 0.0064(12) -0.0027(13)
loop_
_atom_type_symbol
_atom_type_description
_atom_type_scat_dispersion_real
_atom_type_scat_dispersion_imag
_atom_type_scat_source
C C 0.0033 0.0016 'International Tables Vol C Tables 4.2.6.8 and 6.1.1.4'
H H 0.0000 0.0000 'International Tables Vol C Tables 4.2.6.8 and 6.1.1.4'
Cu Cu 0.3201 1.2651 'International Tables Vol C Tables 4.2.6.8 and 6.1.1.4'
N N 0.0061 0.0033 'International Tables Vol C Tables 4.2.6.8 and 6.1.1.4'
O O 0.0106 0.0060 'International Tables Vol C Tables 4.2.6.8 and 6.1.1.4'
S S 0.1246 0.1234 'International Tables Vol C Tables 4.2.6.8 and 6.1.1.4'
loop_
_geom_angle_atom_site_label_1
_geom_angle_atom_site_label_2
_geom_angle_atom_site_label_3
_geom_angle
_geom_angle_site_symmetry_1
_geom_angle_site_symmetry_3
O2 C1 O1 125.4(6) . .
O2 C1 C2 115.8(6) . .
O1 C1 C2 118.8(6) . .
C3 C2 C6 117.9(6) . .
C3 C2 C1 120.4(6) . .
C6 C2 C1 121.7(6) . .
C2 C3 C4 121.4(6) . .
C2 C3 H3 119.3 . .
C4 C3 H3 119.3 . .
C3 C4 C7 119.7(6) . .
C3 C4 H4 120.2 . .
C7 C4 H4 120.2 . .
C7 C5 C6 120.6(6) . .
C7 C5 H5 119.7 . .
C6 C5 H5 119.7 . .
C2 C6 C5 121.8(6) . .
C2 C6 H6 119.1 . .
C5 C6 H6 119.1 . .
C5 C7 C4 118.6(6) . .
C5 C7 C9 121.5(6) . .
C4 C7 C9 119.8(6) . .
N1 C8 C9 122.5(5) . .
N1 C8 H8 118.7 . .
C9 C8 H8 118.7 . .
C8 C9 C10 117.7(6) . .
C8 C9 C7 120.3(5) . .
C10 C9 C7 122.0(6) . .
C11 C10 C9 120.5(6) . .
C11 C10 H10 119.8 . .
C9 C10 H10 119.8 . .
C12 C11 C10 116.5(6) . .
C12 C11 C13 121.4(6) . .
C10 C11 C13 122.0(6) . .
N1 C12 C11 123.8(6) . .
N1 C12 H12 118.1 . .
C11 C12 H12 118.1 . .
C14 C13 C18 118.2(6) . .
C14 C13 C11 119.8(6) . .
C18 C13 C11 122.0(6) . .
C13 C14 C15 121.5(7) . .
C13 C14 H14 119.2 . .
C15 C14 H14 119.2 . .
C14 C15 C16 119.0(7) . .
C14 C15 H15 120.5 . .
C16 C15 H15 120.5 . .
C17 C16 C15 118.0(6) . .
C17 C16 C19 121.7(6) . .
C15 C16 C19 120.4(6) . .
C16 C17 C18 121.5(7) . .
C16 C17 H17 119.2 . .
C18 C17 H17 119.2 . .
C13 C18 C17 121.8(7) . .
C13 C18 H18 119.1 . .
C17 C18 H18 119.1 . .
O4 C19 O3 125.4(6) . .
O4 C19 C16 117.7(6) . .
O3 C19 C16 116.8(6) . .
C19 O3 Cu1 123.4(4) . 10_666
C19 O4 Cu2 122.7(4) . 10_666
O1 Cu1 O1 90.3(2) . 11_556
O1 Cu1 O3 89.46(18) . 12_646
O1 Cu1 O3 168.3(2) 11_556 12_646
O1 Cu1 O3 168.3(2) . 2_645
O1 Cu1 O3 89.46(18) 11_556 2_645
O3 Cu1 O3 88.4(3) 12_646 2_645
O1 Cu1 O5 98.2(2) . .
O1 Cu1 O5 98.2(2) 11_556 .
O3 Cu1 O5 93.5(2) 12_646 .
O3 Cu1 O5 93.5(2) 2_645 .
O1 Cu1 Cu2 84.66(13) . .
O1 Cu1 Cu2 84.66(13) 11_556 .
O3 Cu1 Cu2 83.66(14) 12_646 .
O3 Cu1 Cu2 83.66(14) 2_645 .
O5 Cu1 Cu2 176.0(2) . .
O2 Cu2 O2 91.0(3) . 11_556
O2 Cu2 O4 88.43(19) . 12_646
O2 Cu2 O4 168.3(2) 11_556 12_646
O2 Cu2 O4 168.3(2) . 2_645
O2 Cu2 O4 88.43(19) 11_556 2_645
O4 Cu2 O4 89.7(3) 12_646 2_645
O2 Cu2 O6 96.6(2) . .
O2 Cu2 O6 96.6(2) 11_556 .
O4 Cu2 O6 95.1(2) 12_646 .
O4 Cu2 O6 95.1(2) 2_645 .
O2 Cu2 Cu1 83.47(14) . .
O2 Cu2 Cu1 83.47(14) 11_556 .
O4 Cu2 Cu1 84.82(14) 12_646 .
O4 Cu2 Cu1 84.82(14) 2_645 .
O6 Cu2 Cu1 179.8(2) . .
O7 Cu3 O8 92.39(14) . .
O7 Cu3 N1 176.1(2) . .
O8 Cu3 N1 85.4(2) . .
O7 Cu3 O10 91.45(14) . 8_665
O8 Cu3 O10 139.6(3) . 8_665
N1 Cu3 O10 88.13(18) . 8_665
O7 Cu3 O12 89.59(18) . .
O8 Cu3 O12 122.0(2) . .
N1 Cu3 O12 94.4(2) . .
O10 Cu3 O12 98.2(2) 8_665 .
O7 Cu4 O7 86.7(2) 3_765 .
O7 Cu4 O9 95.77(17) 3_765 3_765
O7 Cu4 O9 175.37(16) . 3_765
O7 Cu4 O9 175.37(15) 3_765 .
O7 Cu4 O9 95.77(17) . .
O9 Cu4 O9 82.0(3) 3_765 .
O7 Cu4 Cu4 43.35(11) 3_765 6_545
O7 Cu4 Cu4 43.35(11) . 6_545
O9 Cu4 Cu4 138.99(13) 3_765 6_545
O9 Cu4 Cu4 138.99(13) . 6_545
C8 N1 C12 118.9(5) . .
C8 N1 Cu3 117.9(4) . .
C12 N1 Cu3 123.1(4) . .
C1 O1 Cu1 122.8(4) . .
C1 O2 Cu2 123.6(4) . .
Cu4 O7 Cu4 93.3(2) 6_545 .
Cu4 O7 Cu3 117.47(14) 6_545 8_665
Cu4 O7 Cu3 111.64(3) . 8_665
Cu4 O7 Cu3 111.64(3) 6_545 .
Cu4 O7 Cu3 117.47(14) . .
Cu3 O7 Cu3 105.6(2) 8_665 .
S1 O8 Cu3 123.9(3) . .
S1 O9 Cu4 122.5(3) . .
S1 O10 Cu3 123.9(3) . 8_665
S2 O12 Cu3 126.1(3) . .
O11 S1 O10 111.0(3) . .
O11 S1 O9 109.3(3) . .
O10 S1 O9 109.3(3) . .
O11 S1 O8 110.4(3) . .
O10 S1 O8 108.8(4) . .
O9 S1 O8 107.9(3) . .
O12 S2 O12 108.9(4) 6_545 .
O12 S2 O13 110.4(3) 6_545 6_545
O12 S2 O13 108.4(4) . 6_545
O12 S2 O13 108.4(4) 6_545 .
O12 S2 O13 110.4(3) . .
O13 S2 O13 110.3(6) 6_545 .
loop_
_geom_bond_atom_site_label_1
_geom_bond_atom_site_label_2
_geom_bond_distance
_geom_bond_site_symmetry_2
C1 O2 1.258(7) .
C1 O1 1.248(7) .
C1 C2 1.485(8) .
C2 C3 1.382(9) .
C2 C6 1.350(8) .
C3 C4 1.387(8) .
C3 H3 0.9300 .
C4 C7 1.406(8) .
C4 H4 0.9300 .
C5 C7 1.346(9) .
C5 C6 1.407(9) .
C5 H5 0.9300 .
C6 H6 0.9300 .
C7 C9 1.480(8) .
C8 N1 1.334(7) .
C8 C9 1.398(8) .
C8 H8 0.9300 .
C9 C10 1.397(8) .
C10 C11 1.408(8) .
C10 H10 0.9300 .
C11 C12 1.388(8) .
C11 C13 1.472(8) .
C12 N1 1.344(7) .
C12 H12 0.9300 .
C13 C14 1.351(9) .
C13 C18 1.346(9) .
C14 C15 1.420(9) .
C14 H14 0.9300 .
C15 C16 1.393(9) .
C15 H15 0.9300 .
C16 C17 1.350(9) .
C16 C19 1.467(8) .
C17 C18 1.388(9) .
C17 H17 0.9300 .
C18 H18 0.9300 .
C19 O4 1.259(7) .
C19 O3 1.259(7) .
O3 Cu1 1.975(4) 10_666
O4 Cu2 1.962(4) 10_666
Cu1 O1 1.959(4) .
Cu1 O1 1.959(4) 11_556
Cu1 O3 1.975(4) 12_646
Cu1 O3 1.975(4) 2_645
Cu1 O5 2.149(8) .
Cu1 Cu2 2.6328(15) .
Cu2 O2 1.965(4) .
Cu2 O2 1.965(4) 11_556
Cu2 O4 1.962(4) 12_646
Cu2 O4 1.962(4) 2_645
Cu2 O6 2.138(8) .
Cu3 O7 1.943(3) .
Cu3 O8 1.996(5) .
Cu3 N1 2.022(5) .
Cu3 O10 2.069(4) 8_665
Cu3 O12 2.104(5) .
Cu4 O7 1.925(4) 3_765
Cu4 O7 1.925(4) .
Cu4 O9 1.953(4) 3_765
Cu4 O9 1.953(4) .
Cu4 Cu4 2.7989(19) 6_545
O7 Cu4 1.925(4) 6_545
O7 Cu3 1.942(3) 8_665
O8 S1 1.469(5) .
O9 S1 1.483(5) .
O10 S1 1.449(5) .
O10 Cu3 2.068(4) 8_665
O11 S1 1.429(4) .
O12 S2 1.484(5) .
O13 S2 1.461(6) .
S2 O12 1.484(5) 6_545
S2 O13 1.461(6) 6_545
loop_
_geom_torsion_atom_site_label_1
_geom_torsion_atom_site_label_2
_geom_torsion_atom_site_label_3
_geom_torsion_atom_site_label_4
_geom_torsion
_geom_torsion_site_symmetry_1
_geom_torsion_site_symmetry_4
O2 C1 C2 C3 -178.3(6) . .
O1 C1 C2 C3 3.6(9) . .
O2 C1 C2 C6 0.5(10) . .
O1 C1 C2 C6 -177.6(7) . .
C6 C2 C3 C4 1.7(11) . .
C1 C2 C3 C4 -179.4(6) . .
C2 C3 C4 C7 0.0(11) . .
C3 C2 C6 C5 -2.1(11) . .
C1 C2 C6 C5 179.0(7) . .
C7 C5 C6 C2 0.8(13) . .
C6 C5 C7 C4 0.8(12) . .
C6 C5 C7 C9 -179.3(7) . .
C3 C4 C7 C5 -1.2(11) . .
C3 C4 C7 C9 178.9(7) . .
N1 C8 C9 C10 0.5(11) . .
N1 C8 C9 C7 178.5(6) . .
C5 C7 C9 C8 -144.7(8) . .
C4 C7 C9 C8 35.2(11) . .
C5 C7 C9 C10 33.2(11) . .
C4 C7 C9 C10 -146.9(7) . .
C8 C9 C10 C11 -0.6(11) . .
C7 C9 C10 C11 -178.5(7) . .
C9 C10 C11 C12 -0.4(11) . .
C9 C10 C11 C13 177.3(7) . .
C10 C11 C12 N1 1.5(11) . .
C13 C11 C12 N1 -176.2(7) . .
C12 C11 C13 C14 -148.2(8) . .
C10 C11 C13 C14 34.3(11) . .
C12 C11 C13 C18 32.5(12) . .
C10 C11 C13 C18 -145.1(8) . .
C18 C13 C14 C15 -1.8(13) . .
C11 C13 C14 C15 178.8(7) . .
C13 C14 C15 C16 1.9(13) . .
C14 C15 C16 C17 -1.9(11) . .
C14 C15 C16 C19 177.2(7) . .
C15 C16 C17 C18 1.8(12) . .
C19 C16 C17 C18 -177.2(7) . .
C14 C13 C18 C17 1.6(13) . .
C11 C13 C18 C17 -179.0(7) . .
C16 C17 C18 C13 -1.7(13) . .
C17 C16 C19 O4 -177.2(7) . .
C15 C16 C19 O4 3.8(10) . .
C17 C16 C19 O3 2.4(10) . .
C15 C16 C19 O3 -176.5(7) . .
O4 C19 O3 Cu1 0.3(9) . 10_666
C16 C19 O3 Cu1 -179.3(4) . 10_666
O3 C19 O4 Cu2 -1.1(9) . 10_666
C16 C19 O4 Cu2 178.5(4) . 10_666
C9 C8 N1 C12 0.6(10) . .
C9 C8 N1 Cu3 -177.4(6) . .
C11 C12 N1 C8 -1.7(10) . .
C11 C12 N1 Cu3 176.2(6) . .
O2 C1 O1 Cu1 -1.9(9) . .
C2 C1 O1 Cu1 176.0(4) . .
O1 C1 O2 Cu2 1.2(9) . .
C2 C1 O2 Cu2 -176.8(4) . .
Cu3 O10 S1 O11 -177.7(4) 8_665 .
Cu3 O10 S1 O9 -57.0(5) 8_665 .
Cu3 O10 S1 O8 60.6(5) 8_665 .
Cu4 O9 S1 O11 -176.8(3) . .
Cu4 O9 S1 O10 61.5(4) . .
Cu4 O9 S1 O8 -56.6(4) . .
Cu3 O8 S1 O11 -169.4(4) . .
Cu3 O8 S1 O10 -47.4(5) . .
Cu3 O8 S1 O9 71.1(4) . .
Cu3 O12 S2 O12 71.8(3) . 6_545
Cu3 O12 S2 O13 -168.1(4) . 6_545
Cu3 O12 S2 O13 -47.1(5) . .
