#------------------------------------------------------------------------------
#$Date: 2017-05-03 05:06:56 +0300 (Wed, 03 May 2017) $
#$Revision: 195901 $
#$URL: file:///home/coder/svn-repositories/cod/cif/7/04/28/7042854.cif $
#------------------------------------------------------------------------------
#
# This file is available in the Crystallography Open Database (COD),
# http://www.crystallography.net/
#
# All data on this site have been placed in the public domain by the
# contributors.
#
data_7042854
loop_
_publ_author_name
'Fritzsche, Julia Christina'
'Grzywa, Maciej'
'Denysenko, Dmytro'
'Bon, Volodymyr'
'Senkovska, Irena'
'Kaskel, Stefan'
'Volkmer, Dirk'
_publ_section_title
;
 CFA-4 - a fluorinated metal-organic framework with exchangeable
 interchannel cations
;
_journal_name_full               'Dalton Trans.'
_journal_paper_doi               10.1039/C7DT00582B
_journal_year                    2017
_chemical_formula_moiety
'C48 H12 Cu5 F36 N12 1-,Cu 1+, 4.75(C3 H7 N O)'
_chemical_formula_sum            'C62.25 H45.25 Cu6 F36 N16.75 O4.75'
_chemical_formula_weight         2169.14
_space_group_crystal_system      hexagonal
_space_group_IT_number           182
_space_group_name_Hall           'P 6c 2c'
_space_group_name_H-M_alt        'P 63 2 2'
_symmetry_space_group_name_Hall  'P 6c 2c'
_symmetry_space_group_name_H-M   'P 63 2 2'
_atom_sites_solution_hydrogens   geom
_audit_creation_method           SHELXL-2016/6
_audit_update_record
;
2017-04-24 deposited with the CCDC.
2017-05-02 downloaded from the CCDC.
;
_cell_angle_alpha                90.000(5)
_cell_angle_beta                 90.000(5)
_cell_angle_gamma                120.000(5)
_cell_formula_units_Z            6
_cell_length_a                   23.630(5)
_cell_length_b                   23.630(5)
_cell_length_c                   41.390(5)
_cell_measurement_reflns_used    473
_cell_measurement_temperature    293(2)
_cell_measurement_theta_max      25.34
_cell_measurement_theta_min      3.76
_cell_volume                     20015(7)
_computing_cell_refinement       'XDS (Kabsch, 2010)'
_computing_data_collection       'marCCD 1994-2002'
_computing_data_reduction        'XDS (Kabsch, 2010)'
_computing_molecular_graphics    'Diamond 4.1'
_computing_publication_material  Word
_computing_structure_refinement  'SHELXL-2016/6 (Sheldrick, 2016)'
_computing_structure_solution    'SHELXL-2016/6 (Sheldrick, 2016)'
_diffrn_ambient_temperature      293(2)
_diffrn_measured_fraction_theta_full 0.984
_diffrn_measured_fraction_theta_max 0.961
_diffrn_measurement_device_type  'MX-225 CCD'
_diffrn_measurement_method       \f
_diffrn_radiation_type           synchrotron
_diffrn_radiation_wavelength     0.88561
_diffrn_reflns_av_R_equivalents  0.0833
_diffrn_reflns_av_unetI/netI     0.0626
_diffrn_reflns_Laue_measured_fraction_full 0.984
_diffrn_reflns_Laue_measured_fraction_max 0.961
_diffrn_reflns_limit_h_max       30
_diffrn_reflns_limit_h_min       -15
_diffrn_reflns_limit_k_max       23
_diffrn_reflns_limit_k_min       -30
_diffrn_reflns_limit_l_max       53
_diffrn_reflns_limit_l_min       -50
_diffrn_reflns_number            81573
_diffrn_reflns_point_group_measured_fraction_full 0.987
_diffrn_reflns_point_group_measured_fraction_max 0.965
_diffrn_reflns_theta_full        32.098
_diffrn_reflns_theta_max         36.162
_diffrn_reflns_theta_min         2.234
_diffrn_source                   'PX 14.2 beamline BESSY II'
_exptl_absorpt_coefficient_mu    1.856
_exptl_crystal_colour            Yellow
_exptl_crystal_density_diffrn    1.080
_exptl_crystal_density_method    'not measured'
_exptl_crystal_description       'hexagonal prisms'
_exptl_crystal_F_000             6432
_exptl_crystal_size_max          0.03
_exptl_crystal_size_mid          0.03
_exptl_crystal_size_min          0.02
_refine_diff_density_max         0.549
_refine_diff_density_min         -0.515
_refine_diff_density_rms         0.040
_refine_ls_abs_structure_details
;
 Refined as an inversion twin.
;
_refine_ls_abs_structure_Flack   0.490(13)
_refine_ls_extinction_method     none
_refine_ls_goodness_of_fit_ref   0.983
_refine_ls_hydrogen_treatment    constr
_refine_ls_matrix_type           full
_refine_ls_number_parameters     528
_refine_ls_number_reflns         15739
_refine_ls_number_restraints     42
_refine_ls_restrained_S_all      0.983
_refine_ls_R_factor_all          0.1011
_refine_ls_R_factor_gt           0.0506
_refine_ls_shift/su_max          0.001
_refine_ls_shift/su_mean         0.000
_refine_ls_structure_factor_coef Fsqd
_refine_ls_weighting_details
'w=1/[\s^2^(Fo^2^)+(0.1000P)^2^] where P=(Fo^2^+2Fc^2^)/3'
_refine_ls_weighting_scheme      calc
_refine_ls_wR_factor_gt          0.1387
_refine_ls_wR_factor_ref         0.1656
_reflns_Friedel_coverage         0.785
_reflns_Friedel_fraction_full    0.991
_reflns_Friedel_fraction_max     0.970
_reflns_number_gt                9132
_reflns_number_total             15739
_reflns_threshold_expression     'I > 2\s(I)'
_cod_data_source_file            c7dt00582b2.cif
_cod_data_source_block           CFA-4
_cod_original_cell_volume        20015(9)
_cod_database_code               7042854
_shelx_shelxl_version_number     2016/6
_shelx_space_group_comment
;
The symmetry employed for this shelxl refinement is uniquely defined
by the following loop, which should always be used as a source of
symmetry information in preference to the above space-group names.
They are only intended as comments.
;
_shelx_res_file
;
TITL
    au-191e_a_sq.res
    created by SHELXL-2016/6 at 15:36:23 on 03-Feb-2017
CELL  0.88561  23.6300  23.6300  41.3900   90.000   90.000  120.000
ZERR 6 0.005 0.005 0.005 0.005 0.005 0.005
LATT -1
SYMM -Y, X-Y, Z
SYMM -X+Y, -X, Z
SYMM -X, -Y, 1/2+Z
SYMM Y, -X+Y, 1/2+Z
SYMM X-Y, X, 1/2+Z
SYMM Y, X, -Z
SYMM X-Y, -Y, -Z
SYMM -X, -X+Y, -Z
SYMM -Y, -X, 1/2-Z
SYMM -X+Y, Y, 1/2-Z
SYMM X, X-Y, 1/2-Z
SFAC C  Cu F  N  H O
DISP  C     0.0056    0.0027     18.6
DISP  Cu    0.1643    1.8638   9418.8
DISP  F     0.0276    0.0166     93.8
DISP  N     0.0104    0.0054     33.8
DISP  H     0.000     0.000       0.7
DISP  O     0.018     0.010      57.9
UNIT 373.5 36 216 100.5 271.5 28.5
TWIN -1 0 0 0 -1 0 0 0 -1 2
LIST 6 ! automatically inserted. Change 6 to 4 for CHECKCIF!!
OMIT 0 1 0
OMIT 0 1 1
OMIT 0 1 2
OMIT -2 3 1
OMIT -1 3 1
OMIT -2 5 3
OMIT -1 3 2
OMIT -1 2 3
OMIT 0 2 4
OMIT -2 3 2
L.S. 10 0  393
SIMU F1A F1B
SIMU F2A F2B
SIMU F6A F6B
SIMU F7A F7B
SIMU F8A F8B
SIMU F10A F10B
SIMU F18A F18B
DELU F1A F1B
DELU F2A F2B
DELU F6A F6B
DELU F7A F7B
DELU F8A F8B
DELU F10A F10B
DELU F18A F18B
ACTA
BOND
FMAP 2
PLAN 20
ABIN
WGHT    0.100000
BASF   0.48987
FVAR       0.27441   0.55985   0.42985   0.40613   0.70851   0.85834   0.60000
FVAR       0.47128   0.88998
CU1   2    0.722739    0.445479    0.750000    10.50000    0.06600    0.05829 =
         0.09548    0.00000   -0.02978    0.02914
CU2   2    0.666667    0.333333    0.697711    10.33333    0.05327    0.05327 =
         0.11085    0.00000    0.00000    0.02664
CU3   2    0.333333    0.666667    0.631509    10.33333    0.05239    0.05239 =
         0.15551    0.00000    0.00000    0.02620
CU4   2    0.289772    0.556945    0.578701    11.00000    0.05763    0.05516 =
         0.12475   -0.00063   -0.03075    0.02763
CU5   2    0.333333    0.666667    0.525544    10.33333    0.05172    0.05172 =
         0.12907    0.00000    0.00000    0.02586
PART 1
F1A   3    0.598333    0.346378    0.640260    21.00000    0.16529    0.18011 =
         0.19823   -0.12620   -0.08175    0.12436
PART 2
F1B   3    0.587692    0.325307    0.640158   -21.00000    0.14951    0.09673 =
         0.14287   -0.06390   -0.08259    0.07448
PART 0
F3    3    0.502142    0.309564    0.663356    11.00000    0.12222    0.16970 =
         0.19561   -0.07349   -0.03827    0.02062
PART 1
F2A   3    0.564725    0.399228    0.626748    31.00000    0.25624    0.31289 =
         0.07508   -0.04900   -0.06844    0.17418
PART 2
F2B   3    0.534045    0.380991    0.632726   -31.00000    0.17767    0.18221 =
         0.13471   -0.08559   -0.11171    0.13322
PART 0
F4    3    0.603785    0.548178    0.745014    11.00000    0.23872    0.20213 =
         0.15863   -0.05880   -0.03711    0.17230
PART 1
F6A   3    0.690960    0.541377    0.760016    41.00000    0.27090    0.18783 =
         0.10960   -0.11140   -0.13174    0.18554
PART 2
F6B   3    0.671277    0.536067    0.768689   -41.00000    0.18854    0.13325 =
         0.08731   -0.02197   -0.02047    0.09895
PART 0
F5A   3    0.694349    0.595559    0.724232    11.00000    0.26748    0.07887 =
         0.15720   -0.02271   -0.00734    0.05711
PART 1
F7A   3    0.502256    0.702347    0.667076    51.00000    0.14186    0.18471 =
         0.26283   -0.14878   -0.02998    0.00430
PART 2
F7B   3    0.497180    0.656896    0.685365   -51.00000    0.18295    0.20575 =
         0.24420   -0.14810   -0.18704    0.15130
PART 1
F8A   3    0.411089    0.672462    0.688786    61.00000    0.15817    0.22634 =
         0.18975   -0.12062   -0.06428    0.13791
PART 2
F8B   3    0.455927    0.712648    0.669162   -61.00000    0.16697    0.19694 =
         0.15554   -0.14096   -0.12084    0.15454
F9    3    0.452839    0.617234    0.702249    11.00000    0.37859    0.26772 =
         0.16693   -0.08834   -0.10259    0.20260
PART 1
F10A  3    0.360049    0.481160    0.562553    81.00000    0.17342    0.36618 =
         0.08653   -0.02323   -0.01030    0.18705
PART 2
F10B  3    0.336268    0.470588    0.564855   -81.00000    0.19856    0.12986 =
         0.13246   -0.07098   -0.11288    0.12524
PART 0
F11   3    0.424027    0.470899    0.584656    11.00000    0.19254    0.18602 =
         0.14786   -0.04969   -0.04188    0.14921
F12   3    0.329050    0.417160    0.604327    11.00000    0.23599    0.08288 =
         0.17507   -0.03180   -0.03980    0.05382
F14   3    0.160459    0.460587    0.596840    11.00000    0.15373    0.12181 =
         0.13465    0.04423   -0.04026    0.01490
F13   3    0.122084    0.395260    0.555894    11.00000    0.24725    0.08308 =
         0.18779    0.03195   -0.00136    0.04022
F15   3    0.070670    0.435213    0.578708    11.00000    0.08636    0.15195 =
         0.20063    0.06914    0.01423    0.00660
F16   3    0.148861    0.591779    0.459130    11.00000    0.13136    0.19296 =
         0.13578    0.04353   -0.04989    0.05558
F17   3    0.180098    0.669357    0.491118    11.00000    0.29553    0.18125 =
         0.17402    0.05558    0.00278    0.17523
PART 1
F18A  3    0.249322    0.652560    0.468248    91.00000    0.08607    0.18978 =
         0.14393    0.09439    0.01697    0.05547
PART 2
F18B  3    0.250280    0.584660    0.483757   -91.00000    0.17428    0.13565 =
         0.12628   -0.02052    0.05528    0.07577
PART 0
N1    4    0.661569    0.445646    0.720786    11.00000    0.07600    0.06653 =
         0.08708   -0.00781   -0.02586    0.04401
N2    4    0.637347    0.398244    0.698204    11.00000    0.06963    0.07169 =
         0.11182   -0.02146   -0.03447    0.04560
N3    4    0.374075    0.611242    0.629871    11.00000    0.07640    0.07001 =
         0.14126   -0.02003   -0.03699    0.04548
N4    4    0.352985    0.562696    0.607359    11.00000    0.06778    0.06315 =
         0.12175   -0.02050   -0.04075    0.03822
N5    4    0.225394    0.548591    0.548950    11.00000    0.06339    0.05542 =
         0.09992    0.00175   -0.03366    0.02362
N6    4    0.242796    0.596002    0.525541    11.00000    0.04949    0.07300 =
         0.10852    0.02679   -0.01010    0.02480
C1    1    0.635733    0.482847    0.716221    11.00000    0.08262    0.07484 =
         0.08525   -0.01329   -0.02440    0.05090
C2    1    0.591434    0.460564    0.690755    11.00000    0.10670    0.10758 =
         0.09144   -0.01490   -0.02032    0.08292
C3    1    0.594198    0.405748    0.680470    11.00000    0.08605    0.08915 =
         0.10041   -0.01825   -0.03180    0.06107
C4    1    0.559345    0.360451    0.653193    11.00000    0.10617    0.13646 =
         0.11923   -0.05159   -0.06069    0.07804
C5B   1    0.655982    0.542466    0.737493    11.00000    0.16111    0.07419 =
         0.11640   -0.02073   -0.04635    0.07362

C6    1    0.549728    0.485967    0.677862    11.00000    0.10793    0.11094 =
         0.07602   -0.01309   -0.02886    0.07903
C7    1    0.479481    0.444696    0.675628    11.00000    0.10504    0.14540 =
         0.10737    0.02028   -0.01115    0.08488
AFIX  43
H7    5    0.459700    0.401830    0.683031    11.00000   -1.20000
AFIX   0
C8    1    0.442775    0.467618    0.663024    11.00000    0.08846    0.14267 =
         0.11149    0.02136   -0.00840    0.07610
AFIX  43
H8    5    0.397846    0.439971    0.661396    11.00000   -1.20000
AFIX   0
C9    1    0.470160    0.531878    0.652273    11.00000    0.07979    0.09298 =
         0.09950   -0.00887   -0.02040    0.05384
C10   1    0.532997    0.571505    0.654923    11.00000    0.09861    0.07841 =
         0.15389    0.00989   -0.05047    0.04030
AFIX  43
H10   5    0.550231    0.614845    0.648656    11.00000   -1.20000
AFIX   0
C11   1    0.576197    0.550839    0.667066    11.00000    0.08597    0.12656 =
         0.13890    0.00427   -0.02219    0.06571
AFIX  43
H11   5    0.621008    0.579655    0.667842    11.00000   -1.20000
AFIX   0
C12   1    0.424420    0.552945    0.638485    11.00000    0.07737    0.08523 =
         0.10139   -0.00324   -0.02343    0.05174
C13   1    0.383427    0.529008    0.612326    11.00000    0.08370    0.07999 =
         0.07903   -0.00945   -0.02877    0.05562
C14   1    0.417078    0.606208    0.648859    11.00000    0.07396    0.08629 =
         0.11968   -0.03225   -0.04143    0.05198
C15   1    0.448116    0.651783    0.675338    11.00000    0.14083    0.15885 =
         0.16047   -0.06659   -0.06464    0.10885
C16   1    0.368503    0.475394    0.591805    11.00000    0.13323    0.07443 =
         0.15028   -0.00037   -0.05527    0.06667
C17   1    0.160787    0.505063    0.546001    11.00000    0.05956    0.06345 =
         0.09641    0.00412   -0.01330    0.01698
C18   1    0.133966    0.523812    0.520932    11.00000    0.05899    0.08420 =
         0.08080    0.00282   -0.02837    0.01937
C19   1    0.187349    0.579270    0.509513    11.00000    0.05901    0.07968 =
         0.10992    0.01547   -0.01775    0.03460
C20   1    0.192077    0.622456    0.481242    11.00000    0.07627    0.11986 =
         0.13180    0.03967   -0.01365    0.04082
C21   1    0.129591    0.451002    0.569524    11.00000    0.10612    0.08068 =
         0.10318    0.01075   -0.03252    0.00831
C22   1    0.064190    0.487462    0.509865    11.00000    0.07126    0.12582 =
         0.09079   -0.00596   -0.02808    0.04621
C23   1    0.030271    0.421644    0.505007    11.00000    0.06572    0.10679 =
         0.13493   -0.00987   -0.02528    0.02967
AFIX  43
H23   5    0.050838    0.397515    0.508937    11.00000   -1.20000
AFIX   0
C24   1    0.032068    0.524559    0.505460    11.00000    0.08361    0.13729 =
         0.09755   -0.00147   -0.02157    0.03838
AFIX  43
H24   5    0.053633    0.569137    0.509809    11.00000   -1.20000
AFIX   0
HKLF 4




REM
REM R1 =  0.0506 for    9132 Fo > 4sig(Fo)  and  0.1011 for all   15739 data
REM    528 parameters refined using     42 restraints

END

WGHT      0.0987      0.0000

REM Highest difference peak  0.549,  deepest hole -0.515,  1-sigma level  0.040
Q1    1   0.3022  0.5590  0.5982  11.00000  0.05    0.55
Q2    1   0.3333  0.6667  0.5434  10.33333  0.05    0.49
Q3    1   0.3333  0.6667  0.6458  10.33333  0.05    0.31
Q4    1   0.3550  0.5604  0.5626  11.00000  0.05    0.30
Q5    1   0.3333  0.6667  0.5872  10.33333  0.05    0.29
Q6    1   0.3019  0.5476  0.5689  11.00000  0.05    0.26
Q7    1   0.4552  0.6771  0.6195  11.00000  0.05    0.24
Q8    1   0.2957  0.5601  0.5395  11.00000  0.05    0.23
Q9    1   0.7309  0.5659  0.7417  11.00000  0.05    0.22
Q10   1   0.6667  0.3333  0.7500  10.16667  0.05    0.21
Q11   1   0.1274  0.5685  0.5291  11.00000  0.05    0.21
Q12   1   0.1294  0.4006  0.6090  11.00000  0.05    0.20
Q13   1   0.1688  0.4527  0.5803  11.00000  0.05    0.20
Q14   1   0.2811  0.4324  0.5805  11.00000  0.05    0.19
Q15   1   0.1658  0.4282  0.5715  11.00000  0.05    0.18
Q16   1   0.2351  0.6244  0.5416  11.00000  0.05    0.17
Q17   1   0.7738  0.4532  0.7135  11.00000  0.05    0.17
Q18   1   0.3807  0.5410  0.5524  11.00000  0.05    0.17
Q19   1   0.4085  0.6477  0.6378  11.00000  0.05    0.17
Q20   1   0.6943  0.4535  0.7318  11.00000  0.05    0.16
;
_shelx_res_checksum              40460
_shelx_fab_file
;
    0    0    4    -27.01      0.44
    0    0    8     10.06      0.44
    0    0   10     12.77     -3.59
    0    0   14     -7.63     -0.29
    0    0   16      1.50     -0.62
    0    0   20     -3.93      0.13
    0    0   22      5.62     -0.23
    0    0   26     -3.62     -3.47
    0    0   28      7.12      0.48
    0    0   30     -3.27     -0.68
    0    0   32      0.03      1.08
    0    0   34      0.88     -0.67
    0    0   36     -0.35      1.10
    0    0   38     -6.58      0.04
    0    0   40     -0.13      2.45
    0    0   42     -0.11     -1.56
    0    0   44      1.69      0.85
    0    0   46      5.45      0.91
    0    0   48     -1.49      7.12
    0    1    4     -3.12     -0.12
    0    1    5      5.48     -0.61
    0    1    6     76.87     -3.00
    0    1    7      3.48      0.51
    0    1    8    -10.77     -0.33
    0    1   10      0.62     -1.33
    0    1   11      8.53     -0.85
    0    1   12    -18.19     -0.28
    0    1   13      8.13     -2.56
    0    1   14      2.85      1.11
    0    1   15      8.40      0.37
    0    1   16      4.72      0.09
    0    1   17     -1.30      0.37
    0    1   18     11.29     -0.23
    0    1   19     -6.91     -0.30
    0    1   20     -0.18     -0.54
    0    1   21      1.41     -0.33
    0    1   22     -2.14     -0.86
    0    1   23     -0.80      1.59
    0    1   24     -2.21      0.18
    0    1   25      0.30      0.83
    0    1   26     -3.82     -0.15
    0    1   27      0.09      0.16
    0    1   28     -0.94     -0.13
    0    1   29     -1.30     -0.64
    0    1   30      2.19     -0.29
    0    1   31      3.25      0.37
    0    1   32      0.24      1.33
    0    1   33      0.11      0.32
    0    1   34     -1.83     -0.31
    0    1   35      2.18     -0.24
    0    1   36      0.32     -0.28
    0    1   37     -0.60     -0.99
    0    1   38      0.74      0.01
    0    1   39     -0.81      0.37
    0    1   40      1.49     -1.70
    0    1   41      1.43      0.47
    0    1   42      0.03      0.58
    0    1   43     -2.51     -0.21
    0    1   44     -1.24     -0.51
    0    1   45     -1.70     -1.29
    0    1   46     -1.41      0.31
    0    1   47      4.19      0.66
    0    1   48     -1.65     -0.33
    0    1   49      5.28      1.01
   -1    2    1     -1.42    -26.81
   -1    2    2      9.99      1.04
   -1    2    4      2.82     -0.77
   -1    2    5      0.01   -134.74
   -1    2    6    -10.22      0.48
   -1    2    7      0.26     54.57
   -1    2    8      4.41      0.09
   -1    2    9      0.12     -5.14
   -1    2   10      3.60      0.13
   -1    2   11      0.99     17.41
   -1    2   13     -0.46     14.04
   -1    2   14      0.36     -0.76
   -1    2   15     -0.62     -2.72
   -1    2   16     -3.49      0.50
   -1    2   17      0.04    -10.50
   -1    2   20      1.51      0.44
   -1    2   21     -0.11     -1.41
   -1    2   22      1.15     -0.83
   -1    2   23     -0.36      6.31
   -1    2   24      0.50      0.18
   -1    2   25      0.72      4.85
   -1    2   26     -3.07      0.27
   -1    2   27      0.51      1.65
   -1    2   28      2.95     -0.35
   -1    2   29      0.87      1.02
   -1    2   30      2.48      0.03
   -1    2   31     -0.70      1.02
   -1    2   32      1.09      0.92
   -1    2   33      0.22      3.90
   -1    2   34     -1.49      0.34
   -1    2   35     -0.17     -0.45
   -1    2   36      0.89     -0.06
   -1    2   37     -0.18     -3.19
   -1    2   38     -0.59      0.13
   -1    2   39     -0.39      2.59
   -1    2   40     -0.23     -1.47
   -1    2   41     -0.19     -0.45
   -1    2   42      2.15      0.31
   -1    2   43      0.45     -3.38
   -1    2   44      1.30      0.25
   -1    2   45      2.93     -4.22
   -1    2   46      3.91      0.19
   -1    2   47     -3.66     -1.67
   -1    2   48      1.13     -1.70
   -1    2   49     -0.13     -2.55
    0    2    1     -0.91     -0.27
    0    2    2      0.91      1.28
    0    2    5     18.26      0.38
    0    2    7     20.24      0.66
    0    2    8      7.05     -0.96
    0    2    9    -62.17      0.16
    0    2   10     -2.88      0.04
    0    2   11      0.81     -0.94
    0    2   13      0.71     -0.15
    0    2   14    -10.08      1.33
    0    2   15    -12.42      0.22
    0    2   16     -5.80      0.52
    0    2   17      0.11     -0.02
    0    2   18      0.60     -0.96
    0    2   19     -4.54     -0.48
    0    2   20      1.56     -0.45
    0    2   21     -2.35     -0.13
    0    2   22     -1.36      0.74
    0    2   23     -1.85      0.23
    0    2   24      5.43      0.18
    0    2   25      2.01      0.17
    0    2   26      0.29     -0.38
    0    2   27      0.56      0.54
    0    2   28      1.00      0.32
    0    2   29     -0.60     -0.48
    0    2   30     -2.34      1.53
    0    2   31      1.26     -0.07
    0    2   32     -0.65      1.99
    0    2   33     -1.51      0.50
    0    2   34     -1.79      0.24
    0    2   35     -0.79      0.38
    0    2   36      0.28     -0.20
    0    2   37     -0.62      0.23
    0    2   38     -1.72      0.77
    0    2   39     -1.17      0.01
    0    2   40     -0.25     -0.76
    0    2   41      4.26      0.28
    0    2   42      3.28     -2.27
    0    2   43      0.74     -0.03
    0    2   44      2.06      0.15
    0    2   45      0.81     -4.28
    0    2   46      3.11      0.36
    0    2   47      9.50     -0.69
    0    2   48     -0.76     -0.43
    0    2   49     -2.90      0.29
   -1    3    3    -46.77    -43.77
   -1    3    4    -24.75     16.70
   -1    3    5      1.51     45.74
   -1    3    7      4.94     19.68
   -1    3    9     14.43     -2.01
   -1    3   10     -2.00      3.79
   -1    3   11     -9.13    -13.79
   -1    3   12      9.48    -11.25
   -1    3   13     -1.69      7.34
   -1    3   14      2.10     27.21
   -1    3   15    -15.51     -6.38
   -1    3   16      5.78     -2.73
   -1    3   17      0.49      2.52
   -1    3   18     -0.11      3.12
   -1    3   19      0.03     -0.69
   -1    3   20     -2.84    -11.53
   -1    3   21      4.39     -1.21
   -1    3   22      1.56      2.26
   -1    3   23      3.01     -3.48
   -1    3   24      3.39      0.33
   -1    3   25     -0.43     -0.74
   -1    3   26      3.15      0.98
   -1    3   27     -3.58     -3.39
   -1    3   28      0.00      5.10
   -1    3   29     -1.73      3.30
   -1    3   30     -1.95      2.52
   -1    3   31      0.19      0.70
   -1    3   32     -0.86     -0.39
   -1    3   33      0.07      3.83
   -1    3   34     -0.10      6.53
   -1    3   35     -2.37      2.45
   -1    3   36     -0.81      1.02
   -1    3   37      0.25      3.53
   -1    3   38     -1.60      0.10
   -1    3   39      2.69     -0.78
   -1    3   40     -0.28     -0.68
   -1    3   41      1.17      1.27
   -1    3   42      1.41      1.82
   -1    3   43      0.44     -6.10
   -1    3   44      2.70      1.69
   -1    3   45     -1.13     -1.78
   -1    3   46     -0.41      3.72
   -1    3   47      1.58     -1.71
   -1    3   48      3.55     -3.40
   -1    3   49     -5.52     -0.25
    0    3    1    -20.62     -0.58
    0    3    2     -3.38      0.56
    0    3    3     42.56     11.35
    0    3    4     -0.04      0.05
    0    3    5    -33.57     -1.14
    0    3    6      8.81     -0.34
    0    3    7     10.96     -0.02
    0    3    8    -17.98      0.01
    0    3   10     -3.60     -0.38
    0    3   11      4.00      0.07
    0    3   12    -18.62     -0.54
    0    3   13     -3.07      0.30
    0    3   14     -0.61      0.88
    0    3   15     10.91      0.37
    0    3   16     -1.73     -0.12
    0    3   17      1.11     -0.35
    0    3   20      3.06      0.58
    0    3   21     -4.94     -0.52
    0    3   22     -0.08      0.27
    0    3   23      1.79     -0.60
    0    3   24     -5.50      0.07
    0    3   25     -2.73     -0.25
    0    3   26     -1.45     -0.03
    0    3   27      0.30     -0.09
    0    3   28     -2.05     -0.14
    0    3   29     -2.03     -0.26
    0    3   30      1.74      0.77
    0    3   31     -1.83      1.20
    0    3   32      1.48      0.62
    0    3   33      0.80      0.91
    0    3   34     -3.82      1.52
    0    3   35     -1.18      1.01
    0    3   36      1.53     -1.29
    0    3   37      0.72      0.70
    0    3   38     -1.78     -0.26
    0    3   39      0.89      0.51
    0    3   40      0.30     -0.23
    0    3   41     -2.27      2.54
    0    3   42     -6.65     -1.19
    0    3   43      2.36     -0.37
    0    3   44     -5.44     -0.45
    0    3   45      3.23     -0.80
    0    3   46     -3.22     -0.38
    0    3   47      4.13     -4.29
    0    3   48      4.01     -0.10
    0    3   49     -7.15     -0.53
   -2    4    0    -45.08     -1.53
   -2    4    1     11.78     54.80
   -2    4    2     -7.81     -0.48
   -2    4    3      0.07     37.24
   -2    4    4     -1.35     -0.07
   -2    4    8      2.01      0.46
   -2    4    9      0.14     20.56
   -2    4   10     -1.15     -0.35
   -2    4   11     -0.75     35.22
   -2    4   12    -20.72     -0.22
   -2    4   13      0.99     -7.50
   -2    4   14      0.60     -0.49
   -2    4   15      0.47     12.97
   -2    4   16      3.54     -0.42
   -2    4   17      0.67    -14.60
   -2    4   18     -5.18     -0.43
   -2    4   19      0.62     -0.19
   -2    4   20     -0.72      0.10
   -2    4   21     -0.16     -2.59
   -2    4   22     -3.04      0.37
   -2    4   23      0.23      7.16
   -2    4   24      0.80      0.05
   -2    4   25      0.26      3.01
   -2    4   26     -0.21     -0.52
   -2    4   27      0.25      1.97
   -2    4   28     -3.87     -0.50
   -2    4   29      0.04     -3.78
   -2    4   30     -1.62      0.35
   -2    4   31      0.52      1.31
   -2    4   32      0.34     -0.14
   -2    4   33     -0.36     -2.97
   -2    4   34     -2.97     -0.34
   -2    4   35     -0.10     -0.55
   -2    4   36      1.93      0.41
   -2    4   37      1.64      1.67
   -2    4   38      2.92      0.99
   -2    4   39      0.89     -1.22
   -2    4   40     -1.40     -0.02
   -2    4   41     -0.65     -0.65
   -2    4   42      0.75      0.45
   -2    4   43     -0.49      2.95
   -2    4   44     -3.93      0.47
   -2    4   45     -0.70     -1.56
   -2    4   46      1.66      0.09
   -2    4   47     -0.70      2.11
   -2    4   48      3.71      0.20
   -2    4   49     -0.14     -5.50
   -2    4   50      0.79     -1.07
   -1    4    1     10.81    -15.80
   -1    4    2    -20.17    -73.29
   -1    4    3    -46.73    -14.77
   -1    4    4      7.55     22.22
   -1    4    5     -6.20     72.90
   -1    4    7     -6.94    -23.99
   -1    4   10      1.07     14.81
   -1    4   11     -5.98      8.34
   -1    4   13      3.56     -2.54
   -1    4   14      0.67     -7.54
   -1    4   15      2.05     -2.84
   -1    4   16     -0.48      0.08
   -1    4   17     -1.78      0.94
   -1    4   18     -2.74      3.69
   -1    4   19      1.66      0.02
   -1    4   20      3.41      0.47
   -1    4   21     -0.45      6.08
   -1    4   22     -0.58      1.95
   -1    4   23      0.92      4.49
   -1    4   24      0.08      3.04
   -1    4   25     -0.52     -1.72
   -1    4   26      0.52     -0.05
   -1    4   27      0.51      0.48
   -1    4   28     -2.49      3.42
   -1    4   29      1.96      0.26
   -1    4   30      0.37     -3.33
   -1    4   31     -1.62      1.24
   -1    4   32      1.16      0.03
   -1    4   33      0.90     -0.56
   -1    4   34     -2.36      2.88
   -1    4   35      0.36      1.35
   -1    4   36      0.14      1.55
   -1    4   37      0.43      4.74
   -1    4   38     -2.42      0.27
   -1    4   39     -0.60     -2.93
   -1    4   40      1.26      6.05
   -1    4   41      2.18     -2.02
   -1    4   42     -0.37     -1.32
   -1    4   43      0.55      0.61
   -1    4   44     -5.01      1.41
   -1    4   45     -1.78     -0.99
   -1    4   46     -1.14     -1.46
   -1    4   47      5.43      0.34
   -1    4   48      0.58     -2.80
   -1    4   49     -1.82      1.48
   -1    4   50     -0.95     -1.48
    0    4    1     -6.70     -7.46
    0    4    2     23.30      0.10
    0    4    4     -6.90      1.03
    0    4    5     -2.07      1.25
    0    4    6     12.82      0.36
    0    4    7     -6.66     -0.79
    0    4    8     -2.03      0.33
    0    4    9     -8.37      1.03
    0    4   10     12.01     -0.33
    0    4   11     -1.72      0.51
    0    4   13      3.80      0.15
    0    4   14     -1.32      2.75
    0    4   15     15.78      0.27
    0    4   16      0.36     -0.14
    0    4   17      6.63      0.50
    0    4   18     10.79      0.24
    0    4   19     -3.01     -0.78
    0    4   21     -2.46      0.40
    0    4   22      2.06      0.67
    0    4   23     -6.37      0.19
    0    4   24     -2.15      0.19
    0    4   25      1.08     -0.20
    0    4   26      0.95     -0.60
    0    4   27     -0.17     -0.06
    0    4   28      1.51      0.51
    0    4   29     -1.52     -0.45
    0    4   30     -0.57      0.16
    0    4   31      0.26      0.56
    0    4   32     -0.33     -0.69
    0    4   33     -0.28      0.18
    0    4   34     -1.91     -0.66
    0    4   35      5.77      0.10
    0    4   36      3.64     -0.09
    0    4   37      0.18      0.24
    0    4   38     -1.56      0.10
    0    4   39     -1.88      0.42
    0    4   40     -0.25      0.37
    0    4   41      3.04      0.79
    0    4   42     -0.59      1.13
    0    4   43      4.62     -1.28
    0    4   44     -1.61      0.31
    0    4   45     -5.54      0.80
    0    4   46      1.47     -1.04
    0    4   47      6.60     -1.89
    0    4   48      0.89      0.54
    0    4   49      0.59      0.24
   -2    5    0    -88.95      0.22
   -2    5    1     20.44    -10.84
   -2    5    3    -39.92     55.68
   -2    5    4     30.58     23.45
   -2    5    7      9.71      3.51
   -2    5   10      2.39      6.62
   -2    5   11     -4.30     -1.33
   -2    5   13      7.68     -2.27
   -2    5   14     -1.41     -1.33
   -2    5   15     -3.31      8.31
   -2    5   16     -5.28     -5.02
   -2    5   17     -5.27      0.08
   -2    5   18     -4.44      7.79
   -2    5   19      1.42     -5.84
   -2    5   20      1.78      5.85
   -2    5   21     -1.69     -5.80
   -2    5   22     -0.11      1.97
   -2    5   23      0.46      6.32
   -2    5   24      1.11     -0.86
   -2    5   25     -0.90      6.11
   -2    5   26     -1.18     -0.77
   -2    5   27      0.72      0.18
   -2    5   28     -5.92      1.10
   -2    5   29      2.64     -5.01
   -2    5   30      1.19      1.40
   -2    5   31      0.92     -2.65
   -2    5   32     -2.23     -1.05
   -2    5   33     -1.70      3.23
   -2    5   34     -0.28     -1.80
   -2    5   35      1.30      1.02
   -2    5   36     -0.62      1.14
   -2    5   37      0.94      7.00
   -2    5   38     -3.01     -1.41
   -2    5   39     -0.98      1.97
   -2    5   40      0.30      2.79
   -2    5   41      3.29      2.29
   -2    5   42      1.90     -2.05
   -2    5   43     -2.75      1.05
   -2    5   44     -0.33      0.75
   -2    5   45     -1.51     -1.27
   -2    5   46      0.65      1.76
   -2    5   47      0.35     -2.55
   -2    5   48     -0.30      3.16
   -2    5   49      1.10      2.60
   -2    5   50      2.75      3.25
   -1    5    0      4.08      0.63
   -1    5    1      5.45    -33.27
   -1    5    2      1.29    -67.85
   -1    5    4      6.44     19.24
   -1    5    5    -10.04      2.72
   -1    5    7      7.77      7.30
   -1    5    8     -0.04      1.26
   -1    5    9     10.20      0.21
   -1    5   10      9.37     -4.75
   -1    5   11     -8.36      9.02
   -1    5   12     12.62     10.83
   -1    5   13     -1.21      1.21
   -1    5   14      1.75     -4.89
   -1    5   15     -3.59      0.57
   -1    5   16     -5.44     -7.82
   -1    5   17      0.86     -0.32
   -1    5   18     -2.29      2.11
   -1    5   19      2.11      2.15
   -1    5   20     -0.05     -1.54
   -1    5   21     -1.36      4.72
   -1    5   22      0.50      0.84
   -1    5   23     -3.60     -1.71
   -1    5   24     -0.29      3.36
   -1    5   25      1.75     -0.96
   -1    5   26      3.81      7.54
   -1    5   27      0.53      1.66
   -1    5   28     -0.08     -2.82
   -1    5   29      1.75      1.49
   -1    5   30     -1.12      2.42
   -1    5   31     -0.34      1.04
   -1    5   32      0.28      0.15
   -1    5   33     -0.49      1.43
   -1    5   34      0.09      0.93
   -1    5   35      3.15      1.07
   -1    5   36      0.44      2.65
   -1    5   37     -0.69     10.00
   -1    5   38     -4.60     -1.71
   -1    5   39     -0.65     -0.36
   -1    5   40      0.37      1.34
   -1    5   41      5.84     -0.50
   -1    5   42      3.65     -0.62
   -1    5   43      0.08     -0.88
   -1    5   44      0.31     -4.00
   -1    5   45     -1.75     -1.17
   -1    5   46      1.27     -2.40
   -1    5   47      0.13      1.16
   -1    5   48     -1.07     -0.08
   -1    5   49      0.01      5.41
   -1    5   50      3.57     -0.59
    0    5    1      1.20     -0.17
    0    5    2     26.03     -0.62
    0    5    3     78.20     -2.43
    0    5    4     14.34     -1.37
    0    5    5     -3.73     -1.06
    0    5    7      6.00     -1.51
    0    5    8     -9.02      0.20
    0    5   10     -7.66      0.45
    0    5   11     -3.74      0.15
    0    5   12    -35.10      0.25
    0    5   13     -8.15     -0.77
    0    5   14     -4.54      0.50
    0    5   15     -3.30      1.28
    0    5   16      8.58     -0.53
    0    5   17     -0.70      0.56
    0    5   18      3.04      0.45
    0    5   19      3.09     -0.18
    0    5   20      0.47      0.04
    0    5   21      1.68      0.13
    0    5   22      1.07     -0.37
    0    5   23     -1.69      0.63
    0    5   24      2.32      0.16
    0    5   25      1.41      0.23
    0    5   27      0.60     -0.03
    0    5   29     -3.01     -0.55
    0    5   30     -1.68     -0.17
    0    5   31      1.23      1.23
    0    5   32     -3.25     -0.54
    0    5   33     -2.29      0.34
    0    5   34      0.27      0.27
    0    5   35      2.85     -0.86
    0    5   36      1.46      0.34
    0    5   37      0.80     -0.09
    0    5   38      2.58     -1.06
    0    5   39      0.37      1.35
    0    5   40     -3.25      1.94
    0    5   41      0.82      1.24
    0    5   42      1.45      5.94
    0    5   43      1.75     -1.76
    0    5   44      3.94      4.40
    0    5   45     -4.63     -0.19
    0    5   46      3.70     -2.32
    0    5   47      1.96     -0.15
    0    5   48     -2.01      0.59
    0    5   49     -0.65      0.65
    0    5   50     10.25     -1.18
   -3    6    1     -0.24    -36.74
   -3    6    2     14.71     -1.22
   -3    6    3     12.83     35.94
   -3    6    4     19.79     -0.14
   -3    6    7      0.19     21.04
   -3    6    8     -7.17      0.55
   -3    6    9      0.64     -0.33
   -3    6   10    -11.10      0.16
   -3    6   11      2.20    -39.93
   -3    6   13      0.07      7.66
   -3    6   14      1.41      0.09
   -3    6   15     -0.28      3.51
   -3    6   16      0.53      0.13
   -3    6   17      0.07     10.89
   -3    6   18      0.41     -0.27
   -3    6   19      0.37     -0.44
   -3    6   20     -2.65     -0.07
   -3    6   21     -0.07     -7.85
   -3    6   22     -5.24      0.13
   -3    6   23     -1.95     -0.37
   -3    6   24     -1.78      0.04
   -3    6   25      0.01      6.43
   -3    6   26     -0.29     -0.03
   -3    6   27      0.16     -0.56
   -3    6   28     -3.27      0.44
   -3    6   29      0.06     -1.98
   -3    6   30     -1.99     -0.28
   -3    6   31     -0.22     -3.42
   -3    6   32     -2.32      0.47
   -3    6   33      0.40      3.46
   -3    6   34     -0.64      0.24
   -3    6   35      0.88      2.11
   -3    6   36     -1.92      0.68
   -3    6   37      0.16      3.01
   -3    6   38      1.02     -0.27
   -3    6   39     -0.76     -0.75
   -3    6   40     -0.24      1.07
   -3    6   41      0.30      1.46
   -3    6   42     -6.57     -0.10
   -3    6   43      2.56      4.15
   -3    6   44      4.45     -0.32
   -3    6   45     -0.47      2.19
   -3    6   46      2.80      0.65
   -3    6   47      1.79      2.64
   -3    6   48      1.16      0.31
   -3    6   49     -0.88      1.59
   -3    6   50      6.37      2.50
   -3    6   51     -0.15     -0.49
   -3    6   52      7.92      1.31
   -2    6    0     74.53      0.05
   -2    6    1     22.07    -24.93
   -2    6    2    -21.71     54.65
   -2    6    4      1.10     16.20
   -2    6    5    -10.82    -13.55
   -2    6    6    -23.92    -18.17
   -2    6    7     14.17     13.46
   -2    6   10      3.92      2.11
   -2    6   11     -2.07     -5.23
   -2    6   12      1.97      2.88
   -2    6   13      1.94      4.00
   -2    6   14      3.22      8.35
   -2    6   15      1.08     -3.20
   -2    6   16     -2.08     -3.31
   -2    6   17     -4.87     -5.98
   -2    6   18      1.13     -0.89
   -2    6   19     -3.38     -1.47
   -2    6   20     -3.65     -2.15
   -2    6   21     -3.97     -0.17
   -2    6   22     -4.22      2.24
   -2    6   23      0.52      2.21
   -2    6   24     -2.89     -6.28
   -2    6   25      2.08      0.59
   -2    6   26      5.11      2.07
   -2    6   27      3.31      0.43
   -2    6   28      1.69      4.85
   -2    6   29      0.69     -2.66
   -2    6   30     -5.14      0.94
   -2    6   31     -2.51      1.57
   -2    6   32     -1.23     -2.47
   -2    6   33      1.37      0.15
   -2    6   34      1.06     -1.78
   -2    6   35     -0.64      0.51
   -2    6   36     -1.19     -4.47
   -2    6   37     -1.18     -0.81
   -2    6   38      1.24     -0.96
   -2    6   39     -1.01      1.25
   -2    6   40      0.21      2.08
   -2    6   41     -2.69     -1.36
   -2    6   42      0.73     -4.05
   -2    6   43     -2.81      4.80
   -2    6   44     -4.37     -0.54
   -2    6   45      2.52     -0.42
   -2    6   46      1.57      3.68
   -2    6   47     -6.63     -0.62
   -2    6   48      0.80      3.01
   -2    6   49      0.48      0.07
   -2    6   50     -1.04      4.89
   -2    6   51     -4.86      4.46
   -2    6   52      2.79      2.99
   -1    6    0      6.82     -0.43
   -1    6    1      4.52     30.93
   -1    6    2    -13.91    -17.04
   -1    6    3     -1.62      2.57
   -1    6    4     10.23    -18.50
   -1    6    5     -2.15     -5.08
   -1    6    7    -20.05     -1.07
   -1    6    8     -9.22    -12.01
   -1    6    9    -13.82      0.69
   -1    6   10      1.35     -5.67
   -1    6   11      6.70      3.91
   -1    6   13      0.57      2.40
   -1    6   14      1.99     -1.02
   -1    6   15      3.36      0.61
   -1    6   16      3.56     -4.00
   -1    6   17      2.70      3.24
   -1    6   18     -1.53      0.54
   -1    6   19      0.59      3.73
   -1    6   20     -1.72     -3.36
   -1    6   21      4.40      5.08
   -1    6   22     -0.81     -3.24
   -1    6   23     -0.54     -2.13
   -1    6   24     -0.09      4.61
   -1    6   25      2.12      0.52
   -1    6   26      1.12      1.19
   -1    6   27     -0.48     -0.10
   -1    6   28     -0.71      1.02
   -1    6   29      0.38     -0.25
   -1    6   30     -2.09     -1.40
   -1    6   31     -0.52      1.34
   -1    6   32      1.16     -0.38
   -1    6   33      3.04     -3.50
   -1    6   34      0.53     -3.90
   -1    6   35      0.12      0.63
   -1    6   36     -0.28     -0.61
   -1    6   37     -1.86     -3.61
   -1    6   38     -2.04     -0.99
   -1    6   39      1.56      0.10
   -1    6   40     -2.39      5.18
   -1    6   41     -4.39      0.75
   -1    6   42      1.40     -1.69
   -1    6   43     -0.22     -3.76
   -1    6   44      1.89     -1.67
   -1    6   45      1.76      1.54
   -1    6   46      3.51     -6.75
   -1    6   47     -0.95      2.78
   -1    6   48      1.03     -0.89
   -1    6   49      0.48     -6.11
   -1    6   50     -0.71     -1.29
   -1    6   51     -1.93      1.92
   -1    6   52     -0.18     11.14
    0    6    0    -16.40     -0.05
    0    6    1     -3.42      1.14
    0    6    2      5.42     -0.20
    0    6    3    -43.62      2.06
    0    6    4      3.42     -0.59
    0    6    5     17.20     -1.25
    0    6    7     -0.43     -0.32
    0    6    8     -2.77     -0.26
    0    6   10      5.95      0.29
    0    6   11      8.56     -1.19
    0    6   13      2.86     -0.45
    0    6   14     -0.81     -0.06
    0    6   15      1.09     -0.75
    0    6   16     -1.21     -0.52
    0    6   17     -5.05      0.32
    0    6   18      6.91     -0.60
    0    6   19      0.71      0.37
    0    6   20     -3.38      0.01
    0    6   21     -3.28      0.49
    0    6   22      2.70     -0.33
    0    6   23      4.02      0.09
    0    6   24     -6.17      0.01
    0    6   25      1.35     -0.08
    0    6   26     -1.48     -0.27
    0    6   27      2.06      0.23
    0    6   28     -0.73     -0.08
    0    6   29     -1.99     -0.11
    0    6   30      1.25     -0.01
    0    6   31     -1.19      0.48
    0    6   32     -3.76      0.15
    0    6   33      2.06      0.13
    0    6   34     -0.27     -0.36
    0    6   35     -1.96      0.09
    0    6   36     -1.01      0.58
    0    6   37     -2.88     -0.96
    0    6   38      2.42      0.64
    0    6   39      0.16      0.06
    0    6   40      0.29      0.36
    0    6   41     -1.12      0.00
    0    6   42     -0.61     -0.24
    0    6   43      3.02     -2.01
    0    6   44      2.90      3.54
    0    6   45      2.26      0.02
    0    6   46      1.61     -0.41
    0    6   47      6.71     -1.00
    0    6   48     -3.81      0.37
    0    6   49     -0.70     -0.61
    0    6   50      5.67     -1.75
    0    6   51      4.45      0.66
    0    6   52     -7.12      0.04
   -3    7    0     -0.57      0.06
   -3    7    1     13.11     -2.23
   -3    7    2    -12.29     25.82
   -3    7    3    -13.77     -8.49
   -3    7    4     -2.56      4.83
   -3    7    5     12.25     16.40
   -3    7    6     35.02     -3.10
   -3    7    7     18.19    -11.61
   -3    7    8     -5.36     23.05
   -3    7   10    -16.12      7.17
   -3    7   11    -10.10     -3.30
   -3    7   12      5.51     -6.39
   -3    7   13     -4.93      0.89
   -3    7   14     -2.81     -5.97
   -3    7   15     -3.97     -3.71
   -3    7   16     -8.92      4.83
   -3    7   17     -4.62      2.27
   -3    7   18     -5.51     -4.77
   -3    7   19     -1.21      2.03
   -3    7   20     -1.37     -1.03
   -3    7   21     -1.38      0.46
   -3    7   22      1.48      0.46
   -3    7   23      1.96      2.48
   -3    7   24     -3.02     -5.05
   -3    7   25      1.91      1.19
   -3    7   26     -0.20     -0.49
   -3    7   27     -0.14      5.21
   -3    7   28     -4.85      5.49
   -3    7   29     -3.47      0.84
   -3    7   30     -2.57     -1.26
   -3    7   31     -1.78     -4.05
   -3    7   32      1.80     -1.31
   -3    7   33      0.05     -1.90
   -3    7   34     -0.86      0.13
   -3    7   35     -1.29     -0.78
   -3    7   36     -3.38     -2.32
   -3    7   37     -0.53      1.81
   -3    7   38     10.63      2.57
   -3    7   39     -0.87     -1.99
   -3    7   40      5.83      1.80
   -3    7   41     -3.42      0.20
   -3    7   42     -4.26     -1.58
   -3    7   43     -0.33      0.29
   -3    7   44      3.60     -1.02
   -3    7   45     -1.72      3.21
   -3    7   46      1.66     -0.81
   -3    7   47     -4.32      3.21
   -3    7   48      1.30      2.59
   -3    7   49     -0.21     -5.04
   -3    7   50     -3.77      5.57
   -3    7   51     -5.36     -6.32
   -3    7   52      7.49      4.15
   -3    7   53     -0.77      4.77
   -2    7    0      7.57      0.17
   -2    7    1      6.17      2.39
   -2    7    2    -11.04      2.95
   -2    7    3     28.15     -8.22
   -2    7    4    -16.13    -20.52
   -2    7    5      3.09     20.63
   -2    7    7    -15.66     -5.35
   -2    7    8     -6.54      2.33
   -2    7   10     -0.53     15.53
   -2    7   11      5.29      4.41
   -2    7   12     -5.50     -7.39
   -2    7   13      4.24     -0.78
   -2    7   14      3.43     -0.99
   -2    7   15      1.78     -4.52
   -2    7   16      5.03      3.07
   -2    7   17      1.20     -2.63
   -2    7   18      5.03      0.81
   -2    7   19     -2.58     -6.07
   -2    7   20      0.78     -5.90
   -2    7   21      4.44      5.95
   -2    7   22      3.98      1.48
   -2    7   23     -2.21      0.83
   -2    7   24     -4.79     -4.14
   -2    7   25     -0.69      1.32
   -2    7   26      3.45     -3.01
   -2    7   27      1.44     -0.21
   -2    7   28      0.71      3.37
   -2    7   29     -1.32     -0.71
   -2    7   30     -0.34     -4.98
   -2    7   31      1.90      0.48
   -2    7   32      1.89     -2.33
   -2    7   33     -1.31     -3.72
   -2    7   34      0.13     -2.03
   -2    7   35     -4.12     -0.05
   -2    7   36      0.49     -3.24
   -2    7   37     -0.53     -3.93
   -2    7   38      1.40     -1.03
   -2    7   39     -0.86      0.04
   -2    7   40     -1.40      0.53
   -2    7   41     -1.71     -1.36
   -2    7   42     -0.38      3.50
   -2    7   43     -4.43     -5.24
   -2    7   44      1.42      0.56
   -2    7   45      0.01      0.76
   -2    7   46      2.59      1.07
   -2    7   47     -3.44     -4.78
   -2    7   48      2.42      0.41
   -2    7   49      1.24      4.21
   -2    7   50     -6.70      1.57
   -2    7   51     -5.32      0.20
   -2    7   52      2.24      9.62
   -2    7   53      0.00      1.55
   -1    7    1     -9.21      7.43
   -1    7    2      1.45     -2.27
   -1    7    3    -32.11      5.94
   -1    7    4      6.83      3.26
   -1    7    5      2.36     14.14
   -1    7    6     -6.31      8.27
   -1    7    7     -8.41      6.49
   -1    7    8      8.00    -14.57
   -1    7   10      2.42      6.46
   -1    7   11      1.61    -14.46
   -1    7   12      3.39     -3.15
   -1    7   13      5.73     -4.37
   -1    7   14      3.54     -9.26
   -1    7   15      6.20      6.52
   -1    7   16     -0.54     -5.43
   -1    7   17      0.97      6.92
   -1    7   18     -4.86      2.86
   -1    7   19      3.19      0.09
   -1    7   20      0.04      0.08
   -1    7   21     -4.74     -2.49
   -1    7   22      3.04      1.38
   -1    7   23      0.06      2.29
   -1    7   24      2.27      2.38
   -1    7   25     -1.55     -1.36
   -1    7   26     -0.21      0.85
   -1    7   27      1.02      2.76
   -1    7   28      3.68      0.87
   -1    7   29     -0.06     -0.86
   -1    7   30     -1.04     -1.09
   -1    7   31      0.23      0.25
   -1    7   32      2.00      1.92
   -1    7   33     -0.86     -2.26
   -1    7   34     -1.01      0.84
   -1    7   35     -0.36      1.12
   -1    7   36     -0.77     -1.51
   -1    7   37      0.46     -6.32
   -1    7   38     -1.47      1.66
   -1    7   39     -0.03     -2.52
   -1    7   40     -1.33     -7.70
   -1    7   41      0.49      1.34
   -1    7   42      0.51     -2.94
   -1    7   43     -1.02     -7.13
   -1    7   44      5.15     -1.56
   -1    7   45      1.66      0.19
   -1    7   46     -0.63      5.59
   -1    7   47      5.62     -0.48
   -1    7   48     -0.29     -4.55
   -1    7   49     -0.37     -7.91
   -1    7   50     -4.57      5.34
   -1    7   51      1.45     -1.99
   -1    7   52      0.54      4.77
   -1    7   53      1.37     -1.25
    0    7    1     -9.32      0.19
    0    7    2      1.05      1.42
    0    7    3    -11.55     -0.96
    0    7    4    -14.95      0.83
    0    7    5      5.13     -1.62
    0    7    7      0.66      0.53
    0    7    8      5.01     -0.14
    0    7    9      5.12      0.92
    0    7   10     13.88      0.68
    0    7   11      1.47     -0.29
    0    7   12     -5.94     -0.49
    0    7   13      4.37     -1.39
    0    7   14      4.98     -0.33
    0    7   15      1.92      0.03
    0    7   16     -6.11     -0.23
    0    7   17      0.63      0.66
    0    7   18     -0.92      0.83
    0    7   19      0.05     -0.54
    0    7   20      0.36      0.23
    0    7   21      5.32      0.36
    0    7   22     -1.47     -0.30
    0    7   23     -1.30     -0.01
    0    7   24     -2.13     -0.61
    0    7   25     -3.92     -0.02
    0    7   26      1.39      0.11
    0    7   27      1.98      0.59
    0    7   28      3.06     -0.87
    0    7   29      2.60      0.10
    0    7   30      0.41     -0.54
    0    7   31     -1.70     -0.79
    0    7   32     -1.41     -0.01
    0    7   33     -0.07      0.60
    0    7   34     -0.82     -0.11
    0    7   35      0.69      0.11
    0    7   36     -2.33      0.22
    0    7   37      4.69     -0.29
    0    7   38      5.56     -1.01
    0    7   39      1.38      0.65
    0    7   40      1.62     -0.39
    0    7   41      6.27     -0.13
    0    7   42     -0.55      1.37
    0    7   43      1.60      0.77
    0    7   44      2.38      0.58
    0    7   45      1.71      0.49
    0    7   46     -3.36     -1.81
    0    7   47     -5.35     -0.44
    0    7   48     -5.70     -0.13
    0    7   49      4.87      1.28
    0    7   50     -5.32     -0.95
    0    7   51      1.20     -0.09
    0    7   52     -5.55      0.10
    0    7   53     -0.33     -0.31
   -4    8    1      1.46     10.81
   -4    8    2      7.52      7.22
   -4    8    3     -2.33     -0.96
   -4    8    4      3.21      0.46
   -4    8    5     -0.72     -3.33
   -4    8    6     -1.71      0.01
   -4    8    7     -0.24     -2.38
   -4    8    8      0.09     -2.03
   -4    8    9     -1.34     -2.47
   -4    8   10     -4.81     -0.03
   -4    8   11      0.21      1.37
   -4    8   12     18.04     -0.59
   -4    8   13     -0.79      1.49
   -4    8   14      0.97      0.34
   -4    8   15      0.70     -3.56
   -4    8   16     -1.67     -0.26
   -4    8   17      0.31      2.81
   -4    8   18     -4.59      0.32
   -4    8   19     -0.04     -8.26
   -4    8   20     -1.75      0.35
   -4    8   21      0.13     -2.25
   -4    8   22      1.94      0.65
   -4    8   23      0.04     -1.53
   -4    8   24      0.26     -0.50
   -4    8   25      0.31     -0.05
   -4    8   26     -0.74      0.31
   -4    8   27      0.36      7.10
   -4    8   28     -4.13     -0.02
   -4    8   29      0.86     -3.33
   -4    8   30      0.38      0.34
   -4    8   31     -0.09     -3.37
   -4    8   32     -0.69     -0.34
   -4    8   33     -0.11      0.02
   -4    8   34      0.10     -0.32
   -4    8   35      0.10      3.63
   -4    8   36     -0.50      0.05
   -4    8   37      0.05      3.22
   -4    8   38      8.93     -0.59
   -4    8   39     -2.13     -0.02
   -4    8   40      1.34      0.75
   -4    8   41     -0.76     -2.99
   -4    8   42     -1.10     -1.51
   -4    8   43     -0.62      0.64
   -4    8   44     -2.37      2.21
   -4    8   45      0.34      1.31
   -4    8   46      6.77      0.03
   -4    8   47      0.00      3.49
   -4    8   48      2.21     -0.47
   -4    8   49     -1.36     -6.94
   -4    8   50      2.42      0.94
   -4    8   51     -0.09     -2.90
   -4    8   52      2.39      0.44
   -4    8   53     -0.02      1.17
   -3    8    1     -8.30     -2.90
   -3    8    2      3.39    -13.56
   -3    8    3      7.67      0.03
   -3    8    4    -18.81      4.36
   -3    8    5      9.21     -2.91
   -3    8    6      4.29      6.50
   -3    8    7      9.62      3.51
   -3    8    8      6.68      7.31
   -3    8   10      1.70      4.74
   -3    8   11     -0.40      5.28
   -3    8   12     11.41      5.48
   -3    8   13     -2.73     -6.54
   -3    8   14      0.40      0.69
   -3    8   15     -3.64      5.84
   -3    8   16      3.23     -0.33
   -3    8   17     -0.50      0.04
   -3    8   18      3.78      2.33
   -3    8   19     -3.81     -5.90
   -3    8   20     -2.42      0.32
   -3    8   21     -1.09     -2.22
   -3    8   22      1.91      1.69
   -3    8   23      1.22     -4.81
   -3    8   24     -1.56     -1.87
   -3    8   25      2.25      0.48
   -3    8   26      2.21     -0.76
   -3    8   27      0.12      0.88
   -3    8   28     -1.66      1.69
   -3    8   29     -4.75     -3.28
   -3    8   30     -0.70     -2.15
   -3    8   31     -2.01     -3.01
   -3    8   32     -0.75     -0.73
   -3    8   33     -0.40      0.33
   -3    8   34     -1.91     -1.77
   -3    8   35     -1.36      1.29
   -3    8   36     -0.05      4.52
   -3    8   37     -1.93      3.30
   -3    8   38      2.34     -1.19
   -3    8   39     -1.57      3.03
   -3    8   40     -3.11      1.60
   -3    8   41     -2.34      0.27
   -3    8   42      0.62      1.91
   -3    8   43      6.20      2.14
   -3    8   44      4.83      2.50
   -3    8   45     -1.16     -3.49
   -3    8   46      3.44      0.22
   -3    8   47     -2.21     -2.42
   -3    8   48      0.43      0.35
   -3    8   49     -6.71      1.94
   -3    8   50      2.32      1.80
   -3    8   51     -2.91     -0.83
   -3    8   52     -2.15      5.51
   -3    8   53     -1.27     -0.78
   -2    8    0     -1.28      0.02
   -2    8    1      0.70     -0.47
   -2    8    2     12.59    -12.01
   -2    8    3    -11.29      1.28
   -2    8    4     -5.61     16.81
   -2    8    5     -0.33      3.62
   -2    8    7     -1.51     -7.97
   -2    8    8      3.49    -14.66
   -2    8    9      9.08     -2.10
   -2    8   10     -7.49      3.67
   -2    8   11     -0.88      1.93
   -2    8   12      0.87      9.27
   -2    8   13      0.58      1.73
   -2    8   14     -2.28      4.55
   -2    8   15     -3.87     11.28
   -2    8   16      6.39     -1.79
   -2    8   17     -0.89      2.63
   -2    8   18     -4.22     -6.25
   -2    8   19     -3.76      0.07
   -2    8   20     -0.77     -0.40
   -2    8   21      0.27     -1.94
   -2    8   22     -1.27      1.23
   -2    8   23     -1.59      5.25
   -2    8   24      1.79      1.93
   -2    8   25      2.69      0.40
   -2    8   26      2.46     -1.16
   -2    8   27     -3.99      1.88
   -2    8   28     -0.71      0.28
   -2    8   29     -0.78     -1.63
   -2    8   30      0.43     -1.93
   -2    8   31     -0.78      1.13
   -2    8   32     -0.89      1.44
   -2    8   33     -0.27     -1.78
   -2    8   34     -0.12      0.26
   -2    8   35     -6.08      2.79
   -2    8   36      1.79      1.31
   -2    8   37      0.55     -4.43
   -2    8   38     -6.00     -2.04
   -2    8   39      1.40      0.29
   -2    8   40     -4.60     -6.57
   -2    8   41     -3.69     -0.62
   -2    8   42     -1.10      3.35
   -2    8   43     -2.05      2.82
   -2    8   44      3.75      5.73
   -2    8   45     -0.57     -4.15
   -2    8   46     -1.16      2.66
   -2    8   47     -0.49      1.74
   -2    8   48     -1.26     -0.75
   -2    8   49     -2.64     -2.16
   -2    8   50      1.16     -3.89
   -2    8   51      3.77      0.41
   -2    8   52      1.62      0.02
   -2    8   53      1.38     -6.08
   -1    8    0     17.35      0.26
   -1    8    1    -14.59     -8.67
   -1    8    2      2.26     -8.18
   -1    8    3      7.61     -8.05
   -1    8    4      2.91     14.96
   -1    8    5    -14.95    -12.26
   -1    8    6     -3.68     -7.40
   -1    8    7     11.19     -1.39
   -1    8    8      1.16     10.13
   -1    8    9      2.43      5.44
   -1    8   10      2.56      4.14
   -1    8   11     -6.24      6.91
   -1    8   12      1.90     -1.29
   -1    8   13      0.67     -2.79
   -1    8   14     -3.80     -5.90
   -1    8   15      4.55      0.68
   -1    8   16     -4.98     -4.36
   -1    8   17      1.42     -2.09
   -1    8   18     -2.94    -16.35
   -1    8   19     -0.81     -0.57
   -1    8   20     -1.19     -0.22
   -1    8   21     -1.86     -1.89
   -1    8   22     -0.03      2.52
   -1    8   23     -0.40      3.01
   -1    8   24     -2.02      0.70
   -1    8   25     -0.04      2.14
   -1    8   26     -0.04      2.26
   -1    8   27     -0.33     -0.82
   -1    8   28      3.84     -2.37
   -1    8   29     -1.70     -0.40
   -1    8   30      1.11      1.48
   -1    8   31     -1.33     -1.68
   -1    8   32     -3.85      1.97
   -1    8   33     -1.13      2.28
   -1    8   34      2.08      1.11
   -1    8   35      1.89     -1.06
   -1    8   36     -1.07      1.47
   -1    8   37      2.33     -3.38
   -1    8   38     -2.14     -0.56
   -1    8   39      0.02      1.06
   -1    8   40     -2.47     -2.47
   -1    8   41     -2.23      0.40
   -1    8   42     -4.50     -4.23
   -1    8   43     -0.19     -3.60
   -1    8   44     -2.66      0.71
   -1    8   45     -1.30     -4.22
   -1    8   46      1.56     -4.71
   -1    8   47     -5.11     -1.82
   -1    8   48     -0.70      1.35
   -1    8   49     -1.30     -3.72
   -1    8   50     -5.40     -4.70
   -1    8   51      4.44     -0.37
   -1    8   52     -0.40     -2.30
   -1    8   53     -3.29     -2.76
    0    8    1     -5.75      1.13
    0    8    2    -10.75      1.49
    0    8    3      3.70     -3.71
    0    8    4      1.86      0.33
    0    8    5      4.98     -0.79
    0    8    6      5.65      0.74
    0    8    7     -4.68      0.50
    0    8    8     -1.09     -0.70
    0    8   10      3.93     -0.73
    0    8   11      1.44      0.00
    0    8   12     -9.69      0.32
    0    8   13      0.46     -0.04
    0    8   15     -9.68     -0.45
    0    8   16      0.90     -0.59
    0    8   17      3.61      0.05
    0    8   18     -2.85      0.09
    0    8   19      0.40      0.14
    0    8   20      1.33      0.26
    0    8   21      2.09      0.10
    0    8   22     -1.38      0.12
    0    8   23     -0.75      0.33
    0    8   24     -0.78     -0.33
    0    8   25     -2.40      0.18
    0    8   26      2.21     -0.20
    0    8   27      0.83      0.59
    0    8   28      0.38     -0.19
    0    8   29     -1.05     -0.48
    0    8   30      0.26     -0.93
    0    8   31     -1.32     -0.05
    0    8   32     -3.41     -0.42
    0    8   33     -1.27      0.08
    0    8   34      2.11     -0.48
    0    8   35      5.14     -0.09
    0    8   36     -0.15      0.13
    0    8   37     -1.06      0.40
    0    8   38      2.04     -1.36
    0    8   39     -2.11     -0.81
    0    8   40      0.61      0.38
    0    8   41     -3.13     -1.10
    0    8   42     -3.26      1.46
    0    8   43      7.90      4.15
    0    8   44      1.74      0.07
    0    8   45     -2.96      0.06
    0    8   46      1.44     -2.39
    0    8   47     -4.86      1.43
    0    8   48      1.92      0.25
    0    8   49     -3.08      0.68
    0    8   50     -5.69     -2.12
    0    8   51     -0.68     -1.03
    0    8   52     -0.38     -0.10
   -4    9    0     13.36     -0.19
   -4    9    1     -4.38     -3.22
   -4    9    2     -5.73     -4.50
   -4    9    4     10.75      3.81
   -4    9    5     -2.33     -0.96
   -4    9    6      7.54      1.59
   -4    9    7     -4.94     -0.63
   -4    9    8      4.35      4.74
   -4    9    9    -15.61    -15.22
   -4    9   10      2.66      4.46
   -4    9   11      0.22     -5.77
   -4    9   12     -0.72      6.57
   -4    9   13      3.25      2.18
   -4    9   14      2.40      0.08
   -4    9   15      3.09     -1.92
   -4    9   16      5.30      2.04
   -4    9   17     -0.52     -4.07
   -4    9   18      1.77      0.41
   -4    9   19      0.16     -2.69
   -4    9   20     -5.59      2.58
   -4    9   21     -0.29      1.85
   -4    9   22      3.39     -1.98
   -4    9   23      1.33     -3.13
   -4    9   24      5.01     -5.11
   -4    9   25     -0.31      1.20
   -4    9   26     -2.65      2.49
   -4    9   27     -1.02     -1.10
   -4    9   28     -0.97     -2.07
   -4    9   29     -1.40     -0.77
   -4    9   30      0.74     -3.64
   -4    9   31     -2.41      1.65
   -4    9   32     -4.02     -0.93
   -4    9   33     -0.12      2.14
   -4    9   34      2.36      2.16
   -4    9   35      3.90     -2.15
   -4    9   36     -0.96     -1.65
   -4    9   37     -0.97      1.97
   -4    9   38     -6.20      1.47
   -4    9   39     -0.43     -1.12
   -4    9   40      3.02      2.29
   -4    9   41      4.38     -0.46
   -4    9   42      1.62     -3.61
   -4    9   43      4.30     -4.80
   -4    9   44     -7.18      3.41
   -4    9   45     -1.01      3.07
   -4    9   46      5.26      3.62
   -4    9   47     -4.15     -4.44
   -4    9   48     -0.85     -3.35
   -4    9   49     -3.12      5.47
   -4    9   50      5.41      4.06
   -4    9   51      2.84      5.63
   -4    9   52      2.27      4.08
   -3    9    1      6.45      1.34
   -3    9    2      1.58      1.52
   -3    9    3      2.51      0.74
   -3    9    4     -2.91      2.01
   -3    9    5      3.98     -7.09
   -3    9    6     13.48      8.11
   -3    9    7     -9.18     -1.24
   -3    9    8     -2.64     -5.29
   -3    9    9      2.65      4.97
   -3    9   10      3.43      5.13
   -3    9   11      7.37     -6.49
   -3    9   12     -7.04     15.07
   -3    9   13      0.14     -1.70
   -3    9   14      1.02      1.81
   -3    9   15     -7.57      3.83
   -3    9   16      2.54     -0.12
   -3    9   17     -0.06      4.56
   -3    9   18     -0.01      3.59
   -3    9   19     -2.66     -0.19
   -3    9   20      1.20      5.71
   -3    9   21      1.67     -2.50
   -3    9   22     -1.11     -2.90
   -3    9   23      1.34     -1.19
   -3    9   24      1.85     -0.35
   -3    9   25      1.07     -2.58
   -3    9   26     -0.55     -3.02
   -3    9   27      0.17     -2.93
   -3    9   28     -4.09      1.13
   -3    9   29      0.74     -0.60
   -3    9   30      2.64     -5.71
   -3    9   31     -0.21     -0.36
   -3    9   32      1.33      0.51
   -3    9   33      1.51     -4.05
   -3    9   34     -0.95      1.71
   -3    9   35     -1.31     -1.35
   -3    9   36     -0.12      0.09
   -3    9   37      0.88     -4.88
   -3    9   38     -5.24     -1.53
   -3    9   39      1.44      1.05
   -3    9   40     -0.02      1.25
   -3    9   41     -3.44      4.48
   -3    9   42      2.58      2.95
   -3    9   43      2.93     -0.32
   -3    9   44     -0.43      1.78
   -3    9   45      1.74      0.44
   -3    9   46      0.57      4.04
   -3    9   47     -0.77     -0.66
   -3    9   48     -3.24     -4.96
   -3    9   49     -1.06     -5.24
   -3    9   50      7.17      0.52
   -3    9   51      5.97      2.26
   -3    9   52     -5.39      4.25
   -2    9    0     -3.79     -0.02
   -2    9    1      9.58     -3.12
   -2    9    2     -3.27     -1.37
   -2    9    3      1.16      0.68
   -2    9    4      8.43     10.64
   -2    9    5     -2.85      2.10
   -2    9    6     -6.85      9.76
   -2    9    7      3.46     -5.99
   -2    9    8     -3.31     -1.90
   -2    9    9     -6.88     -1.63
   -2    9   10      0.59     -4.69
   -2    9   11      1.72      1.16
   -2    9   12      2.24      5.32
   -2    9   13     -1.37      9.55
   -2    9   14      1.17     -5.17
   -2    9   15     -1.16     -4.93
   -2    9   16     -5.64      4.89
   -2    9   17      0.04     -3.35
   -2    9   18      1.65     -3.81
   -2    9   19     -0.47      2.90
   -2    9   20      2.93     -2.92
   -2    9   21     -2.35      2.43
   -2    9   22     -0.33     -0.74
   -2    9   23     -1.10      4.43
   -2    9   24      0.19     -3.44
   -2    9   25      2.34     -1.46
   -2    9   26     -2.56      1.62
   -2    9   27      0.47     -3.58
   -2    9   28      0.68     -2.54
   -2    9   29      0.78      1.71
   -2    9   30      1.00     -0.39
   -2    9   31     -2.10      0.15
   -2    9   32      2.41     -3.27
   -2    9   33      0.71     -2.04
   -2    9   34     -0.21     -0.16
   -2    9   35     -4.21     -2.14
   -2    9   36      0.12      0.19
   -2    9   37      0.57     -1.51
   -2    9   38     -5.59      1.82
   -2    9   39      0.29      0.27
   -2    9   40     -1.14     -2.84
   -2    9   41     -6.34     -0.38
   -2    9   42      0.76      1.24
   -2    9   43     -2.80     -5.11
   -2    9   44     -4.69     -1.74
   -2    9   45      2.26      0.63
   -2    9   46     -2.11      1.84
   -2    9   47     -6.12      3.24
   -2    9   48     -5.79      0.28
   -2    9   49     -2.55      1.13
   -2    9   50     -0.02     -5.34
   -2    9   51      5.05      2.67
   -2    9   52     -0.54     -2.33
   -1    9    0     10.11      0.23
   -1    9    1      3.06      2.82
   -1    9    2      7.85     -3.68
   -1    9    3      8.32     -1.25
   -1    9    4      1.20    -12.81
   -1    9    5      4.26    -14.65
   -1    9    6     -2.30     -2.61
   -1    9    7     -0.58      4.91
   -1    9    8     -1.03      2.90
   -1    9    9    -13.73     -4.98
   -1    9   10      3.74     -0.22
   -1    9   11     -1.47      7.31
   -1    9   12      3.72     -9.12
   -1    9   13      4.16      5.88
   -1    9   14      0.98      7.01
   -1    9   15      5.37     -4.97
   -1    9   16      0.15      3.24
   -1    9   17     -1.26      3.88
   -1    9   18      0.80     -5.64
   -1    9   19      2.17      2.21
   -1    9   20      1.07      1.01
   -1    9   21     -1.17     -2.78
   -1    9   22      2.49     -2.11
   -1    9   23      0.52     -1.05
   -1    9   24     -0.65     -0.56
   -1    9   25     -2.41      1.71
   -1    9   26     -0.77     -3.06
   -1    9   27     -2.31     -0.84
   -1    9   28      1.16     -0.37
   -1    9   29     -2.28      1.28
   -1    9   30     -0.13      2.50
   -1    9   31     -0.76     -2.99
   -1    9   32     -0.26     -5.39
   -1    9   33      0.71      1.19
   -1    9   34     -0.41      1.76
   -1    9   35      1.71     -1.82
   -1    9   36     -0.20      2.07
   -1    9   37     -1.91     -3.88
   -1    9   38     -2.73      0.13
   -1    9   39      0.01      1.67
   -1    9   40     -0.78     -2.31
   -1    9   41     -1.63     -2.26
   -1    9   42     -0.94      1.37
   -1    9   43      0.46      0.68
   -1    9   44      2.18     -2.65
   -1    9   45     -2.95     -0.70
   -1    9   46     -4.59      2.35
   -1    9   47     -3.28      3.32
   -1    9   48      1.63      2.21
   -1    9   49     -2.78      1.38
   -1    9   50      2.33     -0.72
   -1    9   51      5.24      4.81
   -1    9   52      0.68     -4.27
    0    9    0    -11.47      0.32
    0    9    1      2.82      1.33
    0    9    2      7.01      1.51
    0    9    3    -16.10      1.51
    0    9    4      4.88      0.95
    0    9    5      7.74     -1.09
    0    9    6      3.23      0.34
    0    9    7     -2.08     -0.10
    0    9    8     -3.75      0.41
    0    9    9      4.20      1.19
    0    9   10      2.58     -0.32
    0    9   11     -2.07     -0.22
    0    9   12      8.75      0.41
    0    9   13      1.76     -0.12
    0    9   14      0.99      0.27
    0    9   15      2.76      0.23
    0    9   16     -0.98     -0.06
    0    9   17     -0.35     -0.30
    0    9   18     -4.02      0.33
    0    9   19     -0.78     -0.27
    0    9   20      4.41     -0.23
    0    9   21     -1.02     -0.82
    0    9   22      0.61     -0.15
    0    9   23      0.32      0.29
    0    9   24     -0.31      0.27
    0    9   25     -3.99      0.18
    0    9   26     -0.59      1.04
    0    9   27     -5.01     -0.68
    0    9   28     -1.10     -0.03
    0    9   29     -1.72      0.01
    0    9   30     -0.06      0.25
    0    9   31      0.25      0.43
    0    9   32      0.43     -0.12
    0    9   33      0.50      0.56
    0    9   34      0.08      0.46
    0    9   35     -4.23     -2.95
    0    9   36      1.16      0.32
    0    9   37     -1.19     -0.96
    0    9   38      1.19     -0.08
    0    9   39      3.20     -0.65
    0    9   40     -0.56      0.46
    0    9   41     -0.85     -0.70
    0    9   42      3.61     -0.21
    0    9   43      0.15      1.47
    0    9   44     -0.27      0.39
    0    9   45     -1.41     -0.32
    0    9   46      0.03      0.57
    0    9   47      2.42      3.14
    0    9   48      4.50      0.73
    0    9   49     -2.15     -0.62
    0    9   50     12.04     -3.42
    0    9   51      2.74      0.15
    0    9   52      3.40      0.05
   -5   10    1      0.54     -0.87
   -5   10    2     -3.44     -2.68
   -5   10    3      0.27     -1.87
   -5   10    4     -2.02      0.35
   -5   10    5      0.84     15.14
   -5   10    6     -1.35      1.17
   -5   10    7     -0.02     -5.25
   -5   10    8      0.78      0.36
   -5   10    9      0.79    -16.96
   -5   10   10     -1.44     -0.46
   -5   10   11     -0.57      2.31
   -5   10   12      9.27     -0.21
   -5   10   13     -0.18      5.39
   -5   10   14     -3.41      0.00
   -5   10   15     -0.26     -4.83
   -5   10   16     -5.08      0.23
   -5   10   17     -0.08      2.96
   -5   10   18      1.69     -1.40
   -5   10   19      0.57     -2.16
   -5   10   20     -0.35      0.15
   -5   10   21     -0.19      4.89
   -5   10   22     -0.98     -0.06
   -5   10   23      0.03      2.36
   -5   10   24      0.26     -0.85
   -5   10   25     -0.57      1.23
   -5   10   26     -5.38     -0.14
   -5   10   28      1.63     -0.32
   -5   10   29     -0.12      2.46
   -5   10   30      1.13     -0.14
   -5   10   31     -0.54      1.75
   -5   10   32      2.95      0.05
   -5   10   33      0.09      1.51
   -5   10   34     -1.66     -0.26
   -5   10   35     -0.86      1.32
   -5   10   36     -0.44      1.28
   -5   10   37      0.16      0.51
   -5   10   38     -3.33      4.35
   -5   10   39      0.41     -0.59
   -5   10   40      2.75      0.45
   -5   10   41      1.69      0.04
   -5   10   42     -0.01     -0.22
   -5   10   43     -1.21      0.94
   -5   10   44     -2.10      5.20
   -5   10   45     -0.42      6.14
   -5   10   46     -2.91      0.80
   -5   10   47     -1.34     -3.36
   -5   10   48      3.04     -0.14
   -5   10   49      0.99      1.49
   -5   10   50     -5.84     -0.21
   -5   10   51      0.15      3.25
   -5   10   52      5.87     -0.46
   -4   10    0     11.17      0.09
   -4   10    1    -13.87      9.57
   -4   10    2      6.99     -9.51
   -4   10    3      5.46     -6.21
   -4   10    4      0.23     -0.84
   -4   10    5     -5.39     -7.57
   -4   10    6      8.71      1.59
   -4   10    7     -6.32     -3.45
   -4   10    8     -2.97      0.50
   -4   10    9     -0.42      5.27
   -4   10   10      1.20      1.59
   -4   10   11     -6.92     -1.14
   -4   10   12     -4.33      0.85
   -4   10   13      0.07     -0.16
   -4   10   14     -3.43      5.30
   -4   10   15      2.45     -1.18
   -4   10   16      0.89      2.09
   -4   10   17     -1.65      1.84
   -4   10   18     -0.70     -2.66
   -4   10   19     -1.66     -1.47
   -4   10   20      0.57     -2.85
   -4   10   21      1.93     -2.88
   -4   10   22      1.21     -1.07
   -4   10   23     -3.03     -0.33
   -4   10   24      2.33     -1.08
   -4   10   25     -0.44      1.34
   -4   10   26     -0.68     -0.87
   -4   10   27      0.45     -0.63
   -4   10   28     -0.36     -1.67
   -4   10   29      4.52      1.99
   -4   10   30      0.65     -6.05
   -4   10   31     -0.97     -1.05
   -4   10   32     -3.54      2.06
   -4   10   33      0.09     -1.17
   -4   10   34     -0.06      2.79
   -4   10   35      1.39     -0.83
   -4   10   36     -0.85     -2.52
   -4   10   37      2.21     -7.24
   -4   10   38      2.58     -1.48
   -4   10   39     -0.30     -1.38
   -4   10   40      1.52      3.92
   -4   10   41      4.74      2.27
   -4   10   42      2.44      0.13
   -4   10   43     -0.37      1.65
   -4   10   44     -3.87     -1.09
   -4   10   45     -0.60     -0.27
   -4   10   46     -1.13     -3.59
   -4   10   47     -6.15     -0.77
   -4   10   48     -0.95     -3.34
   -4   10   49      5.90     -7.75
   -4   10   50     -1.78      2.97
   -4   10   51      3.03      1.51
   -4   10   52     -2.30      5.52
   -3   10    0    -13.10      0.06
   -3   10    1      0.28      4.85
   -3   10    2     -5.55     -0.22
   -3   10    3     -5.52     -5.30
   -3   10    4      0.77    -12.76
   -3   10    5      5.36      3.80
   -3   10    6     -9.98      3.92
   -3   10    7      3.32     -0.29
   -3   10    8     -4.53      3.46
   -3   10    9      6.08      5.65
   -3   10   10      3.70      0.23
   -3   10   11      1.01     -6.95
   -3   10   12     -4.28     -0.39
   -3   10   13     -9.80      3.73
   -3   10   14      1.17    -14.55
   -3   10   15     -4.23     -7.80
   -3   10   16     -1.06      1.27
   -3   10   17      0.68     -8.12
   -3   10   18     -0.27      7.05
   -3   10   19      1.27     -6.08
   -3   10   20      0.71      1.20
   -3   10   21     -0.86     -4.67
   -3   10   22      1.37      2.51
   -3   10   23      0.51      1.68
   -3   10   24      1.05     -1.31
   -3   10   25      0.06     -2.29
   -3   10   26      1.66     -2.89
   -3   10   27      2.97     -3.33
   -3   10   28     -1.92      2.10
   -3   10   29      0.59     -1.72
   -3   10   30     -0.01     -1.66
   -3   10   31     -0.77     -0.18
   -3   10   32      0.16     -0.36
   -3   10   33      0.56     -0.71
   -3   10   34      0.49      1.39
   -3   10   35     -0.50      0.24
   -3   10   36     -1.97      0.75
   -3   10   37      1.32     -2.51
   -3   10   38      2.00      1.51
   -3   10   39     -0.18     -0.47
   -3   10   40      1.83      6.90
   -3   10   41     -6.91      1.74
   -3   10   42      6.21      1.90
   -3   10   43      0.74     -1.95
   -3   10   44     -5.17     -3.27
   -3   10   45      1.03      1.57
   -3   10   46     -1.00     -0.82
   -3   10   47     -1.45     -0.30
   -3   10   48     -5.49     -2.21
   -3   10   49      3.99     -4.27
   -3   10   50     -0.43     -0.62
   -3   10   51     -3.08     -2.85
   -3   10   52     -1.30      2.16
   -2   10    0     18.07     -0.50
   -2   10    1      1.43     -6.27
   -2   10    2     -1.11     -1.65
   -2   10    3     -5.38      3.34
   -2   10    4     -9.39     -5.08
   -2   10    5     -3.65      6.64
   -2   10    6      1.06      9.20
   -2   10    7      3.50      6.91
   -2   10    8      1.14     -1.82
   -2   10    9     -4.50     -6.20
   -2   10   10      2.45     -4.91
   -2   10   11      4.74     -3.40
   -2   10   12     -0.60     -5.03
   -2   10   13      3.63     -1.74
   -2   10   14     -0.90     -6.98
   -2   10   15     -0.56      1.11
   -2   10   16      9.81     -2.10
   -2   10   17     -0.44     -1.77
   -2   10   18     -2.35      4.30
   -2   10   19      0.38     -0.31
   -2   10   20      2.04     -4.33
   -2   10   21      1.00     -1.15
   -2   10   22     -3.87     -0.51
   -2   10   23     -0.39     -5.84
   -2   10   24      0.59     -1.92
   -2   10   25     -1.87      2.96
   -2   10   26     -1.98      0.44
   -2   10   27      0.74     -1.46
   -2   10   28      0.20     -0.09
   -2   10   29      1.14      3.36
   -2   10   30      0.11     -0.05
   -2   10   31     -1.85     -0.22
   -2   10   32      2.72     -3.37
   -2   10   33      0.28     -1.89
   -2   10   34     -2.81     -1.63
   -2   10   35      2.47      0.31
   -2   10   36     -0.15     -2.23
   -2   10   37     -2.43      2.30
   -2   10   38      2.50      1.74
   -2   10   39      0.48      0.31
   -2   10   40     -0.12      3.12
   -2   10   41     -0.85     -5.44
   -2   10   42     -1.18     -1.36
   -2   10   43     -1.17      1.65
   -2   10   44      2.93     -0.68
   -2   10   45      0.63      2.77
   -2   10   46     -5.87      0.83
   -2   10   47     -3.34      4.08
   -2   10   48     -1.79      0.32
   -2   10   49      1.88      1.84
   -2   10   50     -2.20      0.01
   -2   10   51     -2.17      1.63
   -1   10    0     12.74     -0.88
   -1   10    1      3.93     12.07
   -1   10    2     -2.49      5.07
   -1   10    3      1.62      2.04
   -1   10    4     -0.68     -9.34
   -1   10    5     -1.02     -0.90
   -1   10    6     11.04     -4.44
   -1   10    7     -0.33     -2.45
   -1   10    8     -2.52     -7.50
   -1   10    9     -5.61     -2.03
   -1   10   10     -0.52     -2.30
   -1   10   11      2.01     -3.11
   -1   10   12     -0.15      0.40
   -1   10   13      2.25      1.06
   -1   10   14     -0.09      0.89
   -1   10   15      9.05      5.47
   -1   10   16      0.54      0.27
   -1   10   17      1.04      6.07
   -1   10   18     -0.47      0.76
   -1   10   19      0.67      5.68
   -1   10   20     -0.02      1.11
   -1   10   21     -0.28     -0.83
   -1   10   22     -0.19      1.25
   -1   10   23     -2.23      3.19
   -1   10   24      0.12      3.97
   -1   10   25     -0.94      0.07
   -1   10   26     -1.32     -0.65
   -1   10   27     -2.05     -0.79
   -1   10   28     -1.39     -1.29
   -1   10   29      2.20      2.31
   -1   10   30      0.32      2.68
   -1   10   31      0.95     -4.60
   -1   10   32     -0.05     -0.79
   -1   10   33      0.73      0.04
   -1   10   34     -1.21      0.32
   -1   10   35      2.01      3.21
   -1   10   36      0.77      0.41
   -1   10   37      1.52      1.89
   -1   10   38      0.43      0.71
   -1   10   39      3.87      0.99
   -1   10   40     -1.32      3.14
   -1   10   41     -1.20      1.39
   -1   10   42      0.68     -2.44
   -1   10   43     -2.03     -1.62
   -1   10   44      0.52      2.77
   -1   10   45     -0.57      2.20
   -1   10   46     -1.52     -0.09
   -1   10   47      4.13      0.50
   -1   10   48      1.82      0.15
   -1   10   49      1.66     -2.38
   -1   10   50      4.08      1.73
   -1   10   51      1.59      1.42
    0   10    1      1.47      0.74
    0   10    2     -7.06      3.17
    0   10    3    -27.88      1.67
    0   10    4      5.69      1.07
    0   10    5     -3.57     -0.21
    0   10    6    -12.11     -1.46
    0   10    7      7.46     -0.41
    0   10    8     -3.06      0.40
    0   10    9      8.70      1.65
    0   10   10      3.08      0.05
    0   10   11     -0.73      0.17
    0   10   12      6.37      0.34
    0   10   13     -1.95      0.16
    0   10   14     -3.15      1.38
    0   10   15      4.48     -0.84
    0   10   16     -0.65     -0.53
    0   10   17      3.59      0.38
    0   10   18      2.47     -0.11
    0   10   19     -0.47      0.29
    0   10   20      3.21      0.15
    0   10   21     -4.51      0.38
    0   10   22     -4.33      0.01
    0   10   23     -0.19     -0.16
    0   10   24      1.03     -0.01
    0   10   25      1.94     -0.47
    0   10   26      1.16      0.11
    0   10   27     -3.90      0.18
    0   10   28     -0.37      0.22
    0   10   29     -3.95      0.94
    0   10   30      1.32      0.15
    0   10   31      3.18      0.36
    0   10   32     -2.47      0.12
    0   10   33      1.07     -0.81
    0   10   34      0.61     -0.62
    0   10   35     -1.98     -0.39
    0   10   36      3.04      0.26
    0   10   37      1.82     -0.06
    0   10   38     -1.02     -0.14
    0   10   39      1.35      0.45
    0   10   40     -2.29      0.49
    0   10   41      0.24     -3.83
    0   10   42      4.01     -0.53
    0   10   43     -1.19      0.23
    0   10   44     -4.41      0.02
    0   10   45      1.32      0.14
    0   10   46      6.99      0.31
    0   10   47      0.35      2.07
    0   10   48     -2.04      0.08
    0   10   49     -1.72     -0.46
    0   10   50      2.46     -4.54
    0   10   51     -3.76      0.13
   -5   11    0     -6.17     -0.33
   -5   11    1    -11.07    -12.86
   -5   11    2      2.71    -10.75
   -5   11    4      0.67      3.96
   -5   11    5     -3.93      4.19
   -5   11    6      3.06      3.61
   -5   11    7      3.21      7.57
   -5   11    8     -2.18      2.73
   -5   11    9     -0.31     -3.52
   -5   11   10     -0.73      1.06
   -5   11   11     -4.81     -2.11
   -5   11   12      3.71     -2.50
   -5   11   13      2.34      1.81
   -5   11   14      1.12      2.77
   -5   11   15     -4.33     -5.06
   -5   11   16     -0.45      1.72
   -5   11   17     -0.29     -3.07
   -5   11   18     -2.31     -4.50
   -5   11   19      0.30     -1.06
   -5   11   20      0.94      0.35
   -5   11   21      1.66      2.51
   -5   11   22     -1.03     -2.58
   -5   11   23     -2.17     -0.09
   -5   11   24     -1.56      3.52
   -5   11   25      0.94     -3.83
   -5   11   26     -2.09     -1.49
   -5   11   27     -0.44      3.24
   -5   11   28     -2.58     -0.41
   -5   11   29     -0.32     -1.33
   -5   11   30      2.17     -4.63
   -5   11   31      0.41     -2.22
   -5   11   32     -0.36      1.38
   -5   11   33     -1.29     -4.16
   -5   11   34     -5.05     -2.77
   -5   11   35      3.36      0.07
   -5   11   36     -1.00     -2.14
   -5   11   37     -1.03      4.56
   -5   11   38      4.37     -1.68
   -5   11   39     -0.30      0.04
   -5   11   40     -1.14     -3.05
   -5   11   41     -3.15      3.31
   -5   11   42     -3.67      0.75
   -5   11   43     -3.43      5.06
   -5   11   44      4.95     -0.69
   -5   11   45     -0.31     -3.37
   -5   11   46     -6.47     -6.74
   -5   11   47     -1.82     -0.56
   -5   11   48      0.94      0.69
   -5   11   49      1.38      1.69
   -5   11   50     -2.76     -3.46
   -4   11    1     -2.86     -0.96
   -4   11    2      5.12      3.76
   -4   11    3      0.00     -1.53
   -4   11    4      7.01      2.22
   -4   11    5      1.03     -3.98
   -4   11    6      1.41     -9.84
   -4   11    7      4.09      7.32
   -4   11    8      0.36     -0.99
   -4   11    9     -3.74      7.46
   -4   11   10     -9.43     -1.21
   -4   11   11     -1.50      0.63
   -4   11   12     -4.90     -5.74
   -4   11   13     -2.59      0.64
   -4   11   14     -1.84     -2.00
   -4   11   15      1.19     -1.45
   -4   11   16      5.86      4.99
   -4   11   17     -0.74      1.80
   -4   11   18      1.21      5.51
   -4   11   19      2.67     -1.80
   -4   11   20     -0.30      1.68
   -4   11   21     -0.08     -0.65
   -4   11   22      2.88      1.89
   -4   11   23     -2.83     -1.17
   -4   11   24     -1.37      1.18
   -4   11   25      2.03      1.86
   -4   11   26      0.39     -3.43
   -4   11   27      2.78      2.18
   -4   11   28     -2.09      0.53
   -4   11   29      0.58     -0.83
   -4   11   30     -2.83     -0.15
   -4   11   31     -0.22     -2.55
   -4   11   32     -5.18      2.51
   -4   11   33     -1.73      0.07
   -4   11   34     -1.42      2.09
   -4   11   35     -0.37      0.77
   -4   11   36      0.68      0.86
   -4   11   37      3.75     -0.17
   -4   11   38     -1.54      0.71
   -4   11   39     -1.78     -2.80
   -4   11   40     -0.42     -4.27
   -4   11   41     -1.13      3.04
   -4   11   42      1.19      2.04
   -4   11   43     -3.13     -0.61
   -4   11   44      1.61     -3.77
   -4   11   45     -1.09     -6.54
   -4   11   46     -3.92     -0.93
   -4   11   47     -4.97     -1.73
   -4   11   48     -4.14     -1.84
   -4   11   49      3.68      6.35
   -4   11   50     -3.22     -2.09
   -4   11   51     -0.68     -2.31
   -3   11    0     -4.48      0.12
   -3   11    1     -1.23     -4.12
   -3   11    2     -4.45      0.48
   -3   11    3    -11.74     -1.59
   -3   11    4     -5.86      4.25
   -3   11    5      1.04      2.98
   -3   11    6     -7.58    -10.84
   -3   11    7      0.46      1.40
   -3   11    8      2.62      1.16
   -3   11    9      3.69     -2.12
   -3   11   10     -1.91      0.80
   -3   11   11      1.53      5.19
   -3   11   12      0.27     -4.40
   -3   11   13      4.16     -2.58
   -3   11   14    -12.00     -9.04
   -3   11   15      1.32     -1.60
   -3   11   16     -1.62      0.10
   -3   11   17      4.25     -1.11
   -3   11   18      1.08      3.46
   -3   11   19     -6.90     -3.93
   -3   11   20     -2.15     -2.41
   -3   11   21      0.93     -2.12
   -3   11   22      1.97      0.25
   -3   11   23      0.01      0.09
   -3   11   24     -2.58     -6.40
   -3   11   25      0.19      0.92
   -3   11   26      2.73      3.02
   -3   11   27      2.02     -2.06
   -3   11   28     -1.02      2.69
   -3   11   29     -4.22      0.11
   -3   11   30     -1.93     -4.02
   -3   11   31      0.00      1.38
   -3   11   32     -3.58      0.49
   -3   11   33      0.55     -1.26
   -3   11   34      0.22      1.34
   -3   11   35      1.51     -2.93
   -3   11   36      0.96      0.98
   -3   11   37     -0.78     -0.13
   -3   11   38      3.14      2.70
   -3   11   39     -4.62      2.66
   -3   11   40      1.40      0.73
   -3   11   41      1.06     -0.32
   -3   11   42     -0.53     -0.32
   -3   11   43      0.12      3.57
   -3   11   44      2.44     -2.02
   -3   11   45     -0.01     -2.01
   -3   11   46      1.45      3.81
   -3   11   47     -4.84     -0.29
   -3   11   48      2.61     -0.45
   -3   11   49      3.99      1.94
   -3   11   50     -0.48     -0.77
   -3   11   51     -3.14     -2.31
   -2   11    0     -4.04     -0.12
   -2   11    1      6.52     -4.69
   -2   11    2     -2.60      3.64
   -2   11    3      0.60     -7.95
   -2   11    4     -6.28      8.48
   -2   11    5     -2.63      1.86
   -2   11    6      3.14      0.92
   -2   11    7    -10.15     -4.54
   -2   11    8      1.19     -2.14
   -2   11    9      8.55      4.43
   -2   11   10     -5.16      1.50
   -2   11   11      4.77     -0.66
   -2   11   12      3.26     -0.37
   -2   11   13      3.07     -5.78
   -2   11   14     -5.75     -3.94
   -2   11   15      0.78      4.37
   -2   11   16      1.50     -9.99
   -2   11   17     -1.16      3.61
   -2   11   18     -2.53      2.46
   -2   11   19      3.66     -0.20
   -2   11   20     -0.89      2.02
   -2   11   21     -2.66     -2.08
   -2   11   22      1.40     -2.04
   -2   11   23     -2.00      2.71
   -2   11   24      0.44     -3.17
   -2   11   25     -2.71      1.03
   -2   11   26     -0.80      1.50
   -2   11   27      1.01      2.79
   -2   11   28     -0.63     -0.89
   -2   11   29      4.63      1.27
   -2   11   30      0.91      0.62
   -2   11   31      0.25     -1.84
   -2   11   32      1.85      1.59
   -2   11   33     -1.57     -0.72
   -2   11   34      1.54     -2.33
   -2   11   35      4.53      1.06
   -2   11   36     -0.23     -2.34
   -2   11   37     -0.23      1.53
   -2   11   38      1.50      3.06
   -2   11   39     -0.84      0.27
   -2   11   40     -0.41     -1.39
   -2   11   41      2.56     -2.32
   -2   11   42     -2.02      0.45
   -2   11   43     -0.42     -2.96
   -2   11   44      2.62     -3.69
   -2   11   45      0.28     -1.35
   -2   11   46      1.37     -3.84
   -2   11   47      3.29      3.46
   -2   11   48      5.63      1.17
   -2   11   49      2.29     -4.53
   -2   11   50     -2.79      4.08
   -2   11   51     -0.23      1.43
   -1   11    0    -31.57      0.08
   -1   11    1      1.84      3.96
   -1   11    2     -5.26      4.17
   -1   11    3      2.61     -2.97
   -1   11    4      2.08      7.15
   -1   11    5     -2.44      7.98
   -1   11    6      7.94      2.45
   -1   11    7     -1.23     -6.64
   -1   11    8      3.51     -0.40
   -1   11    9      8.53     -7.23
   -1   11   10     -4.60     -0.09
   -1   11   11      3.21     -0.64
   -1   11   12     -6.82     -3.06
   -1   11   13     -1.45     -2.45
   -1   11   14      1.21     -4.76
   -1   11   15     -1.14      3.93
   -1   11   16     -3.73     -0.03
   -1   11   17      2.91     -0.92
   -1   11   18      4.43      1.58
   -1   11   19     -1.39      0.56
   -1   11   20      0.66      1.09
   -1   11   21     -2.55     -2.78
   -1   11   22     -2.54     -0.31
   -1   11   23     -2.17     -0.41
   -1   11   24      1.19      5.25
   -1   11   25     -0.59     -1.85
   -1   11   26      1.09     -0.06
   -1   11   27      0.79     -0.28
   -1   11   28      1.16     -0.87
   -1   11   29      0.93     -0.85
   -1   11   30     -0.07     -3.76
   -1   11   31      2.29     -3.75
   -1   11   32      1.59      2.55
   -1   11   33     -0.45      0.46
   -1   11   34      1.49     -1.47
   -1   11   35      2.59      3.76
   -1   11   36      0.17      0.06
   -1   11   37      1.35      3.41
   -1   11   38     -4.12      2.40
   -1   11   39      0.99      3.92
   -1   11   40     -0.44     -2.31
   -1   11   41      0.64     -0.28
   -1   11   42      3.83     -0.78
   -1   11   43     -0.08     -0.73
   -1   11   44     -3.45      1.13
   -1   11   45     -0.67     -2.78
   -1   11   46      2.18     -1.64
   -1   11   47      2.97     -2.90
   -1   11   48     -0.27      2.18
   -1   11   49     -1.69     -5.29
   -1   11   50     -2.47      0.46
    0   11    0     -6.06      0.11
    0   11    1      5.85     -0.56
    0   11    2      2.33      1.65
    0   11    3     11.34     -0.15
    0   11    4      0.11      0.01
    0   11    5     -2.62      0.77
    0   11    6     -4.97     -0.68
    0   11    7     -4.95     -0.29
    0   11    8      6.68     -0.11
    0   11    9     -0.22      0.23
    0   11   10      0.72      0.28
    0   11   11      3.20     -0.34
    0   11   12     -0.67      0.11
    0   11   13     -0.66     -0.25
    0   11   14     -1.45      0.11
    0   11   15     -0.14      0.23
    0   11   16     -0.68     -0.03
    0   11   17     -0.96      0.30
    0   11   18      0.71     -0.11
    0   11   19      0.06      0.14
    0   11   20     -2.10      0.05
    0   11   21      0.22     -0.26
    0   11   22      1.61      0.34
    0   11   23      1.15      0.13
    0   11   24      0.60      0.04
    0   11   25     -2.00      0.07
    0   11   26     -1.40      0.11
    0   11   27      0.18      0.36
    0   11   28     -1.46      0.27
    0   11   29     -1.11     -0.72
    0   11   30     -1.68      0.06
    0   11   31      0.02      0.23
    0   11   32      3.07     -0.61
    0   11   33      0.31      0.04
    0   11   34      1.15      0.61
    0   11   35     -2.62      0.12
    0   11   36     -0.14     -0.51
    0   11   37      1.60     -0.15
    0   11   38      3.21      0.22
    0   11   39     -2.16     -0.37
    0   11   40     -1.46     -0.47
    0   11   41      1.27     -3.40
    0   11   42      0.81      0.05
    0   11   43     -0.69     -1.00
    0   11   44      1.91     -2.25
    0   11   45     -1.00     -1.87
    0   11   46      3.25     -0.52
    0   11   47     -2.95      1.30
    0   11   48     -3.50      0.10
    0   11   49      1.26      0.17
    0   11   50     -1.24     -0.47
   -6   12    1     -0.72     -0.07
   -6   12    2     -4.50      1.80
   -6   12    3     -0.03      3.27
   -6   12    4      4.10     -0.94
   -6   12    5     -0.81     -0.56
   -6   12    6     -0.32     -0.03
   -6   12    7     -0.20      1.98
   -6   12    8      4.28      0.16
   -6   12    9     -0.79     -9.20
   -6   12   10      2.90      0.32
   -6   12   11      0.10     -1.11
   -6   12   12     -4.70     -0.46
   -6   12   13      0.01     -0.83
   -6   12   14     -2.09      0.63
   -6   12   15      0.07     -1.09
   -6   12   16     -1.38     -0.74
   -6   12   17     -0.02     -5.38
   -6   12   18      3.35     -0.18
   -6   12   19     -0.40     -0.43
   -6   12   20     -0.41      0.13
   -6   12   21      0.18      0.94
   -6   12   22     -5.19     -0.28
   -6   12   23      0.22     -1.77
   -6   12   24     -1.55      0.39
   -6   12   25      0.01     -2.52
   -6   12   26      1.34     -0.11
   -6   12   27     -0.25     -0.86
   -6   12   28      0.78      0.26
   -6   12   29     -0.02     -2.19
   -6   12   30     -1.60      0.22
   -6   12   31      0.79      0.25
   -6   12   32     -0.65      0.55
   -6   12   33     -0.11     -1.94
   -6   12   34     -0.81      0.74
   -6   12   35     -1.20     -1.67
   -6   12   36     -0.20     -0.46
   -6   12   37     -0.22     -0.41
   -6   12   38     -2.29     -1.56
   -6   12   39      0.63      2.93
   -6   12   40     -0.15      0.26
   -6   12   41     -0.52      1.69
   -6   12   42     -5.68      0.16
   -6   12   43      0.36      4.27
   -6   12   44     -3.62     -2.43
   -6   12   45      0.18     -3.25
   -6   12   46     -0.79      1.09
   -6   12   47     -1.09      3.71
   -6   12   48      5.24      1.60
   -6   12   49      1.12     -2.62
   -6   12   50      4.42     -0.05
   -5   12    0     -0.83     -0.21
   -5   12    1      6.43      2.29
   -5   12    2      5.12     -4.98
   -5   12    4      0.70     -1.39
   -5   12    5     -3.62     -4.86
   -5   12    6     -2.82      0.42
   -5   12    7     -1.88     -1.97
   -5   12    8      3.29     10.30
   -5   12    9      1.29     -3.00
   -5   12   10      3.40      2.90
   -5   12   11     -2.26      1.47
   -5   12   12      0.87      1.13
   -5   12   13      2.80      1.84
   -5   12   14      3.08     -3.44
   -5   12   15     -4.95      5.64
   -5   12   16      4.76      2.30
   -5   12   17     -0.17      0.99
   -5   12   18     -0.40      1.57
   -5   12   19      5.20      0.28
   -5   12   20      0.37      2.08
   -5   12   21     -2.40     -2.03
   -5   12   22     -1.91     -3.34
   -5   12   23     -3.76     -1.22
   -5   12   24     -0.05      2.14
   -5   12   25      0.36      0.54
   -5   12   26     -0.93     -0.56
   -5   12   27      0.32      2.36
   -5   12   28     -2.09     -0.22
   -5   12   29      0.61     -3.14
   -5   12   30     -1.43     -0.68
   -5   12   31     -2.71     -1.24
   -5   12   32      0.39      1.65
   -5   12   33      0.15     -0.60
   -5   12   34      0.49     -4.26
   -5   12   35      3.79      3.13
   -5   12   36      0.41     -3.56
   -5   12   37     -1.49     -2.18
   -5   12   38     -5.18     -2.17
   -5   12   39     -2.04     -3.32
   -5   12   40     -1.40     -5.79
   -5   12   41     -8.29      0.50
   -5   12   42     -0.01     -1.18
   -5   12   43     -2.67      3.75
   -5   12   44     -2.21     -0.52
   -5   12   45      0.95     -4.40
   -5   12   46     -1.50     -1.37
   -5   12   47      0.02      3.01
   -5   12   48     -0.30     -3.24
   -5   12   49     -2.57      3.93
   -5   12   50     -3.14    -10.02
   -4   12    0     -3.93      0.04
   -4   12    1     -0.12     -4.51
   -4   12    2      2.36      5.43
   -4   12    3     -1.79      5.36
   -4   12    4      2.39     -1.47
   -4   12    5     -2.27      5.30
   -4   12    6      4.67    -17.90
   -4   12    7     -1.73     -2.25
   -4   12    8     -2.85     -1.13
   -4   12    9     -1.24     -7.79
   -4   12   10      1.24      1.03
   -4   12   11     -0.44     -0.50
   -4   12   12      1.26      2.92
   -4   12   13     -6.02      1.43
   -4   12   14     -3.87      2.12
   -4   12   15     -0.04      6.39
   -4   12   16     -1.84      3.96
   -4   12   17      1.77      2.49
   -4   12   18      1.32     -0.53
   -4   12   19      3.01     -0.55
   -4   12   20     -0.16     -2.60
   -4   12   21      1.28     -0.44
   -4   12   22     -0.74     -0.84
   -4   12   23     -1.04      1.13
   -4   12   24     -0.20      0.69
   -4   12   25     -0.90      0.39
   -4   12   26     -1.15     -0.11
   -4   12   27      2.77     -3.99
   -4   12   28      2.54     -0.43
   -4   12   29      1.97     -1.69
   -4   12   30     -2.00      3.84
   -4   12   31      0.19     -2.61
   -4   12   32     -1.35      1.60
   -4   12   33      1.74      0.18
   -4   12   34      0.07     -1.32
   -4   12   35      0.71     -1.67
   -4   12   36      1.08      0.91
   -4   12   37      0.34     -2.48
   -4   12   38     -5.62      0.16
   -4   12   39     -2.55     -0.65
   -4   12   40      1.57      4.09
   -4   12   41      4.00      0.99
   -4   12   42      1.04     -3.25
   -4   12   43      1.25      2.49
   -4   12   44      2.56     -1.36
   -4   12   45      1.18     -4.14
   -4   12   46      1.76      2.05
   -4   12   47     -8.58      1.16
   -4   12   48      1.64      1.00
   -4   12   49      1.14      5.70
   -4   12   50     -0.18     -6.16
   -3   12    0    -11.16     -0.05
   -3   12    1     -6.04      5.70
   -3   12    2      6.06     -0.64
   -3   12    3     -7.05      1.41
   -3   12    4      3.17      2.73
   -3   12    5     -2.34    -12.93
   -3   12    6     -3.02    -10.41
   -3   12    7     -8.55     -3.28
   -3   12    8     -0.77     -2.90
   -3   12    9      1.58      2.71
   -3   12   10      0.69      3.72
   -3   12   11     -0.05      1.49
   -3   12   12      2.30      7.17
   -3   12   13      1.24      0.57
   -3   12   14     -8.34      0.71
   -3   12   15     -1.74      2.02
   -3   12   16      3.57     -1.40
   -3   12   17      0.34      0.03
   -3   12   18      1.36    -10.52
   -3   12   19     -2.11      1.37
   -3   12   20      1.58      2.23
   -3   12   21      1.56      0.39
   -3   12   22     -1.50     -0.46
   -3   12   23      0.44      3.34
   -3   12   24      1.69     -2.54
   -3   12   25      3.81     -1.61
   -3   12   26      3.68      1.52
   -3   12   27     -0.58      0.47
   -3   12   28      1.24      0.33
   -3   12   29      1.80     -2.45
   -3   12   30      0.23     -0.09
   -3   12   31      1.32      0.25
   -3   12   32     -2.83      1.97
   -3   12   33     -0.13     -4.53
   -3   12   34      1.19     -0.06
   -3   12   35     -2.10     -1.95
   -3   12   36     -0.39     -0.24
   -3   12   37     -4.73      1.21
   -3   12   38      5.42     -3.65
   -3   12   39     -1.72      1.85
   -3   12   40      0.60      0.49
   -3   12   41      4.31     -1.01
   -3   12   42     -2.42     -2.14
   -3   12   43      2.73     -4.44
   -3   12   44      5.39     -1.47
   -3   12   45      0.66     -1.72
   -3   12   46      2.70     -1.80
   -3   12   47     -1.65      3.37
   -3   12   48      4.75      2.01
   -3   12   49      3.15     -0.08
   -3   12   50      2.33     -2.98
   -2   12    0    -13.39      0.53
   -2   12    1     -2.31     -1.52
   -2   12    2     -0.08     -3.38
   -2   12    3     -0.08     -3.57
   -2   12    4      7.04      0.24
   -2   12    5     -1.01     -1.35
   -2   12    6     -3.58     -6.25
   -2   12    7     -0.86      1.59
   -2   12    8      9.21      6.68
   -2   12    9      0.90      2.21
   -2   12   10     -5.17     -0.80
   -2   12   11      1.27     -0.04
   -2   12   12      0.10      6.42
   -2   12   13      0.33      1.50
   -2   12   14     -3.11     -4.02
   -2   12   15      2.97     -4.72
   -2   12   16      1.15      2.10
   -2   12   17     -1.59      2.60
   -2   12   18      5.28     -3.77
   -2   12   19     -3.98     -8.23
   -2   12   20      1.29      1.42
   -2   12   21     -1.48      1.37
   -2   12   22     -1.91     -0.11
   -2   12   23      0.84      0.89
   -2   12   24     -1.06     -0.33
   -2   12   25      2.96      1.61
   -2   12   26      5.49      3.08
   -2   12   27      0.00     -0.87
   -2   12   28      2.65     -1.38
   -2   12   29      1.89     -1.02
   -2   12   30     -0.47     -0.63
   -2   12   31     -0.04     -0.32
   -2   12   32      0.83      4.06
   -2   12   33     -0.26      5.64
   -2   12   34      1.18     -1.10
   -2   12   35      0.23      3.11
   -2   12   36      0.28      0.40
   -2   12   37     -2.69     -0.37
   -2   12   38     -5.97      1.10
   -2   12   39      3.82      1.54
   -2   12   40      2.38     -2.43
   -2   12   41      1.98      1.69
   -2   12   42     -0.37      1.86
   -2   12   43     -1.63     -2.24
   -2   12   44     -0.13     -1.19
   -2   12   45      2.40      1.28
   -2   12   46     -0.03     -1.88
   -2   12   47      5.67      1.24
   -2   12   48      1.07      0.39
   -2   12   49      0.13     -3.18
   -2   12   50      0.05      1.68
   -1   12    0     -4.54     -0.33
   -1   12    1      2.52     -0.11
   -1   12    2      4.52     -1.64
   -1   12    3      2.80     -2.79
   -1   12    4     -0.38      0.82
   -1   12    5      0.10      2.35
   -1   12    6      3.80      2.05
   -1   12    7     -3.13      2.76
   -1   12    8      3.71      0.39
   -1   12    9      1.98      3.74
   -1   12   10     -0.73     -2.25
   -1   12   11      0.19      3.22
   -1   12   12     -0.69     -3.05
   -1   12   13     -0.21      1.53
   -1   12   14     -2.52      2.10
   -1   12   15     -0.56    -10.60
   -1   12   16     -3.17     -2.81
   -1   12   17      2.25      4.91
   -1   12   18      0.56     -2.63
   -1   12   19     -1.37     -2.43
   -1   12   20      0.53     -0.59
   -1   12   21      0.56     -0.12
   -1   12   22     -2.68      3.21
   -1   12   23      1.31     -0.21
   -1   12   24     -0.92      0.66
   -1   12   25     -4.05      2.59
   -1   12   26      1.36      1.83
   -1   12   27      1.40     -2.50
   -1   12   28     -1.53      1.63
   -1   12   29      0.82     -4.46
   -1   12   30     -0.41     -0.68
   -1   12   31     -0.43      0.22
   -1   12   32      0.89      1.14
   -1   12   33      2.30      1.23
   -1   12   34      2.83     -1.86
   -1   12   35     -0.42     -0.80
   -1   12   36     -0.51     -3.83
   -1   12   37     -0.05      3.62
   -1   12   38     -5.93     -0.98
   -1   12   39      1.78      0.57
   -1   12   40      0.83     -1.36
   -1   12   41      0.70     -1.40
   -1   12   42      0.00      1.27
   -1   12   43     -2.14      0.81
   -1   12   44      1.81      2.08
   -1   12   45      0.35     -0.03
   -1   12   46      0.90     -0.87
   -1   12   47      1.24     -4.69
   -1   12   48     -1.15     -0.14
   -1   12   49     -0.03      0.27
    0   12    0     12.97      0.00
    0   12    1     -3.90     -0.54
    0   12    2     -0.09     -0.67
    0   12    3     -1.25      0.44
    0   12    4     -0.47      0.25
    0   12    5     -3.71      0.10
    0   12    6      1.27     -0.13
    0   12    7     -1.01      0.24
    0   12    8     -5.63     -0.26
    0   12    9     -0.62     -0.45
    0   12   10     -5.18      0.18
    0   12   11      0.37     -0.06
    0   12   12      3.06      0.60
    0   12   13     -4.02     -0.49
    0   12   14      2.06      0.03
    0   12   15      1.15      0.21
    0   12   16      2.72     -0.64
    0   12   17     -0.84      0.17
    0   12   18     -3.36      0.38
    0   12   19     -2.81      0.13
    0   12   20     -4.19     -0.09
    0   12   21      1.86      0.09
    0   12   22     -2.90      0.23
    0   12   23     -0.42      0.15
    0   12   24      0.14     -1.11
    0   12   25      0.19      0.16
    0   12   26      1.89      0.35
    0   12   27     -0.28      0.18
    0   12   28      0.79     -0.47
    0   12   29      0.95      0.60
    0   12   30     -0.03      0.10
    0   12   31      2.10      0.55
    0   12   32     -0.35     -1.16
    0   12   33     -1.34     -0.69
    0   12   34      2.80     -0.02
    0   12   35     -6.97     -0.66
    0   12   36     -4.36     -0.89
    0   12   37     -0.05     -0.40
    0   12   38      4.65      0.78
    0   12   39     -1.67     -0.47
    0   12   40      0.69     -0.23
    0   12   41      2.31     -1.23
    0   12   42     -2.20     -0.34
    0   12   43      3.44      0.34
    0   12   44      4.20     -3.48
    0   12   45      1.94     -0.28
    0   12   46      2.68     -0.34
    0   12   47     -1.73      0.52
    0   12   48     -3.22      0.09
   -6   13    0     -9.73      0.25
   -6   13    1     -0.32      5.21
   -6   13    2      1.47     -2.56
   -6   13    3      7.42     -4.29
   -6   13    4      0.25      2.35
   -6   13    5     -2.46      4.96
   -6   13    6      1.23      5.80
   -6   13    7     -0.50     -0.20
   -6   13    8      2.33      1.75
   -6   13    9      0.68      3.02
   -6   13   10      2.73      0.33
   -6   13   11      1.54     -3.05
   -6   13   12     -1.76     -3.43
   -6   13   13      1.80      2.04
   -6   13   14      0.80     -0.19
   -6   13   15      2.24     -2.19
   -6   13   16      2.67     -1.32
   -6   13   17      1.20      0.83
   -6   13   18      1.68     -2.06
   -6   13   19     -1.93      1.06
   -6   13   20      5.68     -1.12
   -6   13   21      0.89      2.79
   -6   13   22     -0.49      1.44
   -6   13   23     -1.07      0.71
   -6   13   24     -1.38     -1.59
   -6   13   25     -2.25      0.26
   -6   13   26      4.06      1.16
   -6   13   27      0.21     -0.39
   -6   13   28     -1.17      0.65
   -6   13   29     -0.67      1.12
   -6   13   30      1.58     -0.42
   -6   13   31     -1.02     -0.32
   -6   13   32      1.31      0.79
   -6   13   33      0.29     -0.95
   -6   13   34      2.14      1.59
   -6   13   35     -2.52     -2.67
   -6   13   36      0.05     -0.72
   -6   13   37     -0.91      1.13
   -6   13   38     -5.92      0.06
   -6   13   39      0.00     -2.41
   -6   13   40     -0.51     -3.10
   -6   13   41     -1.96      4.09
   -6   13   42      2.63     -1.21
   -6   13   43      2.09     -5.99
   -6   13   44      1.36     -1.64
   -6   13   45     -1.42     -4.22
   -6   13   46     -2.07      3.53
   -6   13   47     -3.26      0.44
   -6   13   48      0.29     -0.12
   -6   13   49     -1.58     -5.87
   -6   13   50     -1.14     -1.83
   -5   13    0     12.27     -0.17
   -5   13    1      3.14      2.18
   -5   13    2     -2.87     -0.59
   -5   13    3      8.94     -0.39
   -5   13    4     -0.71     -2.92
   -5   13    5     -0.91      1.19
   -5   13    6      0.12     -0.98
   -5   13    7      0.33     -6.78
   -5   13    8      1.48      0.46
   -5   13    9     -1.16     -1.34
   -5   13   10      4.85     -1.56
   -5   13   11     -0.96      1.09
   -5   13   12      7.88     -5.66
   -5   13   13     -3.03      2.01
   -5   13   14      5.03      1.02
   -5   13   15      0.95     -2.62
   -5   13   16      1.91      4.45
   -5   13   17      0.65     -5.18
   -5   13   18     -0.08     -1.13
   -5   13   19     -3.41      1.23
   -5   13   20      1.08     -1.28
   -5   13   21      2.78      0.37
   -5   13   22     -0.33      0.42
   -5   13   23     -1.85      0.79
   -5   13   24      0.09     -0.19
   -5   13   25     -2.96     -1.55
   -5   13   26     -1.95      1.00
   -5   13   27      0.37     -1.45
   -5   13   28      1.06     -2.01
   -5   13   29      2.46     -0.87
   -5   13   30      2.07      3.87
   -5   13   31     -1.93     -1.04
   -5   13   32      1.70      0.04
   -5   13   33      0.27      2.97
   -5   13   34      0.92      2.70
   -5   13   35      1.60      2.43
   -5   13   36     -1.43     -0.63
   -5   13   37      0.70      1.40
   -5   13   38     -1.37      1.85
   -5   13   39     -0.49     -6.46
   -5   13   40      2.99      3.16
   -5   13   41      0.50     -0.57
   -5   13   42      5.71     -2.09
   -5   13   43      0.66     -0.76
   -5   13   44     -6.01      0.04
   -5   13   45     -0.22      3.00
   -5   13   46      1.74      1.52
   -5   13   47     -3.86      1.82
   -5   13   48      2.90      0.77
   -5   13   49     -0.22     -2.65
   -5   13   50     -2.20     -3.46
   -4   13    0     -4.00     -0.01
   -4   13    1     -3.04      1.75
   -4   13    2     -1.25     -4.00
   -4   13    3      0.82      1.76
   -4   13    4      0.77     -5.06
   -4   13    5     -0.84      3.59
   -4   13    6      6.92      0.55
   -4   13    7     -7.00     -1.43
   -4   13    8     -1.14      0.24
   -4   13    9     -0.37      0.44
   -4   13   10      1.74      0.51
   -4   13   11      3.06     -2.95
   -4   13   12      1.94     -9.97
   -4   13   13     -5.19      1.07
   -4   13   14     -0.26      1.86
   -4   13   15     -0.69     -2.18
   -4   13   16     -1.30      0.02
   -4   13   17      0.48      0.39
   -4   13   18      0.96     -3.53
   -4   13   19     -0.23      0.65
   -4   13   20     -0.30      1.20
   -4   13   21     -0.51      2.13
   -4   13   22      3.30      0.47
   -4   13   23     -1.77      0.79
   -4   13   24      1.07     -0.11
   -4   13   25     -0.11     -3.43
   -4   13   26     -0.86     -3.93
   -4   13   27      2.67     -1.17
   -4   13   28      0.54      1.25
   -4   13   29      2.25      1.24
   -4   13   30      0.30      3.63
   -4   13   31     -1.12      2.80
   -4   13   32     -3.45     -0.61
   -4   13   33     -1.02     -0.13
   -4   13   34     -1.41      3.76
   -4   13   35     -0.12     -2.26
   -4   13   36     -1.48     -1.52
   -4   13   37     -0.44      2.38
   -4   13   38      1.58     -3.39
   -4   13   39      1.33     -2.52
   -4   13   40     -0.72      0.09
   -4   13   41      0.05     -1.98
   -4   13   42      0.24     -5.12
   -4   13   43      2.02     -5.20
   -4   13   44      5.63      0.28
   -4   13   45     -1.79      0.43
   -4   13   46      1.75     -0.95
   -4   13   47     -5.73     -3.10
   -4   13   48      3.61     -4.37
   -4   13   49      4.52      1.53
   -3   13    0      1.11     -0.31
   -3   13    1     -0.07      4.17
   -3   13    2     -0.22      2.43
   -3   13    3     -3.62      4.54
   -3   13    4      6.23     -3.48
   -3   13    5      2.81      1.12
   -3   13    6     -1.33      0.15
   -3   13    7     -1.65      2.21
   -3   13    8      6.83     -0.52
   -3   13    9      3.42      3.40
   -3   13   10     -2.76      1.27
   -3   13   11     -4.62     -2.99
   -3   13   12     -1.90     -1.90
   -3   13   13      3.49     -2.10
   -3   13   14     -3.89     -2.12
   -3   13   15      0.88      3.90
   -3   13   16      2.95     -1.34
   -3   13   17     -1.53      1.57
   -3   13   18     -3.23      5.70
   -3   13   19     -0.98     -1.53
   -3   13   20     -1.45      0.61
   -3   13   21     -2.93     -2.78
   -3   13   22      3.10     -0.55
   -3   13   23      3.15      1.96
   -3   13   24      1.86     -0.77
   -3   13   25      3.74     -0.82
   -3   13   26      1.46      0.31
   -3   13   27      0.74      0.76
   -3   13   28     -1.87      0.55
   -3   13   29     -2.60      2.33
   -3   13   30     -0.97      1.23
   -3   13   31     -2.13      3.41
   -3   13   32      0.45      0.39
   -3   13   33     -3.97      0.78
   -3   13   34     -2.79      1.86
   -3   13   35     -5.46      2.54
   -3   13   36     -0.74     -0.47
   -3   13   37     -3.21      1.16
   -3   13   38      7.82     -2.41
   -3   13   39     -0.88      1.32
   -3   13   40     -1.73     -2.54
   -3   13   41      0.87     -1.47
   -3   13   42     -2.82     -0.30
   -3   13   43      2.00     -2.03
   -3   13   44      4.84      1.43
   -3   13   45     -0.06     -1.21
   -3   13   46      3.29      1.22
   -3   13   47     -0.12     -1.17
   -3   13   48     -3.07     -5.99
   -3   13   49      1.72     -1.40
   -2   13    0      9.66     -0.36
   -2   13    1      4.91     -2.62
   -2   13    2      2.58      2.71
   -2   13    3      0.74      2.61
   -2   13    4      0.92     -4.74
   -2   13    5     -1.03     -2.35
   -2   13    6     -1.74     -2.17
   -2   13    7     -3.29      3.53
   -2   13    8      3.08      0.05
   -2   13    9      0.67     -0.96
   -2   13   10      5.78     -3.83
   -2   13   11     -0.79      3.24
   -2   13   12     -2.11     -4.40
   -2   13   13      2.92     -3.32
   -2   13   14     -3.35      0.43
   -2   13   15     -0.02     -0.50
   -2   13   16     -0.34      0.96
   -2   13   17     -0.91      0.09
   -2   13   18     -1.37      5.19
   -2   13   19      5.70     -1.88
   -2   13   20      0.84     -0.59
   -2   13   21      0.87     -0.69
   -2   13   22     -3.82     -3.30
   -2   13   23      1.00      0.12
   -2   13   24      1.08      1.46
   -2   13   25     -3.47      2.47
   -2   13   26     -1.06      2.27
   -2   13   27      0.18     -2.32
   -2   13   28     -1.49     -1.64
   -2   13   29      0.57      1.11
   -2   13   30     -1.73      2.25
   -2   13   31     -1.13      1.59
   -2   13   32      0.01      2.55
   -2   13   33      0.03      2.33
   -2   13   34     -0.53      0.21
   -2   13   35      2.30     -1.95
   -2   13   36      0.97     -1.82
   -2   13   37     -1.06     -0.08
   -2   13   38     -1.12      2.32
   -2   13   39      1.48      0.81
   -2   13   40     -0.13     -2.56
   -2   13   41      1.14     -0.44
   -2   13   42      0.03      4.40
   -2   13   43     -1.50     -0.19
   -2   13   44     -1.72      0.59
   -2   13   45     -1.18      2.10
   -2   13   46      2.77      5.90
   -2   13   47      3.40     -0.27
   -2   13   48     -0.55      0.05
   -2   13   49     -1.07      0.20
   -1   13    0     -2.32     -0.11
   -1   13    1      1.16     -0.47
   -1   13    2     -0.26      0.34
   -1   13    3     -6.02      3.91
   -1   13    4      3.98      0.56
   -1   13    5     -0.71     -2.14
   -1   13    6      2.79     -0.04
   -1   13    7     -4.91      2.72
   -1   13    8     -1.55     -2.28
   -1   13    9      1.93      0.22
   -1   13   10      2.93     -2.53
   -1   13   11     -1.82     -1.30
   -1   13   12     -3.06     -0.34
   -1   13   13      4.06      3.52
   -1   13   14      2.24      0.35
   -1   13   15     -0.77      5.29
   -1   13   16      2.36     -5.24
   -1   13   17      0.11      1.47
   -1   13   18      0.47     -0.48
   -1   13   19      1.03      3.80
   -1   13   20      0.20      3.70
   -1   13   21     -1.67      0.71
   -1   13   22     -1.83     -0.05
   -1   13   23      1.14     -1.19
   -1   13   24     -0.51      1.89
   -1   13   25     -1.32      3.48
   -1   13   26      0.53      2.62
   -1   13   27     -1.84      1.21
   -1   13   28      0.06      3.21
   -1   13   29     -1.89      0.94
   -1   13   30     -0.38     -3.92
   -1   13   31     -0.01      3.04
   -1   13   32     -2.00     -3.57
   -1   13   33     -0.77     -4.70
   -1   13   34     -0.79     -1.42
   -1   13   35      4.73     -2.37
   -1   13   36     -0.92     -0.12
   -1   13   37      0.08     -1.94
   -1   13   38     -0.39     -0.75
   -1   13   39      1.23     -3.69
   -1   13   40      1.11     -2.17
   -1   13   41     -1.27     -5.99
   -1   13   42      1.22      1.75
   -1   13   43      2.00      1.16
   -1   13   44      0.58      4.01
   -1   13   45     -4.93     -2.36
   -1   13   46     -0.71      0.92
   -1   13   47      3.64      2.10
   -1   13   48     -2.78      0.53
    0   13    0      0.44      0.22
    0   13    1     -3.62      0.06
    0   13    2     -0.81     -0.11
    0   13    3      0.91     -0.40
    0   13    4     -4.76      0.58
    0   13    5      7.24      0.07
    0   13    6     -5.15      0.57
    0   13    7      2.53     -0.16
    0   13    8      0.59     -0.53
    0   13    9     -1.40     -0.99
    0   13   10      9.15     -0.77
    0   13   11     -0.31     -0.16
    0   13   12     -2.69     -0.08
    0   13   13     -0.56      0.02
    0   13   14      6.22      1.17
    0   13   15      3.36     -0.12
    0   13   16     -0.90     -0.14
    0   13   17     -2.68      1.24
    0   13   18     -1.23     -0.41
    0   13   19      0.02     -0.01
    0   13   20     -1.44     -0.16
    0   13   21     -2.35      0.08
    0   13   22     -1.10      0.65
    0   13   23     -3.14      0.24
    0   13   24     -0.40     -2.99
    0   13   25      0.73     -0.25
    0   13   26      0.74     -0.07
    0   13   27      2.40     -0.12
    0   13   28      4.63      0.00
    0   13   29      0.05      4.55
    0   13   30     -0.21      1.10
    0   13   31     -2.35      0.05
    0   13   32      3.98      0.52
    0   13   33     -0.02      2.00
    0   13   34      4.75      0.05
    0   13   35     -3.93     -1.57
    0   13   36      0.42     -1.53
    0   13   37      1.08     -0.41
    0   13   38     -3.52      0.96
    0   13   39      2.67      0.30
    0   13   40     -0.15     -0.63
    0   13   41     -0.61     -0.07
    0   13   42     -1.33      0.02
    0   13   43      3.48     -0.38
    0   13   44      1.10     -0.77
    0   13   45     -4.83     -0.28
    0   13   46     -2.02     -0.07
    0   13   47      0.65     -0.20
   -7   14    0      0.50     -0.27
   -7   14    1      0.02     -2.57
   -7   14    2      5.57      0.90
   -7   14    3     -1.04      3.90
   -7   14    4     -2.67      0.16
   -7   14    5      0.41      2.54
   -7   14    6     -5.14      0.91
   -7   14    7      1.08     -3.29
   -7   14    8     -1.33     -0.19
   -7   14    9      0.37     -2.79
   -7   14   10      4.53     -0.75
   -7   14   11     -0.17      0.76
   -7   14   13     -0.02      1.94
   -7   14   14      0.29     -0.03
   -7   14   15      0.33      3.87
   -7   14   16     -2.23      0.04
   -7   14   17     -0.20      1.78
   -7   14   18      0.61     -0.16
   -7   14   19     -0.02     -1.54
   -7   14   20      4.39     -0.03
   -7   14   21     -0.09     -2.15
   -7   14   22      5.90      0.16
   -7   14   23      0.72     -0.22
   -7   14   24      1.00      0.68
   -7   14   25      0.15      0.08
   -7   14   26     -2.95     -1.26
   -7   14   27      0.49     -1.90
   -7   14   28      0.46     -0.64
   -7   14   29     -0.42     -1.41
   -7   14   30      4.81      0.82
   -7   14   31      0.57     -0.82
   -7   14   32     -0.62     -0.50
   -7   14   33      0.36     -1.49
   -7   14   34      1.10     -0.02
   -7   14   35      0.67      1.31
   -7   14   36     -0.82      0.48
   -7   14   37      0.53     -2.57
   -7   14   38     -4.51      0.66
   -7   14   39     -0.94     -5.97
   -7   14   40     -0.02      0.15
   -7   14   41      0.20     -2.39
   -7   14   42      3.57     -0.39
   -7   14   43     -0.15      1.23
   -7   14   44      7.59      0.29
   -7   14   45     -0.12     -2.39
   -7   14   46     -3.87      0.04
   -7   14   47     -0.13     -1.48
   -7   14   48     -5.03      0.16
   -7   14   49      0.03     -4.16
   -6   14    0      1.40      0.15
   -6   14    1     -4.79     -4.13
   -6   14    2      5.59      2.00
   -6   14    3     -6.37      3.37
   -6   14    4     -3.97     -0.18
   -6   14    5      1.44     -1.62
   -6   14    6     -1.16     -1.33
   -6   14    7      6.56     -2.26
   -6   14    8     -0.52     -4.09
   -6   14    9      3.38     -4.54
   -6   14   10      3.40      1.85
   -6   14   11      0.28      2.40
   -6   14   12     -0.02      0.08
   -6   14   13     -0.48     -0.27
   -6   14   14      2.56     -2.52
   -6   14   15      0.56      0.58
   -6   14   16     -1.24      1.91
   -6   14   17      1.28     -0.09
   -6   14   18      0.37     -3.66
   -6   14   19      2.86     -0.32
   -6   14   20      2.74     -3.55
   -6   14   21     -0.26     -0.73
   -6   14   22     -2.45      2.93
   -6   14   23      0.63      0.48
   -6   14   24     -0.98     -3.75
   -6   14   25      0.64     -0.91
   -6   14   26      0.15      0.75
   -6   14   27     -0.56      2.43
   -6   14   28      1.17     -1.27
   -6   14   29      0.46     -0.55
   -6   14   30      3.39      2.36
   -6   14   31      0.44     -1.11
   -6   14   32      0.02      1.72
   -6   14   33      0.01     -0.42
   -6   14   34     -0.27      2.20
   -6   14   35     -2.55      1.79
   -6   14   36     -0.43     -0.87
   -6   14   37      2.31      2.21
   -6   14   38      6.71     -2.87
   -6   14   39      0.65     -1.71
   -6   14   40      1.23      4.45
   -6   14   41      1.92     -0.16
   -6   14   42      2.37      3.05
   -6   14   43      2.06      1.32
   -6   14   44     -2.18      2.43
   -6   14   45     -1.84      0.66
   -6   14   46      4.94      3.11
   -6   14   47     -2.77     -3.07
   -6   14   48      2.41      2.69
   -6   14   49     -1.91     -4.15
   -5   14    0      2.16      0.18
   -5   14    1     -0.05     -0.31
   -5   14    2      0.70     -3.61
   -5   14    3      4.01     -3.49
   -5   14    4     -6.54     -1.86
   -5   14    5      0.47     -3.75
   -5   14    6      2.02     -3.84
   -5   14    7      8.32     -4.35
   -5   14    8      1.93      2.71
   -5   14    9     -2.36     -2.95
   -5   14   10      2.44     -0.91
   -5   14   11     -1.53      5.64
   -5   14   12     -1.44     -1.76
   -5   14   13     -1.74     -3.41
   -5   14   14      2.34     -4.56
   -5   14   15      1.19     -2.47
   -5   14   16      4.19      5.04
   -5   14   17     -1.56     -2.22
   -5   14   18      1.12     -3.64
   -5   14   19      1.45      2.08
   -5   14   20     -1.01      0.43
   -5   14   21     -0.73      1.44
   -5   14   22     -3.33      0.19
   -5   14   23     -2.09      0.83
   -5   14   24     -1.48      2.82
   -5   14   25      1.56     -0.45
   -5   14   26      1.61     -2.16
   -5   14   27     -0.06      6.48
   -5   14   28      0.58     -1.94
   -5   14   29     -1.90      0.70
   -5   14   30     -0.21     -0.39
   -5   14   31     -2.65      1.13
   -5   14   32     -1.21     -1.52
   -5   14   33      1.22      2.69
   -5   14   34      2.38      0.64
   -5   14   35      6.35      0.17
   -5   14   36     -0.11     -1.34
   -5   14   37     -0.31      2.01
   -5   14   38      4.44     -0.58
   -5   14   39     -0.69     -1.28
   -5   14   40      0.01      1.83
   -5   14   41     -5.07     -0.39
   -5   14   42      0.33     -4.49
   -5   14   43      2.78      1.03
   -5   14   44     -2.10      2.42
   -5   14   45      0.63      1.61
   -5   14   46      1.73      1.16
   -5   14   47      1.66     -1.18
   -5   14   48      7.14      1.34
   -5   14   49     -1.80     -3.46
   -4   14    0     -1.50      0.17
   -4   14    1      0.32     -1.32
   -4   14    2      4.70     -2.64
   -4   14    3      0.02     -3.95
   -4   14    4     -1.31      3.16
   -4   14    5      1.24      9.02
   -4   14    6      2.51      3.08
   -4   14    7      1.53      0.34
   -4   14    8      0.19     -1.54
   -4   14    9      3.25      1.99
   -4   14   10     -3.54     -0.54
   -4   14   11      0.36     -2.96
   -4   14   12     -3.42     -0.18
   -4   14   13      0.42      2.09
   -4   14   14      1.32     -2.59
   -4   14   15      4.20      0.36
   -4   14   16     -0.95      1.40
   -4   14   17     -2.27      3.82
   -4   14   18     -0.12     -3.04
   -4   14   19     -0.54      1.31
   -4   14   20      1.50      3.01
   -4   14   21     -5.18      0.39
   -4   14   22      3.44     -0.83
   -4   14   23     -1.98     -0.33
   -4   14   24     -2.05      0.97
   -4   14   25     -0.02      1.50
   -4   14   26     -3.04     -3.20
   -4   14   27      0.07      1.05
   -4   14   28     -0.29      1.22
   -4   14   29     -1.46      2.81
   -4   14   30      0.94     -1.26
   -4   14   31     -2.61      2.08
   -4   14   32      1.68     -1.09
   -4   14   33     -2.38      2.92
   -4   14   34     -2.75      0.34
   -4   14   35      0.83     -1.91
   -4   14   36      2.43     -0.22
   -4   14   37     -0.50      1.65
   -4   14   38      6.07     -3.21
   -4   14   39      0.06     -4.03
   -4   14   40     -2.22     -3.00
   -4   14   41     -8.24     -0.31
   -4   14   42      1.54     -6.88
   -4   14   43      3.24     -0.34
   -4   14   44      9.02      3.68
   -4   14   45     -2.10     -4.01
   -4   14   46     -2.71     -8.60
   -4   14   47     -3.27     -2.94
   -4   14   48      0.29     -4.71
   -4   14   49      0.93     -2.09
   -3   14    0      3.27      0.10
   -3   14    1     -3.50      2.54
   -3   14    2      1.91      4.09
   -3   14    3      1.42      1.79
   -3   14    4     -5.22      2.86
   -3   14    5     -0.60     -3.05
   -3   14    6      0.10     -1.52
   -3   14    7      4.55     -4.09
   -3   14    8      2.92     -1.97
   -3   14    9      0.87     -0.06
   -3   14   10     -3.25      2.73
   -3   14   11     -1.87      0.75
   -3   14   12     -1.38      0.76
   -3   14   13     -4.18     -0.37
   -3   14   14     -4.26      0.81
   -3   14   15      1.03      0.18
   -3   14   16     -0.96     -0.93
   -3   14   17     -2.98     -2.60
   -3   14   18     -5.82      8.21
   -3   14   19     -1.06     -1.72
   -3   14   20     -1.56     -0.23
   -3   14   21     -0.04      0.22
   -3   14   22     -0.46     -1.70
   -3   14   23     -2.01      0.76
   -3   14   24     -1.16     -0.93
   -3   14   25     -0.50     -1.03
   -3   14   26     -0.24      0.66
   -3   14   27      0.79     -1.18
   -3   14   28     -1.14     -2.40
   -3   14   29      1.69     -2.29
   -3   14   30      1.28      4.19
   -3   14   31     -0.48     -1.30
   -3   14   32      3.65      1.31
   -3   14   33     -3.50     -0.40
   -3   14   34     -1.92     -1.07
   -3   14   35     -2.23     -3.05
   -3   14   36      2.16     -1.92
   -3   14   37     -1.23      0.24
   -3   14   38      6.27      1.85
   -3   14   39     -3.62      0.06
   -3   14   40     -0.40     -1.92
   -3   14   41     -1.95     -0.34
   -3   14   42     -1.75      4.06
   -3   14   43      1.51      2.74
   -3   14   44      5.34      0.83
   -3   14   45     -1.09      2.36
   -3   14   46      2.98     -0.40
   -3   14   47     -1.73     -0.26
   -3   14   48      0.23     -0.08
   -2   14    0     -2.33      0.47
   -2   14    1     -0.72     -2.02
   -2   14    2     -0.94     -1.68
   -2   14    3      3.82      1.54
   -2   14    4      2.41      1.91
   -2   14    5     -7.71      0.22
   -2   14    6     -2.00     -6.36
   -2   14    7     -3.83      2.94
   -2   14    8      1.92     -0.03
   -2   14    9     -2.53      1.91
   -2   14   10     -2.47     -0.01
   -2   14   11     -0.13     -3.59
   -2   14   12     -1.12      2.93
   -2   14   13     -1.62     -1.36
   -2   14   14      1.33      1.87
   -2   14   15      1.45      4.40
   -2   14   16      2.89     -1.60
   -2   14   17      0.32     -1.99
   -2   14   18     -0.61     -0.91
   -2   14   19     -0.29      0.89
   -2   14   20     -0.09     -0.07
   -2   14   22      1.20     -0.16
   -2   14   23      2.73     -0.61
   -2   14   24     -0.28      0.80
   -2   14   25     -2.73     -1.61
   -2   14   26     -1.39     -2.18
   -2   14   27      1.27      0.20
   -2   14   28     -0.43      0.90
   -2   14   29     -1.78     -2.28
   -2   14   30     -2.42     -0.87
   -2   14   31      1.28     -1.52
   -2   14   32     -2.18      2.08
   -2   14   33     -0.19      0.42
   -2   14   34     -5.20     -3.60
   -2   14   35      4.30     -3.41
   -2   14   36      0.28      3.30
   -2   14   37      3.21     -0.41
   -2   14   38      1.55     -0.62
   -2   14   39     -3.22     -2.06
   -2   14   40     -0.64      0.52
   -2   14   41      3.26     -0.12
   -2   14   42     -0.87      3.57
   -2   14   43     -2.26      0.88
   -2   14   44      2.63     -1.56
   -2   14   45     -1.22      0.91
   -2   14   46      0.50      3.24
   -2   14   47      1.24      1.23
   -2   14   48      1.25      1.76
   -1   14    0     -2.99      0.48
   -1   14    1      0.71      2.57
   -1   14    2      1.06     -0.30
   -1   14    3     -2.66      3.97
   -1   14    4      3.26      3.21
   -1   14    5      1.65      1.49
   -1   14    6      0.58     -1.21
   -1   14    7      4.79     -1.60
   -1   14    8      2.58     -3.25
   -1   14    9      2.22      5.90
   -1   14   10     -1.44     -1.65
   -1   14   11     -1.20     -1.86
   -1   14   12     -0.74      0.55
   -1   14   13     -0.42      2.81
   -1   14   14      0.44      1.17
   -1   14   15      0.21      0.93
   -1   14   16      4.07     -0.69
   -1   14   17     -0.88     -3.64
   -1   14   18      0.68      1.79
   -1   14   19     -1.53      1.49
   -1   14   20     -1.26      0.59
   -1   14   22      1.84      0.05
   -1   14   23      0.92      0.67
   -1   14   24      0.31     -2.41
   -1   14   25      0.02      0.13
   -1   14   26     -1.53     -1.52
   -1   14   27      0.54      3.25
   -1   14   28     -0.11     -0.20
   -1   14   29     -2.74      0.93
   -1   14   30     -2.24     -4.87
   -1   14   31     -0.07     -2.02
   -1   14   32     -2.11     -2.88
   -1   14   33      1.16     -2.39
   -1   14   34      1.08      0.54
   -1   14   35      2.20     -2.27
   -1   14   36     -0.01      4.38
   -1   14   37     -1.02      0.18
   -1   14   38      0.59     -0.62
   -1   14   39     -1.54     -0.75
   -1   14   40      0.35      0.43
   -1   14   41     -1.28      0.53
   -1   14   42     -0.13      1.15
   -1   14   43     -1.27     -1.21
   -1   14   44     -2.43      1.61
   -1   14   45     -1.90     -3.32
   -1   14   46     -1.05     -1.61
   -1   14   47     -0.20      2.75
    0   14    0     -0.35     -0.28
    0   14    1     -1.55     -0.35
    0   14    2      4.47      0.10
    0   14    3      2.98     -0.35
    0   14    4      2.33      0.09
    0   14    5     -1.84      0.37
    0   14    6     -1.60     -0.11
    0   14    7      1.94      0.10
    0   14    8     -0.25     -0.01
    0   14    9     -1.71      0.74
    0   14   10     -2.85     -0.19
    0   14   11      3.03      0.43
    0   14   12      3.82     -0.04
    0   14   13      5.46     -0.55
    0   14   14     -0.75      0.65
    0   14   15      1.06      0.20
    0   14   16      0.11      0.05
    0   14   17     -2.50      0.39
    0   14   18     -2.37     -0.31
    0   14   19      0.82     -0.27
    0   14   20     -0.71     -0.12
    0   14   21     -0.18      0.97
    0   14   22     -0.23      0.52
    0   14   23     -2.49     -0.46
    0   14   24      0.71     -0.10
    0   14   25      1.12      0.25
    0   14   26     -4.39     -0.19
    0   14   27      3.30     -0.39
    0   14   28     -0.17      0.29
    0   14   29     -0.11      1.02
    0   14   30      2.36     -1.26
    0   14   31      0.85     -0.58
    0   14   32      4.21      0.76
    0   14   33      4.55      6.86
    0   14   34      1.36      0.59
    0   14   35     -1.35     -0.24
    0   14   36      1.78      0.45
    0   14   37     -0.77      0.31
    0   14   38      0.20      0.14
    0   14   39     -0.71     -0.98
    0   14   40      2.55      0.63
    0   14   41     -5.31      0.50
    0   14   42      1.41      0.52
    0   14   43     -3.31     -1.60
    0   14   44     -4.38     -0.06
    0   14   45     -1.30      0.06
    0   14   46      5.16      0.01
    0   14   47     -2.00      0.12
   -7   15    0     -0.41      0.04
   -7   15    1     -1.54     -3.00
   -7   15    2     -0.30      1.65
   -7   15    3     -1.16      1.94
   -7   15    4      7.26     -1.77
   -7   15    5     -0.78     -1.00
   -7   15    6     -0.30      0.03
   -7   15    7     -2.85     -1.33
   -7   15    8      0.05     -1.48
   -7   15    9     -0.54      2.36
   -7   15   10     -1.55      2.19
   -7   15   11      2.65      2.71
   -7   15   12     -0.90      2.30
   -7   15   13     -1.90     -0.36
   -7   15   14      1.44      0.43
   -7   15   15      1.68      1.87
   -7   15   16     -3.62     -1.18
   -7   15   17      3.09      3.72
   -7   15   18      0.67     -2.14
   -7   15   19     -0.44     -0.17
   -7   15   20      4.10     -2.95
   -7   15   21     -1.04     -4.90
   -7   15   22     -1.73     -0.90
   -7   15   23      2.55     -1.83
   -7   15   24      4.22     -3.38
   -7   15   25      1.88      0.51
   -7   15   26      0.01     -0.79
   -7   15   27      1.03      1.42
   -7   15   28      1.12      0.88
   -7   15   29     -1.68     -0.26
   -7   15   30      0.14     -2.22
   -7   15   31      1.16     -2.03
   -7   15   32      3.43     -0.63
   -7   15   33      1.59      2.07
   -7   15   34     -1.50      2.01
   -7   15   35      1.24     -0.02
   -7   15   36      0.45      0.47
   -7   15   37      3.17      0.77
   -7   15   38     -6.70      1.90
   -7   15   39      0.34     -2.44
   -7   15   40      2.71      2.09
   -7   15   41     -2.40     -2.63
   -7   15   42      2.15      3.48
   -7   15   43      2.08      3.96
   -7   15   44      1.31     -0.82
   -7   15   45      0.38      3.86
   -7   15   46      1.91     -1.23
   -7   15   47     -0.24      0.25
   -7   15   48     -2.13     -0.99
   -6   15    0     -2.09     -0.20
   -6   15    1      5.17     -6.46
   -6   15    2     -0.22     -0.80
   -6   15    3     -1.28     -1.99
   -6   15    4      4.58     -1.39
   -6   15    5     -0.10      1.06
   -6   15    6     -2.98      0.80
   -6   15    7     -1.17     -0.89
   -6   15    8     -1.53      1.61
   -6   15    9     -0.48      2.52
   -6   15   10     -2.43      2.75
   -6   15   11      1.86     -1.33
   -6   15   12     -6.61     -0.70
   -6   15   13      2.71     -5.90
   -6   15   14     -0.85     -2.41
   -6   15   15     -0.32     -0.56
   -6   15   16     -1.07      0.70
   -6   15   17     -1.60      6.17
   -6   15   18     -1.13      1.93
   -6   15   19     -0.34     -3.30
   -6   15   20     -0.97     -1.36
   -6   15   21     -0.54      1.38
   -6   15   22     -2.91     -1.51
   -6   15   23      0.48      0.07
   -6   15   24      0.07      1.30
   -6   15   25      1.01     -0.33
   -6   15   26      0.65      0.47
   -6   15   27      0.56      3.14
   -6   15   28     -0.70     -2.02
   -6   15   29      1.46      0.71
   -6   15   30     -1.17     -1.04
   -6   15   31     -0.57     -2.00
   -6   15   32      6.86      0.51
   -6   15   33      0.40      3.65
   -6   15   34      0.49      0.39
   -6   15   35     -4.24     -0.75
   -6   15   36     -0.37     -5.65
   -6   15   37     -0.23      2.49
   -6   15   38      0.93      3.03
   -6   15   39     -1.17      2.23
   -6   15   40      3.15      3.02
   -6   15   41      5.70     -1.57
   -6   15   42     -0.93      4.18
   -6   15   43      3.29      0.05
   -6   15   44      0.36      1.71
   -6   15   45      1.17      4.29
   -6   15   46      4.80      3.02
   -6   15   47     -0.93     -0.92
   -6   15   48      2.22      3.68
   -5   15    0     -3.35     -0.06
   -5   15    1      8.22     -0.62
   -5   15    2      2.27     -2.20
   -5   15    3      2.72     -4.85
   -5   15    4      2.32      4.36
   -5   15    5      3.24     -2.95
   -5   15    6     -1.50     -0.04
   -5   15    7     -2.19     -1.84
   -5   15    8      2.67     -5.44
   -5   15    9      1.51     -0.98
   -5   15   10      3.49     -2.43
   -5   15   11     -0.84      1.58
   -5   15   12      0.50     -0.13
   -5   15   13      2.38     -0.97
   -5   15   14     -1.49      2.03
   -5   15   15      2.30     -0.32
   -5   15   16      2.77      0.75
   -5   15   17     -1.14     -1.65
   -5   15   18     -0.67     -0.68
   -5   15   19      2.28     -3.04
   -5   15   20     -1.20     -1.75
   -5   15   21     -0.74      3.62
   -5   15   22      1.12     -0.01
   -5   15   23     -1.71     -2.10
   -5   15   24     -0.62      2.37
   -5   15   25      0.72      0.69
   -5   15   26     -0.73     -0.62
   -5   15   27     -0.58      2.93
   -5   15   28      0.54     -2.28
   -5   15   29     -0.63     -0.31
   -5   15   30     -0.97      1.53
   -5   15   31     -2.79      1.29
   -5   15   32     -1.34     -2.10
   -5   15   33      1.11      1.64
   -5   15   34      0.60      0.38
   -5   15   35      0.31     -0.41
   -5   15   36      3.36     -5.79
   -5   15   37      2.51      2.13
   -5   15   38      5.48      2.05
   -5   15   39      2.09     -0.69
   -5   15   40      0.17     -3.74
   -5   15   41     -0.18      1.39
   -5   15   42     -0.50     -0.25
   -5   15   43      2.83     -1.55
   -5   15   44     -3.98     -0.27
   -5   15   45      1.06     -3.10
   -5   15   46     -4.46     -0.54
   -5   15   47     -0.53      2.13
   -5   15   48     -1.73      0.41
   -4   15    0     -1.69     -0.14
   -4   15    1      5.46      0.94
   -4   15    2      7.02     -8.15
   -4   15    3      0.59     -0.81
   -4   15    4      0.12      2.32
   -4   15    5      9.09     -3.00
   -4   15    6     -0.60      0.77
   -4   15    7      0.02     -1.22
   -4   15    8     -3.27      1.05
   -4   15    9     -1.40     -0.01
   -4   15   10     -3.48      0.97
   -4   15   11     -2.71      1.05
   -4   15   12     -2.88     -1.21
   -4   15   13      0.02      3.72
   -4   15   14     -1.13     -3.91
   -4   15   15      0.27      1.21
   -4   15   16     -2.78      1.36
   -4   15   17     -1.36     -1.67
   -4   15   18      1.96      1.79
   -4   15   19      1.39      3.48
   -4   15   20      0.19     -0.01
   -4   15   21     -1.30      2.18
   -4   15   22      2.25      2.66
   -4   15   23      0.27     -0.50
   -4   15   24     -1.95     -4.03
   -4   15   25      0.23      0.32
   -4   15   26     -3.82     -1.22
   -4   15   27     -1.67      2.05
   -4   15   28     -1.08     -0.98
   -4   15   29      0.27     -1.32
   -4   15   30      0.43     -0.87
   -4   15   31      0.31      1.54
   -4   15   32     -0.06      2.89
   -4   15   33     -2.23     -6.57
   -4   15   34     -0.24      1.30
   -4   15   35     -1.46     -0.94
   -4   15   36      1.22     -2.35
   -4   15   37      2.76     -0.32
   -4   15   38      4.22     -1.07
   -4   15   39      0.42      1.60
   -4   15   40     -0.40     -3.41
   -4   15   41     -3.32     -0.68
   -4   15   42      2.61      2.34
   -4   15   43     -1.42      3.01
   -4   15   44      3.72      3.25
   -4   15   45      0.89     -4.62
   -4   15   46     -4.75     -4.52
   -4   15   47     -3.76      6.16
   -3   15    0     -4.40     -0.09
   -3   15    1      0.58     -1.26
   -3   15    2     -1.68      2.24
   -3   15    3     -0.82      0.08
   -3   15    4     -6.87      0.18
   -3   15    5     -1.28      1.00
   -3   15    6     -2.81     -0.80
   -3   15    7     -1.54      0.21
   -3   15    8      0.68     -0.68
   -3   15    9     -5.49      1.99
   -3   15   10     -3.19     -0.20
   -3   15   11      1.56      0.71
   -3   15   12      1.96      2.83
   -3   15   13      0.49     -0.07
   -3   15   14     -0.41     -0.46
   -3   15   15      1.90     -0.62
   -3   15   16     -2.20      2.66
   -3   15   17     -1.31      3.87
   -3   15   18     -2.60     -2.68
   -3   15   19     -0.60     -0.06
   -3   15   20     -0.50     -2.41
   -3   15   21      1.72      0.80
   -3   15   22      2.69      0.43
   -3   15   23      0.69      1.29
   -3   15   24     -0.44      0.32
   -3   15   25      3.64     -4.18
   -3   15   26     -0.25     -1.37
   -3   15   27      0.35      2.30
   -3   15   28      1.04      1.90
   -3   15   29      1.66      0.57
   -3   15   30     -1.08     -0.20
   -3   15   31      0.92      0.33
   -3   15   32     -0.42      0.12
   -3   15   33      0.72      1.48
   -3   15   34      0.91     -0.89
   -3   15   35     -3.71     -2.75
   -3   15   36     -2.78      3.80
   -3   15   37      0.21     -0.39
   -3   15   38     -0.51     -3.38
   -3   15   39      2.28      3.84
   -3   15   40     -4.13      0.61
   -3   15   41      2.46      2.22
   -3   15   42     -0.22     -1.61
   -3   15   43     -2.71      3.08
   -3   15   44      3.15      0.56
   -3   15   45      3.52      3.77
   -3   15   46      1.18      1.67
   -3   15   47     -0.49      3.92
   -2   15    0      0.63      0.22
   -2   15    1      3.64      1.30
   -2   15    2     -1.97     -1.61
   -2   15    3      1.74      0.52
   -2   15    4     -5.14     -0.39
   -2   15    5     -2.57     -1.64
   -2   15    6      0.39      3.37
   -2   15    7      1.37      3.44
   -2   15    8      0.30     -0.72
   -2   15    9     -2.15      2.81
   -2   15   10     -0.69     -1.03
   -2   15   11      0.64      1.39
   -2   15   12     -0.34     -1.04
   -2   15   13     -2.86     -0.37
   -2   15   14     -0.36      0.48
   -2   15   15     -2.19     -1.96
   -2   15   16     -1.39      0.18
   -2   15   17     -0.58      2.41
   -2   15   18      0.77     -1.47
   -2   15   19     -2.04     -0.43
   -2   15   20      3.04      0.54
   -2   15   21     -1.59     -0.38
   -2   15   22      4.45      1.17
   -2   15   23      1.80     -0.30
   -2   15   24     -1.18     -1.71
   -2   15   25     -0.98     -1.49
   -2   15   26      2.56     -2.60
   -2   15   27     -0.73      1.61
   -2   15   28     -3.28      2.89
   -2   15   29     -0.07     -0.05
   -2   15   30     -2.50     -1.55
   -2   15   31      2.65      2.05
   -2   15   32     -4.55     -0.66
   -2   15   33     -1.33      2.06
   -2   15   34     -1.28     -0.11
   -2   15   35     -0.87      0.73
   -2   15   36     -1.38      6.39
   -2   15   37      0.10      1.14
   -2   15   38     -1.38     -1.54
   -2   15   39      1.13     -0.62
   -2   15   40      1.22     -0.05
   -2   15   41      3.07      4.07
   -2   15   42     -2.29     -2.82
   -2   15   43     -1.65     -1.91
   -2   15   44      0.59     -4.96
   -2   15   45      3.36      1.34
   -2   15   46      1.54      1.99
   -2   15   47      0.99     -2.70
   -1   15    0     -1.40     -0.33
   -1   15    1     -1.76      1.33
   -1   15    2     -1.43     -1.44
   -1   15    3     -5.08      1.36
   -1   15    4      1.78     -0.83
   -1   15    5     -1.03      1.40
   -1   15    6      2.85     -0.47
   -1   15    7      4.79     -1.11
   -1   15    8     -0.13      0.93
   -1   15    9      2.38     -0.39
   -1   15   10     -3.34     -1.39
   -1   15   11      0.36     -1.10
   -1   15   12      1.13     -2.63
   -1   15   13     -2.16     -0.62
   -1   15   14     -2.74     -1.79
   -1   15   15     -2.84     -0.82
   -1   15   16      0.48      0.44
   -1   15   17     -3.20     -0.35
   -1   15   18      0.29      0.54
   -1   15   19     -1.58      0.88
   -1   15   20      1.78     -0.07
   -1   15   21     -0.58      0.99
   -1   15   22      0.16     -2.03
   -1   15   23      0.19      0.98
   -1   15   24      0.26     -1.67
   -1   15   25     -1.19      0.15
   -1   15   26      0.35      4.72
   -1   15   27     -0.77     -4.40
   -1   15   28     -3.15      0.28
   -1   15   29      0.65      0.17
   -1   15   30     -0.51     -4.96
   -1   15   31      1.61     -2.50
   -1   15   32     -3.15      1.10
   -1   15   33     -0.09     -1.74
   -1   15   34      1.83     -1.07
   -1   15   35      1.12     -6.14
   -1   15   36     -0.86      2.46
   -1   15   37     -0.54     -2.19
   -1   15   38      3.41      0.87
   -1   15   39     -0.10      4.31
   -1   15   40      2.53     -2.70
   -1   15   41     -5.97     -1.68
   -1   15   42     -0.44      3.13
   -1   15   43      1.36      2.52
   -1   15   44     -4.56     -0.40
   -1   15   45      0.14      0.78
   -1   15   46      5.96      0.58
    0   15    0     -5.44      0.28
    0   15    1     -0.96      0.27
    0   15    2      2.80      0.18
    0   15    3      2.26      0.19
    0   15    4      1.82     -0.47
    0   15    5     -0.51     -0.28
    0   15    6      1.41      0.11
    0   15    7     -5.31     -0.23
    0   15    8     -2.62     -0.72
    0   15    9     -2.03     -0.11
    0   15   10     -5.42      0.36
    0   15   11     -2.39     -0.50
    0   15   12     -1.00     -0.17
    0   15   13     -0.69      0.05
    0   15   14     -0.32     -0.29
    0   15   15      2.81      2.73
    0   15   16      0.76     -0.23
    0   15   17     -0.08     -0.17
    0   15   18     -1.72      0.27
    0   15   19      1.34      0.16
    0   15   20      1.97      0.15
    0   15   21     -1.56      0.26
    0   15   22      0.29      0.60
    0   15   23      1.33      0.08
    0   15   24      0.53      0.40
    0   15   25     -0.77      0.00
    0   15   26     -1.53     -0.41
    0   15   27      1.36     -0.10
    0   15   28     -4.55     -0.45
    0   15   29     -1.78     -0.32
    0   15   30      2.85     -0.73
    0   15   31      2.35     -0.50
    0   15   32      0.08      0.52
    0   15   33      2.09      2.15
    0   15   34     -0.91     -0.21
    0   15   35      4.68     -0.92
    0   15   36      0.82      0.93
    0   15   37      1.81     -0.27
    0   15   38      2.85      0.10
    0   15   39     -1.39      0.07
    0   15   40      1.78      2.84
    0   15   41     -5.53      1.64
    0   15   42     -1.03     -0.24
    0   15   43      6.13     -1.08
    0   15   44      3.55      0.20
    0   15   45      1.55     -0.40
    0   15   46      3.34     -0.73
   -8   16    0     -2.69      0.01
   -8   16    1      0.04     -1.99
   -8   16    2      1.88     -0.19
   -8   16    3      0.49     -1.12
   -8   16    4      2.00     -0.16
   -8   16    5      0.27     -3.38
   -8   16    6      1.69      0.01
   -8   16    7      0.48      2.51
   -8   16    8      1.83     -0.42
   -8   16    9     -0.61      1.05
   -8   16   10     -1.95      0.29
   -8   16   11     -0.38     -0.13
   -8   16   12     -0.02     -0.16
   -8   16   13     -0.01     -3.61
   -8   16   14      1.52      0.01
   -8   16   16      3.71      0.04
   -8   16   17      0.06     -3.40
   -8   16   18      0.39     -0.29
   -8   16   19      0.51      0.17
   -8   16   20     -0.23      0.89
   -8   16   21      0.14      0.24
   -8   16   22     -1.23     -0.26
   -8   16   23      0.03     -2.49
   -8   16   24      0.07      0.36
   -8   16   25     -0.32      1.66
   -8   16   26      2.12     -0.18
   -8   16   27      0.05      1.64
   -8   16   28      1.92      0.12
   -8   16   29      0.35     -2.40
   -8   16   30     -3.97      0.35
   -8   16   31      0.16     -0.54
   -8   16   32      1.92     -0.37
   -8   16   33     -0.16     -3.04
   -8   16   34     -2.84      0.04
   -8   16   35     -0.14     -0.50
   -8   16   36      2.26      0.41
   -8   16   37      0.25      2.32
   -8   16   38     -5.74      0.36
   -8   16   39      0.15     -0.82
   -8   16   40      2.33     -0.29
   -8   16   41     -0.05     -3.23
   -8   16   42     -0.86     -0.53
   -8   16   43     -0.09     -0.47
   -8   16   44     -3.97      0.16
   -8   16   45      0.15     -1.26
   -8   16   46     -0.46      0.22
   -8   16   47      1.02      7.97
   -7   16    0     -1.85      0.37
   -7   16    1      0.38      0.03
   -7   16    2      2.22     -1.16
   -7   16    3      4.95      2.55
   -7   16    4     -0.53      0.72
   -7   16    5     -0.69      3.94
   -7   16    6      0.84      7.27
   -7   16    7     -3.04     -1.46
   -7   16    8     -2.67     -0.27
   -7   16    9     -2.50     -0.98
   -7   16   10     -3.86     -3.39
   -7   16   11      5.86     -3.33
   -7   16   12     -2.95     -2.30
   -7   16   13      3.32      0.11
   -7   16   14     -0.46      2.71
   -7   16   15      0.94      4.20
   -7   16   16     -1.92      1.17
   -7   16   17      1.80      3.06
   -7   16   18     -0.46     -1.00
   -7   16   19     -2.96     -1.97
   -7   16   20     -1.36     -1.64
   -7   16   21     -0.67      2.00
   -7   16   22     -0.08      0.93
   -7   16   23      3.73     -0.36
   -7   16   24      0.69     -1.45
   -7   16   25      0.33      2.02
   -7   16   26      2.02     -0.72
   -7   16   27      0.55      0.52
   -7   16   28     -0.73     -0.42
   -7   16   29      0.38     -0.76
   -7   16   30     -3.66     -7.01
   -7   16   31      2.55     -0.49
   -7   16   32     -0.77      0.30
   -7   16   33      0.43     -2.20
   -7   16   34     -1.22      0.95
   -7   16   35      0.63     -4.49
   -7   16   36      1.26      3.48
   -7   16   37      3.86      1.44
   -7   16   38     -0.11      3.81
   -7   16   39     -0.46      0.30
   -7   16   40      1.79     -0.38
   -7   16   41     -2.95     -0.70
   -7   16   42      1.13      2.51
   -7   16   43      3.14     -0.92
   -7   16   44      0.40     -0.04
   -7   16   45      2.18      3.09
   -7   16   46      0.30     -0.46
   -7   16   47      0.43      1.20
   -6   16    0      3.87      0.03
   -6   16    1     -2.06     -1.00
   -6   16    2      1.42     -2.58
   -6   16    3     -2.65      2.46
   -6   16    4     -2.62     -0.62
   -6   16    5      2.18      5.30
   -6   16    6      0.20      0.16
   -6   16    7      0.38     -1.28
   -6   16    8     -0.84     -1.25
   -6   16    9      0.31      0.57
   -6   16   10      2.48      1.81
   -6   16   11      2.54     -2.65
   -6   16   12      0.98     -0.42
   -6   16   13      4.64      0.97
   -6   16   14     -0.11      1.18
   -6   16   15     -2.37      1.17
   -6   16   16      1.03     -0.34
   -6   16   17     -2.27      0.66
   -6   16   18     -0.40      3.20
   -6   16   19      0.11     -5.36
   -6   16   20     -2.91     -1.83
   -6   16   21      1.39     -1.48
   -6   16   22     -2.21      4.51
   -6   16   23      1.70      0.02
   -6   16   24      0.15      0.18
   -6   16   25      1.16     -0.06
   -6   16   26     -2.43     -0.02
   -6   16   27     -0.71     -3.18
   -6   16   28      0.60     -0.23
   -6   16   29     -1.04      0.32
   -6   16   30     -0.12      2.10
   -6   16   31      0.89      1.55
   -6   16   32      0.17      1.15
   -6   16   33     -0.29      5.92
   -6   16   34      0.43     -0.75
   -6   16   35     -2.55     -4.69
   -6   16   36      1.42      0.05
   -6   16   37      0.67      2.12
   -6   16   38     -1.40      4.34
   -6   16   39      0.38      0.70
   -6   16   40     -1.04      0.34
   -6   16   41      1.48     -0.75
   -6   16   42     -2.76      0.18
   -6   16   43      3.13      1.96
   -6   16   44     -3.66     -3.00
   -6   16   45     -2.61      1.61
   -6   16   46     -0.54      3.29
   -6   16   47     -0.29      0.45
   -5   16    0      0.79      0.03
   -5   16    1     -1.20      3.76
   -5   16    2      5.89     -0.47
   -5   16    3      0.16     -1.48
   -5   16    4     -3.77      1.21
   -5   16    5      1.33     -2.06
   -5   16    6     -0.98     -3.73
   -5   16    7      2.07     -0.69
   -5   16    8     -1.59     -2.62
   -5   16    9     -1.66     -3.39
   -5   16   10      3.57      2.62
   -5   16   11      2.14      2.38
   -5   16   12     -0.38      4.66
   -5   16   13     -2.53      1.09
   -5   16   14     -0.38      1.20
   -5   16   15      0.23      1.13
   -5   16   16      1.91     -0.33
   -5   16   17      2.41      3.26
   -5   16   18     -0.94     -0.92
   -5   16   19      1.29      2.34
   -5   16   20     -0.72     -0.76
   -5   16   21     -1.04     -3.99
   -5   16   22     -4.10      1.44
   -5   16   23      0.01      2.25
   -5   16   24     -0.53     -3.62
   -5   16   25      0.31      0.05
   -5   16   26     -3.42     -0.88
   -5   16   27     -0.24      2.56
   -5   16   28     -2.88     -0.70
   -5   16   29     -0.53      0.11
   -5   16   30     -2.00      3.50
   -5   16   31      0.81      1.22
   -5   16   32     -4.88     -1.30
   -5   16   33     -1.49     -0.45
   -5   16   34     -1.66      0.61
   -5   16   35     -0.87      1.01
   -5   16   36      0.60      1.91
   -5   16   37      3.56      2.79
   -5   16   38      1.91      1.86
   -5   16   39      0.08     -2.85
   -5   16   40     -0.86     -0.19
   -5   16   41     -1.35     -1.74
   -5   16   42     -2.48      0.03
   -5   16   43      1.83      1.03
   -5   16   44     -6.88      2.54
   -5   16   45      3.07      0.26
   -5   16   46     -3.91     -1.75
   -5   16   47     -1.83      3.86
   -4   16    0     -1.32     -0.32
   -4   16    1      0.47     -3.22
   -4   16    2     -2.66      4.34
   -4   16    3     -2.21     -0.65
   -4   16    4      2.93     -1.98
   -4   16    5      0.12     -0.86
   -4   16    6     -2.10     -4.62
   -4   16    7      2.41      0.22
   -4   16    8     -0.36      2.29
   -4   16    9     -1.56      2.60
   -4   16   10     -0.03      0.55
   -4   16   11      0.10      3.86
   -4   16   12     -2.68      4.39
   -4   16   13      3.16      0.91
   -4   16   14     -1.85     -1.50
   -4   16   15     -2.48     -0.76
   -4   16   16     -0.41      0.39
   -4   16   17      0.93      4.74
   -4   16   18      0.62     -2.99
   -4   16   19      0.22      1.83
   -4   16   20     -2.12     -0.02
   -4   16   21      0.59      2.40
   -4   16   22      0.05     -2.17
   -4   16   23      1.54      1.41
   -4   16   24     -2.58      1.13
   -4   16   25      0.46      2.51
   -4   16   26     -2.54      0.84
   -4   16   27     -0.55      0.98
   -4   16   28      0.87     -1.15
   -4   16   29     -1.03      1.31
   -4   16   30     -1.78     -1.71
   -4   16   31      0.33      3.59
   -4   16   32     -2.64      1.20
   -4   16   33     -0.21      1.90
   -4   16   34     -1.33      0.17
   -4   16   35     -2.46     -1.16
   -4   16   36     -2.96      4.34
   -4   16   37     -1.59     -0.03
   -4   16   38     -1.11     -1.56
   -4   16   39     -2.40     -4.41
   -4   16   40      1.55      2.29
   -4   16   41     -1.89     -0.58
   -4   16   42      2.32      1.45
   -4   16   43     -1.63     -2.81
   -4   16   44      3.13      6.87
   -4   16   45      2.62      4.88
   -4   16   46     -4.27     -0.46
   -3   16    0     -0.06      0.07
   -3   16    1     -0.79      1.72
   -3   16    2     -2.54      4.76
   -3   16    3     -1.52      0.32
   -3   16    4     -3.36      0.54
   -3   16    5     -3.56     -2.74
   -3   16    6     -0.78      2.12
   -3   16    7      0.77     -3.03
   -3   16    8      0.66     -1.80
   -3   16    9     -1.68      0.59
   -3   16   10      2.74     -1.11
   -3   16   11      1.62      4.42
   -3   16   12     -0.27      0.39
   -3   16   13      0.20      0.24
   -3   16   14      0.05      1.11
   -3   16   15      0.93     -1.85
   -3   16   16     -0.03      0.27
   -3   16   17     -0.01      0.61
   -3   16   19      2.04      0.87
   -3   16   20     -1.17     -0.39
   -3   16   21     -0.81      1.45
   -3   16   22      1.91      1.14
   -3   16   23      0.11     -0.96
   -3   16   24     -0.20      0.75
   -3   16   25      1.95     -2.06
   -3   16   26      1.82     -0.53
   -3   16   27      2.43      3.47
   -3   16   28      3.81      1.72
   -3   16   29     -1.41      3.87
   -3   16   30     -0.75      5.76
   -3   16   31     -0.55      2.28
   -3   16   32      0.86     -3.36
   -3   16   33      2.70      5.69
   -3   16   34      0.41     -0.15
   -3   16   35     -2.99     -0.18
   -3   16   36     -1.55     -0.97
   -3   16   37      1.16      0.85
   -3   16   38     -3.18      0.45
   -3   16   39      0.93     -0.69
   -3   16   40     -0.42     -1.58
   -3   16   41      4.90      1.57
   -3   16   42      3.39     -0.76
   -3   16   43     -3.54     -4.43
   -3   16   44      4.96     -1.21
   -3   16   45     -0.10      1.85
   -3   16   46     -1.65      6.00
   -2   16    0     -2.81      0.38
   -2   16    1     -3.61     -0.24
   -2   16    2     -5.83     -1.73
   -2   16    3      0.82      0.87
   -2   16    4      0.63     -1.93
   -2   16    5     -0.13     -2.16
   -2   16    6      0.55     -0.48
   -2   16    7      3.49     -0.37
   -2   16    8      1.51      0.11
   -2   16    9      0.37      0.56
   -2   16   10     -0.90      2.47
   -2   16   11      1.30      0.49
   -2   16   12     -0.27     -1.77
   -2   16   13      2.76      0.85
   -2   16   14     -1.67     -1.59
   -2   16   15     -2.50     -2.82
   -2   16   16     -0.96     -0.38
   -2   16   17     -3.87     -3.04
   -2   16   18      0.97      0.33
   -2   16   19     -4.58      0.26
   -2   16   20      1.85      3.32
   -2   16   21      0.31      0.95
   -2   16   22      1.00      0.29
   -2   16   23      1.99      1.27
   -2   16   24     -0.61      1.80
   -2   16   25     -0.61      2.12
   -2   16   26      1.20      0.98
   -2   16   27     -1.64     -1.74
   -2   16   28      1.13      0.70
   -2   16   29      1.21      0.23
   -2   16   30     -0.24      2.59
   -2   16   31     -1.05      0.95
   -2   16   32     -3.89     -3.62
   -2   16   33     -0.82     -1.44
   -2   16   34      1.96      1.94
   -2   16   35      1.03     -0.17
   -2   16   36     -3.09     -3.52
   -2   16   37      0.32      0.17
   -2   16   38     -5.55      3.79
   -2   16   39      2.01      1.12
   -2   16   40      3.71      0.85
   -2   16   41      0.30     -3.00
   -2   16   42      1.97      1.96
   -2   16   43      0.39      3.02
   -2   16   44     -1.44     -0.31
   -2   16   45     -1.45     -0.49
   -1   16    0     -3.03      0.32
   -1   16    1     -3.81      3.01
   -1   16    2     -0.88      0.36
   -1   16    3     -2.78     -4.94
   -1   16    4     -0.97      0.80
   -1   16    5      1.66      1.78
   -1   16    6     -0.66     -4.77
   -1   16    7      2.57     -0.47
   -1   16    8      0.39     -0.82
   -1   16    9      1.35      5.44
   -1   16   10      2.36     -0.18
   -1   16   11     -0.43      0.53
   -1   16   12      0.18     -0.57
   -1   16   13      0.08      0.56
   -1   16   14      1.70     -3.26
   -1   16   15      0.57      1.87
   -1   16   16     -1.79     -1.79
   -1   16   17     -0.01      1.64
   -1   16   18      0.10     -2.45
   -1   16   19     -0.74     -0.50
   -1   16   20     -0.47      2.87
   -1   16   21      0.70     -0.24
   -1   16   22      0.43      0.49
   -1   16   23      3.87      2.35
   -1   16   24      0.79      1.75
   -1   16   25     -0.45      0.82
   -1   16   26      0.90      2.52
   -1   16   27      2.00      2.71
   -1   16   28      1.61     -0.46
   -1   16   29     -0.65     -1.30
   -1   16   30      0.47      3.26
   -1   16   31     -0.44     -0.24
   -1   16   32     -3.68      3.37
   -1   16   33     -0.79     -7.44
   -1   16   34      1.81     -1.11
   -1   16   35      1.92     -3.89
   -1   16   36     -3.67     -1.94
   -1   16   37      2.93     -2.21
   -1   16   38     -4.50      1.13
   -1   16   39      1.69      2.56
   -1   16   40     -0.71     -1.46
   -1   16   41     -0.16     -2.63
   -1   16   42      2.66      3.34
   -1   16   43      1.72      2.18
   -1   16   44     -1.08      2.48
   -1   16   45      0.96      2.07
    0   16    0     -1.76      0.02
    0   16    1     -3.75      1.13
    0   16    2      0.38      0.11
    0   16    3      2.14     -0.15
    0   16    4      0.67      1.20
    0   16    5      0.95      0.60
    0   16    6      0.46     -0.64
    0   16    7     -0.18     -0.57
    0   16    8      2.90     -0.10
    0   16    9     -2.48      0.64
    0   16   10      0.75      0.34
    0   16   11      0.09     -0.11
    0   16   12     -0.27     -0.34
    0   16   13     -2.85      0.06
    0   16   14      1.38     -0.19
    0   16   15      1.77      0.40
    0   16   16     -2.05     -0.03
    0   16   17     -0.54      0.12
    0   16   18      2.06      0.13
    0   16   19      1.22      0.10
    0   16   20     -0.47      0.29
    0   16   21     -1.57      0.09
    0   16   22      2.09      0.49
    0   16   23      2.62      0.37
    0   16   24     -0.91      0.75
    0   16   25      5.11      0.34
    0   16   26      1.99      0.55
    0   16   27      4.15     -0.58
    0   16   28      0.17     -0.39
    0   16   29     -4.17     -1.03
    0   16   30      2.43     -0.61
    0   16   31     -0.39     -0.33
    0   16   32      2.34      1.13
    0   16   33     -0.62      0.15
    0   16   34     -2.08     -0.04
    0   16   35      1.26      0.07
    0   16   36      0.64      0.44
    0   16   37      0.64     -0.88
    0   16   38      1.01     -0.66
    0   16   39      2.39     -0.18
    0   16   40     -8.40      1.17
    0   16   41      6.39      0.01
    0   16   42      3.78     -0.39
    0   16   43      1.94      0.35
    0   16   44      3.40      0.36
   -8   17    0      0.30      0.17
   -8   17    1      1.94      2.71
   -8   17    2      1.33     -1.96
   -8   17    3      1.13      2.06
   -8   17    4      3.14     -0.98
   -8   17    5     -0.73     -3.07
   -8   17    6     -0.64      6.10
   -8   17    7     -0.72     -0.62
   -8   17    8      2.95     -2.14
   -8   17    9      0.69     -2.20
   -8   17   10     -3.16     -2.41
   -8   17   11      0.39     -3.15
   -8   17   12      1.81     -3.96
   -8   17   13      0.79     -1.99
   -8   17   14      0.70      3.14
   -8   17   15     -0.34     -1.52
   -8   17   16      3.64     -0.97
   -8   17   17      2.03     -0.77
   -8   17   18     -1.02      0.14
   -8   17   19      0.69     -1.38
   -8   17   20      1.34     -0.64
   -8   17   21     -0.39      2.91
   -8   17   22      4.51     -0.76
   -8   17   23      1.63      3.65
   -8   17   24     -0.68      0.75
   -8   17   25     -1.52     -4.20
   -8   17   26     -1.34     -2.36
   -8   17   27     -0.47     -2.13
   -8   17   28     -1.60     -0.61
   -8   17   29     -2.22     -6.05
   -8   17   30     -0.26     -2.25
   -8   17   31      2.85      0.92
   -8   17   32     -4.56     -3.49
   -8   17   33     -1.00     -3.29
   -8   17   34     -1.10     -2.07
   -8   17   35      0.93     -2.93
   -8   17   36     -2.96      1.11
   -8   17   37      2.71      1.80
   -8   17   38      2.09      2.12
   -8   17   39      2.10     -2.56
   -8   17   40      1.62     -1.96
   -8   17   41     -0.30      1.62
   -8   17   42      2.72      4.60
   -8   17   43      2.04     -0.91
   -8   17   44     -1.67     -3.47
   -8   17   45      1.75     -3.31
   -8   17   46     -2.56      1.70
   -7   17    0     -0.65     -0.47
   -7   17    1     -2.28      0.12
   -7   17    2      1.56     -0.90
   -7   17    3     -4.36      7.22
   -7   17    4      1.41     -0.56
   -7   17    5      0.93      0.67
   -7   17    6      3.45      0.98
   -7   17    7      0.06     -1.23
   -7   17    8      1.38     -1.92
   -7   17    9     -0.34     -1.50
   -7   17   10     -2.94     -1.71
   -7   17   11     -0.31      0.53
   -7   17   12     -0.92     -4.00
   -7   17   13      1.94      2.46
   -7   17   14      2.90      1.21
   -7   17   15     -1.34     -1.60
   -7   17   16     -0.64      1.43
   -7   17   17      0.12     -2.00
   -7   17   18      0.88      2.12
   -7   17   19     -1.08     -0.23
   -7   17   20      1.93      1.41
   -7   17   21     -0.55     -0.56
   -7   17   22      1.15     -0.78
   -7   17   23     -0.09      0.04
   -7   17   24      1.13      2.41
   -7   17   25      2.99     -0.80
   -7   17   26     -0.20     -2.77
   -7   17   27     -0.02      0.35
   -7   17   28      0.05      0.18
   -7   17   29     -3.74     -1.22
   -7   17   30     -1.37      2.00
   -7   17   31     -0.49     -0.66
   -7   17   32     -3.00     -1.19
   -7   17   33     -0.50     -1.55
   -7   17   34      0.06     -0.72
   -7   17   35      0.42     -2.07
   -7   17   36     -0.48     -1.45
   -7   17   37      1.58      1.01
   -7   17   38      2.53      0.89
   -7   17   39      1.08      2.20
   -7   17   40      0.37      0.37
   -7   17   41     -5.24     -1.15
   -7   17   42      3.36      1.55
   -7   17   43      0.64      3.83
   -7   17   44      1.36     -2.41
   -7   17   45     -5.33     -2.59
   -7   17   46     -4.30     -0.73
   -6   17    0      3.78      0.04
   -6   17    1     -4.20      2.77
   -6   17    2      2.70     -3.97
   -6   17    3     -3.12      0.05
   -6   17    4     -1.93     -3.79
   -6   17    5     -0.17     -1.20
   -6   17    6      1.34     -1.48
   -6   17    7     -1.44     -3.67
   -6   17    8      3.53      3.22
   -6   17    9      0.11      1.41
   -6   17   10     -2.80      3.01
   -6   17   11      0.69      2.41
   -6   17   12      3.84      4.48
   -6   17   13      0.05      1.34
   -6   17   14      0.98      0.83
   -6   17   15     -0.63     -0.96
   -6   17   16      2.25     -1.20
   -6   17   17     -0.78     -0.07
   -6   17   18      0.69      2.69
   -6   17   19      0.51      0.31
   -6   17   20     -0.08     -1.29
   -6   17   21      1.29     -3.04
   -6   17   22     -1.11      0.49
   -6   17   23      0.82     -2.01
   -6   17   24      1.44      2.48
   -6   17   25     -0.29     -1.67
   -6   17   26      0.47     -3.67
   -6   17   27      1.17      3.04
   -6   17   28     -2.53      0.38
   -6   17   29     -1.00      1.17
   -6   17   30      0.90      3.85
   -6   17   31     -0.62      1.16
   -6   17   32     -2.42      2.30
   -6   17   33      1.65     -0.08
   -6   17   34      1.27      0.30
   -6   17   35     -0.57      2.15
   -6   17   36     -0.46      0.58
   -6   17   37      2.45      1.85
   -6   17   38     -1.93     -2.32
   -6   17   39      2.41      5.04
   -6   17   40     -0.64     -1.50
   -6   17   41     -1.70     -0.06
   -6   17   42     -0.10     -1.38
   -6   17   43     -2.38      3.37
   -6   17   44     -1.79     -1.55
   -6   17   45     -3.75     -0.78
   -6   17   46     -1.50     -0.53
   -5   17    0     -0.33      0.02
   -5   17    1      3.91     -2.58
   -5   17    2     -1.00      2.29
   -5   17    3      0.99     -3.32
   -5   17    4     -0.21      3.75
   -5   17    5      2.09      0.97
   -5   17    6      0.45      0.21
   -5   17    7     -2.69     -0.87
   -5   17    8     -0.03      0.81
   -5   17    9     -1.27     -0.97
   -5   17   10      2.35      3.07
   -5   17   11     -0.58      3.09
   -5   17   12     -0.63      4.60
   -5   17   13      2.41      0.55
   -5   17   14     -3.26      1.34
   -5   17   15     -1.04     -1.35
   -5   17   16     -1.41     -1.17
   -5   17   17     -0.91      0.24
   -5   17   18     -0.14     -2.45
   -5   17   19     -4.56      2.64
   -5   17   20      1.95      0.32
   -5   17   21     -0.87      1.62
   -5   17   22     -0.48     -1.67
   -5   17   23      0.68      1.81
   -5   17   24     -1.14      0.79
   -5   17   25     -3.82      1.85
   -5   17   26     -1.77      3.17
   -5   17   27      1.08     -1.56
   -5   17   28     -0.88     -0.78
   -5   17   29     -0.54      1.38
   -5   17   30      0.58     -2.43
   -5   17   31     -1.58      1.49
   -5   17   32     -4.26      0.09
   -5   17   33     -4.64      1.31
   -5   17   34     -1.76     -0.84
   -5   17   35      0.45     -1.38
   -5   17   36      0.14      3.65
   -5   17   37      3.39      1.05
   -5   17   38      1.76      2.01
   -5   17   39      0.55      0.03
   -5   17   40      0.81     -0.17
   -5   17   41     -0.36     -2.25
   -5   17   42     -0.03     -0.62
   -5   17   43     -3.16      0.77
   -5   17   44     -3.14     -0.51
   -5   17   45     -0.23      0.68
   -4   17    0      0.58      0.14
   -4   17    1      2.00      1.08
   -4   17    2      1.12     -0.36
   -4   17    3     -0.30     -0.26
   -4   17    4      4.23      0.51
   -4   17    5      0.55     -1.18
   -4   17    6      1.16     -0.12
   -4   17    7     -1.10     -0.79
   -4   17    8      1.08      2.43
   -4   17    9      0.23      0.69
   -4   17   10      1.99      1.42
   -4   17   11     -0.73      1.54
   -4   17   12     -2.08      0.55
   -4   17   13     -0.07      0.29
   -4   17   14     -4.59     -3.23
   -4   17   15     -3.29      1.80
   -4   17   16      2.00     -0.94
   -4   17   17     -0.46     -2.98
   -4   17   18     -0.27      0.71
   -4   17   19     -1.13     -0.18
   -4   17   20      1.25      3.29
   -4   17   21      0.38      0.88
   -4   17   22      3.58     -0.03
   -4   17   23     -0.91     -0.16
   -4   17   24     -0.32      2.81
   -4   17   25     -1.02     -0.31
   -4   17   26     -1.37     -0.82
   -4   17   27      1.28      0.37
   -4   17   28      0.68     -0.19
   -4   17   29     -2.44     -0.97
   -4   17   30     -1.18     -0.07
   -4   17   31      0.73      2.44
   -4   17   32      4.02      2.68
   -4   17   33      0.29     -1.69
   -4   17   34      2.00     -0.90
   -4   17   35     -2.61      0.26
   -4   17   36      1.86      5.22
   -4   17   37     -0.27     -4.04
   -4   17   38      2.66      1.71
   -4   17   39      0.23      2.04
   -4   17   40     -3.62      1.68
   -4   17   41     -1.09     -4.46
   -4   17   42      0.97     -3.16
   -4   17   43     -3.56     -0.89
   -4   17   44      1.85     -0.08
   -4   17   45     -6.95      0.16
   -3   17    0     -1.45     -0.15
   -3   17    1     -0.40     -1.32
   -3   17    2      2.13     -2.19
   -3   17    3      1.89      4.00
   -3   17    4     -0.93      1.71
   -3   17    5      2.66      1.99
   -3   17    6     -0.19      2.05
   -3   17    7     -3.37     -0.38
   -3   17    8      0.57      0.25
   -3   17    9      0.65     -2.49
   -3   17   10     -0.49     -0.89
   -3   17   11      0.11     -3.00
   -3   17   12     -1.64     -1.77
   -3   17   13      0.41     -0.17
   -3   17   14     -3.37     -0.99
   -3   17   15      1.26      0.09
   -3   17   16     -2.82      1.21
   -3   17   17      3.03     -0.48
   -3   17   18     -0.03      2.08
   -3   17   19     -2.23      1.23
   -3   17   20     -0.97     -0.96
   -3   17   21     -1.24      4.95
   -3   17   22      2.31      2.78
   -3   17   23     -2.84     -2.34
   -3   17   24     -0.46      4.56
   -3   17   25     -1.82     -0.31
   -3   17   26     -2.57     -3.46
   -3   17   27      1.13     -3.07
   -3   17   28     -2.01     -0.38
   -3   17   29     -4.73      6.21
   -3   17   30      0.85     -0.67
   -3   17   31     -1.25     -1.16
   -3   17   32      2.92     -0.97
   -3   17   33      0.64      2.84
   -3   17   34      0.05     -2.47
   -3   17   35     -0.92      0.53
   -3   17   36      2.08      1.32
   -3   17   37     -1.27     -0.29
   -3   17   38     -0.46     -1.26
   -3   17   39      3.70      2.04
   -3   17   40     -1.77      2.18
   -3   17   41     -3.04      0.06
   -3   17   42      2.17     -0.04
   -3   17   43     -0.11     -0.52
   -3   17   44      2.77      3.76
   -3   17   45     -4.96     -1.50
   -2   17    0     -1.50      0.10
   -2   17    1      2.23     -0.68
   -2   17    2      2.08     -0.55
   -2   17    3      0.62     -0.51
   -2   17    4     -0.34     -3.45
   -2   17    5      0.88      1.58
   -2   17    6      0.23     -3.47
   -2   17    7      4.45     -0.53
   -2   17    8     -1.42      0.90
   -2   17    9     -0.53      2.01
   -2   17   10     -0.34      0.36
   -2   17   11      2.27      3.60
   -2   17   12      2.40     -2.67
   -2   17   13      0.56      2.14
   -2   17   14     -0.27      0.44
   -2   17   15      0.11     -1.05
   -2   17   16     -1.05     -1.00
   -2   17   17      0.05      0.75
   -2   17   18      0.78      3.59
   -2   17   19      0.38     -1.24
   -2   17   20     -2.95     -2.43
   -2   17   21      1.28      2.12
   -2   17   22     -0.82      0.31
   -2   17   23      1.16      1.45
   -2   17   24      1.32      4.04
   -2   17   25     -4.01      2.76
   -2   17   26     -3.05      0.31
   -2   17   27     -0.92      2.21
   -2   17   28      0.35     -0.30
   -2   17   29     -1.32      2.42
   -2   17   30     -1.52     -1.62
   -2   17   31     -1.86      0.33
   -2   17   32     -2.33     -2.84
   -2   17   33     -0.33      4.43
   -2   17   34      2.46      0.31
   -2   17   35     -2.79     -1.58
   -2   17   36     -0.36      4.22
   -2   17   37      0.12      3.27
   -2   17   38     -9.12     -0.10
   -2   17   39      2.23     -1.48
   -2   17   40      3.14      5.40
   -2   17   41     -0.15      5.44
   -2   17   42      2.12      1.80
   -2   17   43      2.39      1.70
   -2   17   44     -0.61      0.20
   -1   17    0      0.15     -0.58
   -1   17    1      3.12     -0.53
   -1   17    2      2.77      1.73
   -1   17    3     -1.82     -3.18
   -1   17    4     -0.38      1.78
   -1   17    5     -0.52      0.28
   -1   17    6     -1.03     -3.82
   -1   17    7     -0.11      2.32
   -1   17    8     -0.54      1.80
   -1   17    9     -0.20      0.26
   -1   17   10      3.06     -0.42
   -1   17   11     -0.31      1.75
   -1   17   12      4.16      0.71
   -1   17   13     -1.55     -2.48
   -1   17   14      1.59     -0.24
   -1   17   15      0.51      3.47
   -1   17   16     -0.67     -0.40
   -1   17   17      0.01      1.09
   -1   17   18     -0.23     -1.24
   -1   17   19      2.25      2.79
   -1   17   20     -0.34     -1.51
   -1   17   21      0.03     -0.80
   -1   17   22      1.32     -1.92
   -1   17   23     -0.12      2.12
   -1   17   24      0.99     -0.43
   -1   17   25      0.33      2.09
   -1   17   26      1.21      1.16
   -1   17   27      1.26      2.98
   -1   17   28      1.65      0.13
   -1   17   29      0.27     -0.14
   -1   17   30      0.46      4.82
   -1   17   31     -0.49     -2.00
   -1   17   32     -0.54     -1.60
   -1   17   33     -0.70      2.55
   -1   17   34      0.94      0.89
   -1   17   35     -2.47     -0.47
   -1   17   36      0.77      1.78
   -1   17   37      2.04      3.64
   -1   17   38      1.71     -2.28
   -1   17   39      1.99     -6.72
   -1   17   40     -0.98     -1.59
   -1   17   41      4.28      0.25
   -1   17   42      2.68     -0.74
   -1   17   43     -1.16      0.98
    0   17    0     -2.75     -0.40
    0   17    1     -0.07      0.12
    0   17    2      5.89     -0.04
    0   17    3     -0.73     -0.24
    0   17    4     -3.66      1.77
    0   17    5     -0.98      0.29
    0   17    6      1.19     -0.41
    0   17    7     -1.60     -0.20
    0   17    8     -0.49      0.42
    0   17    9     -0.15      0.61
    0   17   10      0.87      0.23
    0   17   11      0.51     -0.39
    0   17   12      1.25     -0.70
    0   17   13     -3.65     -0.16
    0   17   14      2.33      0.16
    0   17   15     -0.50     -0.35
    0   17   16      3.12     -0.24
    0   17   17     -0.46     -0.02
    0   17   18      1.67     -0.09
    0   17   19      2.75     -0.09
    0   17   20     -3.01     -0.07
    0   17   21      2.19     -0.16
    0   17   22     -1.11      0.11
    0   17   23     -3.74     -0.09
    0   17   24     -0.13      0.34
    0   17   25      3.91      0.91
    0   17   26      2.60      2.45
    0   17   27      1.57     -0.20
    0   17   28      0.39     -0.16
    0   17   29      1.52     -0.34
    0   17   30      1.82     -0.30
    0   17   31     -1.15     -0.12
    0   17   32      3.73      0.53
    0   17   33      0.34      0.45
    0   17   34      5.40     -0.25
    0   17   35      4.10      0.19
    0   17   36      3.76     -0.14
    0   17   37      0.47     -0.42
    0   17   38      7.72     -0.51
    0   17   39     -1.18      0.20
    0   17   40     -5.16     -0.34
    0   17   41      2.95      0.14
    0   17   42      2.83     -0.54
    0   17   43     -2.25      0.19
   -9   18    0      1.23      0.15
   -9   18    1      0.45      1.49
   -9   18    2      4.64      0.34
   -9   18    3      0.23      0.07
   -9   18    4      3.06      0.70
   -9   18    5     -0.24      2.13
   -9   18    6      1.42      0.10
   -9   18    7     -0.26      1.84
   -9   18    8      0.43      0.18
   -9   18    9     -0.26      2.64
   -9   18   10     -1.80     -0.15
   -9   18   11      0.06     -3.59
   -9   18   12      0.53      0.06
   -9   18   13     -0.18     -2.28
   -9   18   15      0.36      3.62
   -9   18   16      4.85     -0.03
   -9   18   17     -2.50      0.35
   -9   18   18      1.01      0.50
   -9   18   19     -0.89     -0.55
   -9   18   20      2.81      0.02
   -9   18   21     -0.11      0.32
   -9   18   22      0.98     -0.11
   -9   18   23      2.36      0.71
   -9   18   24      2.23      0.01
   -9   18   25      0.80      1.34
   -9   18   26      1.76     -0.10
   -9   18   27     -0.20     -0.52
   -9   18   28      0.16     -0.11
   -9   18   29     -0.02     -3.50
   -9   18   30      4.05      0.28
   -9   18   31      0.08     -1.01
   -9   18   32      3.07     -0.57
   -9   18   33     -0.19      1.37
   -9   18   34      2.58      0.14
   -9   18   35     -0.31      1.55
   -9   18   36     -0.73     -0.35
   -9   18   37     -0.70      0.76
   -9   18   38     -2.16     -0.31
   -9   18   39     -0.18     -1.62
   -9   18   40      0.46      2.45
   -9   18   41      0.45      2.30
   -9   18   42     -3.74      0.09
   -9   18   43      0.49      0.70
   -9   18   44     -0.47      0.13
   -8   18    0     -0.75     -0.15
   -8   18    1      0.53     -1.24
   -8   18    2      1.80     -0.04
   -8   18    3      0.75      0.09
   -8   18    4      1.76      3.60
   -8   18    5     -3.89      0.48
   -8   18    6     -1.03      3.59
   -8   18    7     -4.83      0.10
   -8   18    8      0.32     -5.35
   -8   18    9     -0.83      0.98
   -8   18   10      0.94     -0.64
   -8   18   11     -1.10     -2.08
   -8   18   13     -1.62      1.22
   -8   18   14      1.07     -0.99
   -8   18   15     -1.38     -1.87
   -8   18   16      1.29     -1.11
   -8   18   17      0.60      1.86
   -8   18   18     -0.60      0.26
   -8   18   19     -2.64     -1.11
   -8   18   20      2.88      1.49
   -8   18   21     -0.96      0.30
   -8   18   22      3.11      1.10
   -8   18   23      0.61     -0.39
   -8   18   24      1.62      1.62
   -8   18   25     -1.93      0.91
   -8   18   26     -0.07     -0.11
   -8   18   27     -1.12     -0.25
   -8   18   28      1.08     -1.00
   -8   18   29     -4.04     -0.70
   -8   18   30      0.58      0.98
   -8   18   31      1.02     -1.88
   -8   18   32      3.62     -4.22
   -8   18   33      0.04     -0.76
   -8   18   34      2.17     -0.24
   -8   18   35     -4.46      3.66
   -8   18   36     -0.52     -2.86
   -8   18   37     -0.73     -0.07
   -8   18   38      0.64      0.04
   -8   18   39     -1.22     -1.60
   -8   18   40     -2.17      2.43
   -8   18   41      4.34      2.79
   -8   18   42     -0.44     -1.56
   -8   18   43      1.01     -1.39
   -8   18   44      2.92     -3.46
   -7   18    0     -2.01      0.05
   -7   18    1     -3.78     -0.88
   -7   18    2      4.07      0.85
   -7   18    3      0.23      0.56
   -7   18    4      1.64     -1.58
   -7   18    5     -2.94     -1.10
   -7   18    6     -0.09      0.75
   -7   18    7     -3.30     -1.37
   -7   18    8      0.70     -1.77
   -7   18    9      0.23      1.26
   -7   18   10      1.12      0.19
   -7   18   11     -2.56     -2.84
   -7   18   12      0.82      2.11
   -7   18   13     -1.03     -0.80
   -7   18   14      4.05      0.07
   -7   18   15     -2.69      2.35
   -7   18   16      1.78     -1.16
   -7   18   17      2.48     -0.97
   -7   18   18      1.24      1.35
   -7   18   19     -0.35     -0.62
   -7   18   20      1.68     -0.86
   -7   18   21     -2.54     -1.95
   -7   18   22      1.23     -0.01
   -7   18   23      0.81     -2.28
   -7   18   24      2.90      1.37
   -7   18   25      0.59     -2.63
   -7   18   26      0.57      0.43
   -7   18   27      1.12      2.43
   -7   18   28      1.42     -0.96
   -7   18   29     -1.61      1.19
   -7   18   30     -0.88     -0.45
   -7   18   31      0.35      0.76
   -7   18   32     -0.11      2.83
   -7   18   33      1.92      0.05
   -7   18   34      1.11      0.07
   -7   18   35      0.08      5.17
   -7   18   36     -0.35     -6.06
   -7   18   37     -3.16     -0.81
   -7   18   38      4.05     -4.10
   -7   18   39     -0.30     -0.49
   -7   18   40     -1.85      1.57
   -7   18   41     -0.15      1.08
   -7   18   42      4.36     -2.38
   -7   18   43     -1.98      2.54
   -7   18   44     -0.05      1.20
   -6   18    0      2.84      0.14
   -6   18    1     -0.87      1.47
   -6   18    2      0.33      1.63
   -6   18    3      0.27      0.72
   -6   18    4     -0.18      2.11
   -6   18    5      1.18      0.27
   -6   18    6     -2.85      4.80
   -6   18    7     -1.88     -3.07
   -6   18    8      0.43     -2.14
   -6   18    9     -0.65     -1.07
   -6   18   10      0.68     -1.98
   -6   18   11      2.06     -1.22
   -6   18   12      2.23      1.82
   -6   18   13     -1.51      1.26
   -6   18   14      1.59      1.81
   -6   18   15      1.13      0.33
   -6   18   16     -3.06     -2.88
   -6   18   17     -1.19     -0.80
   -6   18   18      1.17     -2.26
   -6   18   19     -0.59     -2.60
   -6   18   20      0.20     -4.49
   -6   18   21     -0.59      3.72
   -6   18   22      1.84      0.53
   -6   18   23     -0.20      0.06
   -6   18   24     -0.39      0.14
   -6   18   25     -2.29     -1.66
   -6   18   26      0.09      1.50
   -6   18   27     -1.18     -1.97
   -6   18   28      1.14     -3.98
   -6   18   29      1.09      0.48
   -6   18   30      0.29      0.80
   -6   18   31     -1.00      1.42
   -6   18   32     -0.41      0.67
   -6   18   33      1.38      6.08
   -6   18   34     -1.74     -1.20
   -6   18   35      1.81      2.21
   -6   18   36      4.98     -8.97
   -6   18   37      2.02      1.91
   -6   18   38     -2.20     -2.82
   -6   18   39      2.14      0.14
   -6   18   40     -0.07     -0.38
   -6   18   41      1.95      2.85
   -6   18   42      0.22      0.17
   -6   18   43     -1.38      1.11
   -5   18    0      0.05      0.16
   -5   18    1      2.07      2.93
   -5   18    2      1.63     -0.34
   -5   18    3     -1.10      2.94
   -5   18    4      1.01      2.26
   -5   18    5      4.99     -3.10
   -5   18    6      1.01      2.38
   -5   18    7      1.52      0.11
   -5   18    8      0.02     -1.32
   -5   18    9     -2.54     -2.47
   -5   18   10     -1.14      1.32
   -5   18   11     -1.70      0.20
   -5   18   12     -0.43     -1.47
   -5   18   13     -1.46      0.34
   -5   18   14     -2.52     -0.01
   -5   18   15      1.34      0.16
   -5   18   16      1.47     -3.33
   -5   18   17     -4.39     -1.15
   -5   18   18      0.48     -1.27
   -5   18   19     -2.40      0.83
   -5   18   20      2.61     -1.87
   -5   18   21     -0.32     -3.00
   -5   18   22     -0.35      0.49
   -5   18   23     -0.78     -0.08
   -5   18   24     -0.58      1.78
   -5   18   25     -0.25      0.14
   -5   18   26      2.27      1.97
   -5   18   27     -0.37      0.81
   -5   18   28      3.38     -0.30
   -5   18   29      3.18     -0.73
   -5   18   30      1.35     -2.89
   -5   18   31      1.62      2.43
   -5   18   32     -1.01     -1.94
   -5   18   33      1.07     -3.88
   -5   18   34     -0.80     -0.12
   -5   18   35     -2.03     -1.56
   -5   18   36      2.20     -3.82
   -5   18   37      0.24      2.83
   -5   18   38      0.23     -0.35
   -5   18   39     -1.91      1.75
   -5   18   40     -0.31      4.11
   -5   18   41      2.26      1.25
   -5   18   42     -5.77     -1.50
   -5   18   43     -0.87      1.95
   -5   18   44     -7.14     -5.80
   -4   18    0      2.47     -0.13
   -4   18    1     -0.41      1.62
   -4   18    2      0.99      0.01
   -4   18    3     -1.22     -0.45
   -4   18    4      3.00      1.53
   -4   18    5     -0.08     -1.13
   -4   18    6     -0.53      2.90
   -4   18    7      1.03      1.77
   -4   18    8      0.90      1.07
   -4   18    9      1.42     -2.40
   -4   18   10     -3.01     -2.38
   -4   18   11      1.41     -3.70
   -4   18   12      0.14      3.14
   -4   18   13     -2.44     -1.19
   -4   18   14      0.35      0.29
   -4   18   15     -0.91      0.91
   -4   18   16      0.76     -1.53
   -4   18   17     -0.41      0.40
   -4   18   18      0.44      2.83
   -4   18   19     -0.73     -1.08
   -4   18   20      2.43     -1.70
   -4   18   21      1.20      3.47
   -4   18   22      0.93      0.79
   -4   18   23     -0.56      1.60
   -4   18   24     -0.66      0.64
   -4   18   25      4.09     -0.14
   -4   18   26     -1.27      0.35
   -4   18   27     -0.31     -3.51
   -4   18   28     -1.83     -0.79
   -4   18   29      1.37     -0.15
   -4   18   30      0.29     -0.12
   -4   18   31      0.11     -0.56
   -4   18   32      3.91     -2.64
   -4   18   33      2.57     -5.38
   -4   18   34     -2.05      0.55
   -4   18   35      0.27      1.42
   -4   18   36     -0.46      1.49
   -4   18   37     -0.48     -0.62
   -4   18   38      3.03      0.99
   -4   18   39      2.39      2.78
   -4   18   40      1.11     -1.33
   -4   18   41     -8.09      1.34
   -4   18   42     -1.52      1.61
   -4   18   43     -3.20      1.76
   -4   18   44     -0.96     -0.28
   -3   18    0      0.91     -0.15
   -3   18    1      1.19      0.23
   -3   18    2      3.41      0.66
   -3   18    3     -1.03     -0.26
   -3   18    4     -1.64     -0.43
   -3   18    5      0.69     -0.90
   -3   18    6      1.67      4.44
   -3   18    7      0.29     -1.61
   -3   18    8      2.61      1.06
   -3   18    9     -0.25     -2.33
   -3   18   10     -2.05     -2.33
   -3   18   11      3.30      0.53
   -3   18   12     -0.66      0.95
   -3   18   13     -0.37     -1.27
   -3   18   14      0.17      0.61
   -3   18   15      1.27      2.57
   -3   18   16      1.90     -1.71
   -3   18   17     -0.54      1.28
   -3   18   18      0.70      2.12
   -3   18   19     -5.11     -0.11
   -3   18   20     -1.10     -1.80
   -3   18   21     -1.83      3.49
   -3   18   22     -3.64      1.94
   -3   18   23     -2.24      0.93
   -3   18   24     -1.36      2.71
   -3   18   25     -0.19     -0.51
   -3   18   26     -0.24     -1.28
   -3   18   27     -1.33      0.32
   -3   18   28     -4.44     -0.64
   -3   18   29      0.03      0.49
   -3   18   30      2.03     -3.92
   -3   18   31     -3.80     -1.23
   -3   18   32     -0.01     -0.02
   -3   18   33      0.10      5.31
   -3   18   34      0.66     -1.46
   -3   18   35     -1.38      0.59
   -3   18   36     -0.87     -0.54
   -3   18   37     -0.47      1.83
   -3   18   38      4.25      0.59
   -3   18   39      3.21      2.32
   -3   18   40      1.82     -1.40
   -3   18   41     -3.76      3.19
   -3   18   42      6.16      4.64
   -3   18   43      1.32     -1.14
   -2   18    0      2.07      0.05
   -2   18    1      1.15      2.47
   -2   18    2     -0.18      0.28
   -2   18    3      1.29     -1.30
   -2   18    4      1.34     -0.93
   -2   18    5     -3.14     -1.15
   -2   18    6      3.18     -6.10
   -2   18    7      0.50     -1.06
   -2   18    8      0.45     -0.42
   -2   18    9     -1.17     -1.08
   -2   18   10      2.23      0.16
   -2   18   11      0.95      3.36
   -2   18   12      2.12      5.43
   -2   18   13     -1.38      0.90
   -2   18   14      0.44      0.60
   -2   18   15      0.43      0.72
   -2   18   16      0.90      1.08
   -2   18   17     -2.45      2.01
   -2   18   18     -1.25     -0.68
   -2   18   19     -4.06     -1.60
   -2   18   20     -1.47     -0.95
   -2   18   21     -1.38      1.92
   -2   18   22      0.40     -0.53
   -2   18   23      1.52     -1.10
   -2   18   24     -0.79     -1.06
   -2   18   25     -2.95     -0.48
   -2   18   26      0.11     -0.39
   -2   18   27     -2.31     -1.10
   -2   18   28     -0.70      0.19
   -2   18   29     -0.12     -2.58
   -2   18   30     -0.17      2.47
   -2   18   31      0.90     -0.24
   -2   18   32     -2.29     -3.59
   -2   18   33      0.46      5.25
   -2   18   34      2.28      3.90
   -2   18   35      1.87      2.09
   -2   18   36      0.76      2.66
   -2   18   37      3.26     -0.02
   -2   18   38      4.64     -0.06
   -2   18   39      4.60      2.12
   -2   18   40      3.97      4.03
   -2   18   41     -1.21      5.08
   -2   18   42     -1.05      0.28
   -1   18    0     -0.14      0.52
   -1   18    1     -0.45      1.79
   -1   18    2      1.56      2.44
   -1   18    3     -0.79     -2.04
   -1   18    4     -0.69     -1.41
   -1   18    5     -0.57     -3.14
   -1   18    6     -0.28     -0.79
   -1   18    7     -1.24      1.04
   -1   18    8     -0.20      2.04
   -1   18    9      0.74      0.22
   -1   18   10     -1.00      3.40
   -1   18   11     -1.16     -1.43
   -1   18   12      0.05      2.82
   -1   18   13     -0.15     -1.21
   -1   18   14      0.88      2.49
   -1   18   15      2.12     -2.20
   -1   18   16      1.82     -3.15
   -1   18   17      0.43     -0.05
   -1   18   18     -0.10      0.03
   -1   18   19     -1.92      4.19
   -1   18   20     -3.50     -3.82
   -1   18   21     -2.80     -2.50
   -1   18   22      0.06     -0.49
   -1   18   23      0.05     -1.69
   -1   18   24     -0.77     -4.54
   -1   18   25      1.18     -0.56
   -1   18   26      1.31     -2.52
   -1   18   27      1.53     -1.31
   -1   18   28     -1.97      0.57
   -1   18   29      1.49     -1.11
   -1   18   30      2.77      1.13
   -1   18   31      1.11      0.02
   -1   18   32     -0.55     -2.41
   -1   18   33     -1.06     -7.40
   -1   18   34      2.89     -4.03
   -1   18   35      3.79      3.30
   -1   18   36      1.04     -0.33
   -1   18   37      3.79      2.66
   -1   18   38      3.45     -0.04
   -1   18   39      0.47      1.00
   -1   18   40      1.27      0.04
   -1   18   41     -1.94     -1.39
   -1   18   42     -1.31     -0.19
    0   18    0      0.00      0.08
    0   18    1     -2.65      0.35
    0   18    2      1.08      0.26
    0   18    3     -1.87     -0.24
    0   18    4     -1.02      0.34
    0   18    5      1.55     -0.44
    0   18    6      2.66     -0.15
    0   18    7     -3.30      0.20
    0   18    8      2.29     -0.16
    0   18    9      1.87      0.47
    0   18   10      0.47     -0.02
    0   18   11      1.49     -0.94
    0   18   12     -0.32     -0.90
    0   18   13      1.61      0.02
    0   18   14     -0.51     -0.13
    0   18   15     -1.76      0.04
    0   18   16     -1.51     -0.05
    0   18   17      2.95     -0.09
    0   18   18     -1.92      0.05
    0   18   19      1.20     -0.24
    0   18   20     -2.29      0.40
    0   18   21     -0.53     -0.12
    0   18   22      1.03     -0.03
    0   18   23      2.37     -0.01
    0   18   24      0.01      0.70
    0   18   25      2.61      0.35
    0   18   26      1.42      0.51
    0   18   27      7.30      0.05
    0   18   28     -2.71     -0.59
    0   18   29     -3.94     -0.37
    0   18   30     -0.97     -1.19
    0   18   31      1.68     -0.10
    0   18   32      4.52      0.18
    0   18   33     -0.80     -0.21
    0   18   34      6.46      0.27
    0   18   35      3.72      1.93
    0   18   36      1.75      0.93
    0   18   37      6.20     -0.27
    0   18   38     -2.46     -0.29
    0   18   39     -4.85     -0.18
    0   18   40     -4.15      0.18
    0   18   41     -5.02     -0.51
   -9   19    0     -0.55     -0.11
   -9   19    1     -2.30      0.77
   -9   19    2      4.05     -1.17
   -9   19    3     -0.18      2.67
   -9   19    4      0.43     -0.12
   -9   19    5     -1.13      1.27
   -9   19    6     -1.04      2.72
   -9   19    7      1.39     -1.43
   -9   19    8     -0.15     -1.49
   -9   19    9     -0.62      1.46
   -9   19   10     -1.43     -0.14
   -9   19   11      0.07      1.11
   -9   19   12     -0.82      0.55
   -9   19   13     -2.25      1.57
   -9   19   14     -3.42     -0.05
   -9   19   15     -0.80      0.59
   -9   19   16     -2.58     -2.92
   -9   19   17      1.03     -0.41
   -9   19   18     -0.02      2.76
   -9   19   19     -0.47     -0.69
   -9   19   20     -1.57     -0.04
   -9   19   21     -0.51      0.08
   -9   19   22     -1.06      0.42
   -9   19   23     -0.28      0.34
   -9   19   24     -0.30      0.45
   -9   19   25     -1.21      1.20
   -9   19   26      0.98      0.32
   -9   19   27     -1.96      1.55
   -9   19   28      0.80     -0.72
   -9   19   29      1.58      2.43
   -9   19   30      1.31      2.93
   -9   19   31      0.78     -2.12
   -9   19   32      0.13     -0.88
   -9   19   33      0.46     -2.87
   -9   19   34      2.16      0.78
   -9   19   35      0.20      3.84
   -9   19   36      1.34     -0.04
   -9   19   37     -0.23      0.21
   -9   19   38      0.85     -0.84
   -9   19   39      0.49      1.06
   -9   19   40      0.64      2.45
   -9   19   41      2.60      1.16
   -9   19   42     -2.52     -4.49
   -8   19    0      0.75      0.01
   -8   19    1     -4.33      0.46
   -8   19    2     -0.95     -2.07
   -8   19    3      2.82     -1.48
   -8   19    4      2.83     -1.24
   -8   19    5     -2.18     -0.96
   -8   19    6     -2.61      0.63
   -8   19    7     -1.27      0.85
   -8   19    8     -0.01     -2.60
   -8   19    9     -2.13     -0.44
   -8   19   10     -3.04      1.25
   -8   19   11     -0.16     -1.60
   -8   19   12     -0.07      3.02
   -8   19   13      0.91     -0.70
   -8   19   14     -0.50     -0.24
   -8   19   15     -1.00     -0.03
   -8   19   16      2.53     -2.02
   -8   19   17      1.77      0.16
   -8   19   18     -1.63     -0.12
   -8   19   19     -0.40     -0.26
   -8   19   20     -3.96     -0.75
   -8   19   21     -2.60     -3.35
   -8   19   22      4.50      1.26
   -8   19   23     -0.60     -1.04
   -8   19   24      0.35     -0.11
   -8   19   25     -0.95      1.95
   -8   19   26     -3.04     -0.36
   -8   19   27     -0.72     -1.13
   -8   19   28     -0.30     -0.89
   -8   19   29     -0.93     -0.12
   -8   19   30     -0.51     -5.08
   -8   19   31      3.01     -0.29
   -8   19   32      0.06      0.91
   -8   19   33     -1.21     -4.61
   -8   19   34      0.62      0.19
   -8   19   35      1.51      0.72
   -8   19   36      0.17     -4.85
   -8   19   37     -1.26     -0.17
   -8   19   38     -2.97     -2.79
   -8   19   39     -0.29     -0.79
   -8   19   40     -2.21      5.50
   -8   19   41      0.55      6.00
   -8   19   42      3.66     -6.34
   -7   19    0     -1.81     -0.06
   -7   19    1      1.00      2.58
   -7   19    2     -1.67     -0.81
   -7   19    3     -1.69     -2.38
   -7   19    4      1.51     -1.51
   -7   19    5     -0.03      2.12
   -7   19    6      1.59      1.31
   -7   19    7     -1.18      2.19
   -7   19    8      0.54     -1.15
   -7   19    9     -0.11      0.17
   -7   19   10      0.71     -0.06
   -7   19   11     -1.55     -1.17
   -7   19   12      1.17      2.76
   -7   19   13      0.77     -3.13
   -7   19   14      2.29     -0.24
   -7   19   15     -1.35      3.37
   -7   19   16      1.35     -1.59
   -7   19   17      3.46     -1.25
   -7   19   18     -1.03     -1.43
   -7   19   19      2.77     -0.04
   -7   19   20     -0.96     -2.85
   -7   19   21     -6.15      1.09
   -7   19   22      2.64      2.36
   -7   19   23     -1.32     -0.86
   -7   19   24     -1.38     -7.40
   -7   19   25      1.37     -0.37
   -7   19   26     -2.46      1.20
   -7   19   27      0.00     -1.08
   -7   19   28      0.53     -4.84
   -7   19   29      1.58     -0.51
   -7   19   30     -0.37     -2.36
   -7   19   31      0.78      4.28
   -7   19   32     -2.18      0.63
   -7   19   33      0.69      1.01
   -7   19   34      0.27      3.24
   -7   19   35      0.28      0.71
   -7   19   36     -0.63     -4.24
   -7   19   37      3.56      0.18
   -7   19   38      0.36      2.96
   -7   19   39     -1.80     -3.89
   -7   19   40     -1.54      1.03
   -7   19   41      0.26      3.70
   -7   19   42      4.11     -1.40
   -6   19    0     -0.33     -0.05
   -6   19    1     -1.04      2.00
   -6   19    2     -0.83     -3.45
   -6   19    3      0.46      2.16
   -6   19    4     -0.34     -3.09
   -6   19    5      1.26      0.78
   -6   19    6     -0.69      1.79
   -6   19    7     -3.07      0.14
   -6   19    8      0.07      2.76
   -6   19    9     -1.17     -1.07
   -6   19   10     -2.39     -3.24
   -6   19   11      0.61     -0.62
   -6   19   12     -2.08     -1.70
   -6   19   13     -0.67     -1.50
   -6   19   14      0.25     -1.16
   -6   19   15     -0.64      0.05
   -6   19   16     -2.45      0.12
   -6   19   17      0.00      0.85
   -6   19   18     -1.61     -3.28
   -6   19   19     -1.89      1.20
   -6   19   20     -0.42     -1.56
   -6   19   21     -1.41     -1.64
   -6   19   22     -0.40      0.10
   -6   19   23     -3.50     -0.71
   -6   19   24     -0.06      2.08
   -6   19   25     -1.61     -0.78
   -6   19   26      3.80      2.99
   -6   19   27      0.12      1.78
   -6   19   28      0.61     -2.16
   -6   19   29      0.35     -1.41
   -6   19   30     -1.29     -4.75
   -6   19   31      0.63      2.28
   -6   19   32     -3.54     -3.10
   -6   19   33     -0.77      5.85
   -6   19   34      3.87      2.18
   -6   19   35      0.60      2.27
   -6   19   36     -0.49      0.68
   -6   19   37      2.23      0.81
   -6   19   38     -3.57      1.58
   -6   19   39     -2.11     -2.88
   -6   19   40     -3.10      2.34
   -6   19   41      1.92      0.84
   -6   19   42     -1.58     -4.33
   -5   19    0      0.66     -0.15
   -5   19    1      3.73      0.27
   -5   19    2     -6.31      3.13
   -5   19    3     -0.96     -0.37
   -5   19    4      1.62     -1.24
   -5   19    5      0.98      0.67
   -5   19    6      2.55     -1.35
   -5   19    7     -1.96     -0.08
   -5   19    8      4.27     -2.23
   -5   19    9     -0.48     -0.92
   -5   19   10     -0.98      0.46
   -5   19   11     -3.24     -0.32
   -5   19   12     -1.15      1.56
   -5   19   13     -0.57      2.34
   -5   19   14      1.17      1.41
   -5   19   15      0.62     -0.74
   -5   19   16     -3.28     -0.93
   -5   19   17      0.26     -0.75
   -5   19   18      2.97      2.36
   -5   19   19      3.92     -0.19
   -5   19   20      1.00      1.43
   -5   19   21     -0.21     -1.92
   -5   19   22     -0.39     -0.50
   -5   19   23     -0.84     -0.30
   -5   19   24      0.23     -2.44
   -5   19   25     -0.25     -0.79
   -5   19   26      3.53      5.30
   -5   19   27      2.25     -1.03
   -5   19   28     -0.46      1.00
   -5   19   29      4.95     -2.87
   -5   19   30     -0.70      1.79
   -5   19   31      3.59      3.64
   -5   19   32     -2.46     -3.20
   -5   19   33     -0.81     -0.03
   -5   19   34      1.95      2.12
   -5   19   35      2.50      0.70
   -5   19   36     -0.01      2.04
   -5   19   37      1.22      0.90
   -5   19   38     -4.97     -0.34
   -5   19   39     -1.46     -5.03
   -5   19   40      2.56      2.41
   -5   19   41     -0.77      0.96
   -5   19   42     -5.81      0.68
   -4   19    0      0.42     -0.03
   -4   19    1     -0.91     -0.25
   -4   19    2     -3.84      2.52
   -4   19    3      0.87     -2.16
   -4   19    4      0.61     -0.87
   -4   19    5     -1.20     -1.48
   -4   19    6     -0.49      3.81
   -4   19    7      0.17     -0.47
   -4   19    8      1.79     -0.03
   -4   19    9     -0.78     -1.69
   -4   19   10      0.14      2.89
   -4   19   11     -1.46      2.30
   -4   19   12      1.75      3.91
   -4   19   13      1.48      0.13
   -4   19   14      3.93     -1.26
   -4   19   15      0.06     -2.50
   -4   19   16     -1.08     -0.16
   -4   19   17     -0.10     -0.93
   -4   19   18     -0.29     -1.63
   -4   19   19      0.50     -0.09
   -4   19   20     -0.20     -0.66
   -4   19   21      0.45      1.22
   -4   19   22     -0.23     -1.78
   -4   19   23      1.47      1.87
   -4   19   24      5.23      1.69
   -4   19   25      0.95     -1.31
   -4   19   26      0.61      0.68
   -4   19   27      1.54     -1.58
   -4   19   28      0.44      2.87
   -4   19   29      0.29     -0.85
   -4   19   30     -1.64      0.62
   -4   19   31      0.43      0.39
   -4   19   32     -1.49      1.26
   -4   19   33     -0.51     -2.90
   -4   19   34     -1.50     -0.89
   -4   19   35      5.61     -0.36
   -4   19   36     -0.72     -2.64
   -4   19   37     -0.88      2.17
   -4   19   38      3.82      1.09
   -4   19   39     -0.63     -1.90
   -4   19   40      4.29     -5.88
   -4   19   41     -6.39     -3.14
   -4   19   42      5.18      5.78
   -3   19    0      1.90     -0.22
   -3   19    1      0.27      0.49
   -3   19    2     -0.76     -0.48
   -3   19    3      0.88     -0.42
   -3   19    4     -1.76      0.04
   -3   19    5      3.07     -0.88
   -3   19    6      2.18     -0.04
   -3   19    7     -2.12     -0.29
   -3   19    8      3.03     -0.17
   -3   19    9     -2.31      5.18
   -3   19   10      4.81      0.39
   -3   19   11     -0.95      1.59
   -3   19   12     -0.14      2.45
   -3   19   13     -0.63     -0.83
   -3   19   14      2.10     -2.09
   -3   19   15     -0.38     -1.21
   -3   19   16     -0.48     -0.44
   -3   19   17     -0.34      0.75
   -3   19   18     -0.05      1.13
   -3   19   19     -0.46     -0.78
   -3   19   20      0.25     -0.49
   -3   19   21      0.41      0.10
   -3   19   22      0.18      0.54
   -3   19   23      0.88     -1.57
   -3   19   24      0.97      0.23
   -3   19   25     -0.06     -0.81
   -3   19   26     -1.20     -1.38
   -3   19   27      0.77     -1.71
   -3   19   28      4.02      1.81
   -3   19   29      0.58     -0.89
   -3   19   30     -1.64      4.10
   -3   19   31     -0.60     -0.90
   -3   19   32      4.36      2.76
   -3   19   33      3.20      3.26
   -3   19   34      1.36      1.09
   -3   19   35      8.46      0.96
   -3   19   36     -0.74     -1.50
   -3   19   37      0.77      0.76
   -3   19   38      3.27     -2.22
   -3   19   39     -0.02      0.86
   -3   19   40      1.18      1.47
   -3   19   41     -2.33      0.99
   -2   19    0     -1.28      0.03
   -2   19    1     -4.08     -1.58
   -2   19    2      1.84      0.17
   -2   19    3      1.25      1.12
   -2   19    4     -2.88     -1.16
   -2   19    5      0.16     -0.15
   -2   19    6     -0.07     -0.53
   -2   19    7      1.38      0.15
   -2   19    8     -1.03     -0.37
   -2   19    9      0.11      2.88
   -2   19   10      0.49     -1.80
   -2   19   11     -0.08     -1.05
   -2   19   12     -1.13      2.20
   -2   19   13     -1.05      1.63
   -2   19   14      1.47      0.84
   -2   19   15     -0.16      0.52
   -2   19   16      0.77     -0.01
   -2   19   17      0.82     -0.29
   -2   19   18     -0.85      0.51
   -2   19   19     -0.57      0.08
   -2   19   20     -1.74     -0.84
   -2   19   21     -0.58     -3.21
   -2   19   22     -0.61      0.18
   -2   19   23      1.62     -2.82
   -2   19   24      0.57     -0.84
   -2   19   25     -1.85     -2.39
   -2   19   26      0.79     -0.29
   -2   19   27      2.14     -0.66
   -2   19   28      0.47     -0.03
   -2   19   29      1.70      0.04
   -2   19   30     -2.26      1.33
   -2   19   31      1.99     -0.92
   -2   19   32      0.52      1.35
   -2   19   33      2.65     -1.68
   -2   19   34      0.11     -0.77
   -2   19   35      2.09     -1.38
   -2   19   36     -0.84      4.51
   -2   19   37      4.46      1.21
   -2   19   38     -1.03      2.61
   -2   19   39      4.62      4.94
   -2   19   40      0.80      1.77
   -2   19   41      0.52      3.49
   -1   19    0     -0.11     -0.53
   -1   19    1     -0.65      0.71
   -1   19    2      0.26      3.15
   -1   19    3      0.15      0.98
   -1   19    4     -0.25     -0.29
   -1   19    5      2.06      0.40
   -1   19    6     -0.25      0.15
   -1   19    7      0.92      1.80
   -1   19    8      0.48      3.24
   -1   19    9      0.24     -3.44
   -1   19   10      0.77      1.24
   -1   19   11     -0.87     -1.38
   -1   19   12     -3.63      0.10
   -1   19   13     -0.54      3.18
   -1   19   14     -0.68      0.64
   -1   19   15     -1.79     -1.34
   -1   19   16     -0.49     -3.07
   -1   19   17      2.14     -0.12
   -1   19   18      1.55     -0.74
   -1   19   19      0.77      0.60
   -1   19   20      0.18     -0.43
   -1   19   21     -0.05     -3.10
   -1   19   22     -1.67     -0.74
   -1   19   23     -0.63     -1.05
   -1   19   24      0.45     -0.22
   -1   19   25     -2.97      0.72
   -1   19   26      3.29      2.98
   -1   19   27      2.27     -1.29
   -1   19   28      2.53      0.82
   -1   19   29     -0.54      1.36
   -1   19   30     -0.32     -2.38
   -1   19   31      1.39      0.98
   -1   19   32      2.82      0.60
   -1   19   33     -0.44      0.52
   -1   19   34     -1.49     -2.22
   -1   19   35     -4.82     -3.86
   -1   19   36     -2.19     -1.43
   -1   19   37      2.71     -1.55
   -1   19   38     -2.92      3.32
   -1   19   39     -0.38      0.67
   -1   19   40     -3.47     -3.94
    0   19    0      0.69      0.11
    0   19    1     -2.86     -0.41
    0   19    2     -0.21      0.90
    0   19    3      0.76      0.32
    0   19    4      3.05      0.24
    0   19    5     -1.59     -0.11
    0   19    6      1.98     -2.78
    0   19    7     -2.42     -0.26
    0   19    8     -1.10     -0.03
    0   19    9     -2.14     -0.86
    0   19   10      2.52     -0.27
    0   19   11      0.86      0.12
    0   19   12     -1.00      0.48
    0   19   13     -2.29      0.17
    0   19   14     -1.48     -0.10
    0   19   15     -0.79     -0.11
    0   19   16      0.83     -0.33
    0   19   17     -2.18     -0.15
    0   19   18     -1.09     -0.10
    0   19   19     -1.30     -0.29
    0   19   20      2.80      0.30
    0   19   21      0.83     -0.40
    0   19   22      0.13      0.12
    0   19   23      0.75      0.02
    0   19   24     -0.22     -0.09
    0   19   25      3.60      1.63
    0   19   26      7.70      0.44
    0   19   27     -1.47      0.84
    0   19   28      5.71     -0.73
    0   19   29     -4.23      0.06
    0   19   30     -3.97     -0.09
    0   19   31     -6.40     -0.36
    0   19   32      2.84     -0.57
    0   19   33     -1.21     -0.85
    0   19   34     -2.10      0.75
    0   19   35     -6.69      0.83
    0   19   36      0.47      0.26
    0   19   38      1.06      0.00
    0   19   39     -0.75      0.52
  -10   20    0     -1.21     -0.13
  -10   20    1     -0.46      1.36
  -10   20    2      4.42      0.32
  -10   20    3      0.14      4.50
  -10   20    4      5.86      0.12
  -10   20    5      0.40      2.79
  -10   20    6      0.42      0.21
  -10   20    7      0.37      1.51
  -10   20    8     -1.43      0.14
  -10   20   10      0.46     -0.33
  -10   20   11      0.40      1.20
  -10   20   12     -3.44      0.20
  -10   20   13      0.40      0.88
  -10   20   14     -0.94      0.12
  -10   20   15      0.07      4.39
  -10   20   16      0.72     -0.03
  -10   20   17      0.29      1.42
  -10   20   18      0.67     -0.22
  -10   20   19     -0.01     -0.48
  -10   20   20     -0.73      0.33
  -10   20   21      0.03     -1.88
  -10   20   22     -0.89      0.30
  -10   20   23     -0.31      1.47
  -10   20   24     -1.00     -0.84
  -10   20   25     -0.27     -2.14
  -10   20   26      0.59     -0.14
  -10   20   27     -0.15      4.51
  -10   20   28     -0.75     -0.02
  -10   20   29     -0.07     -1.42
  -10   20   30     -1.02      0.52
  -10   20   31     -0.45     -0.10
  -10   20   32     -2.81      0.44
  -10   20   33      0.08      0.46
  -10   20   34      1.15      0.40
  -10   20   35      1.06      2.65
  -10   20   36      1.23     -0.07
  -10   20   37      0.10      2.82
  -10   20   38     -0.97      0.42
  -10   20   39      0.11     -1.28
  -10   20   40      5.83     -0.04
   -9   20    0      2.20     -0.09
   -9   20    1     -1.73      0.86
   -9   20    2      2.91      0.62
   -9   20    3     -0.16      3.46
   -9   20    4      1.65     -2.47
   -9   20    5     -1.12     -0.07
   -9   20    6     -4.64     -0.03
   -9   20    7      0.05      0.88
   -9   20    8     -0.40     -0.49
   -9   20    9     -0.39     -2.64
   -9   20   10      1.11     -0.45
   -9   20   11      1.15      0.74
   -9   20   12     -5.42      4.10
   -9   20   13     -0.21      0.06
   -9   20   14     -2.33      1.51
   -9   20   15      1.72     -2.80
   -9   20   16      0.78      0.09
   -9   20   17     -0.22     -0.50
   -9   20   18     -1.62     -0.94
   -9   20   19     -2.57     -0.37
   -9   20   20     -2.64     -0.19
   -9   20   21      0.04     -1.96
   -9   20   22      0.45     -0.34
   -9   20   23     -0.49      1.25
   -9   20   24     -1.30      0.51
   -9   20   25     -4.35     -0.58
   -9   20   26     -1.63     -1.08
   -9   20   27     -1.35     -1.12
   -9   20   28      0.79      0.20
   -9   20   29      1.26     -1.99
   -9   20   30     -3.32     -0.90
   -9   20   31      2.79     -2.70
   -9   20   32     -4.11      4.71
   -9   20   33     -0.27     -0.39
   -9   20   34     -0.32      1.12
   -9   20   35      1.25     -0.86
   -9   20   36      3.23     -0.70
   -9   20   37      0.20     -0.19
   -9   20   38     -3.75      0.27
   -9   20   39      2.08      2.86
   -9   20   40      2.80      0.07
   -8   20    0      1.21      0.20
   -8   20    1     -1.38     -0.51
   -8   20    2     -2.03      0.28
   -8   20    3      0.07     -1.58
   -8   20    4     -1.62      2.73
   -8   20    5     -0.42      0.26
   -8   20    6     -0.56     -1.76
   -8   20    7      5.42      2.88
   -8   20    8      1.03     -3.18
   -8   20    9     -0.58      0.78
   -8   20   10      2.00      0.37
   -8   20   11     -1.64     -0.07
   -8   20   12     -0.76      1.37
   -8   20   13     -1.31      1.83
   -8   20   14      0.68     -0.71
   -8   20   15      3.20     -4.72
   -8   20   16      2.50      0.75
   -8   20   17      1.81      0.54
   -8   20   18     -0.44     -0.44
   -8   20   19     -1.04     -2.32
   -8   20   20     -2.40     -1.30
   -8   20   21     -0.94     -2.61
   -8   20   22     -0.25     -0.47
   -8   20   23      0.11      0.74
   -8   20   24     -3.94     -7.29
   -8   20   25      1.61      0.32
   -8   20   26     -1.31     -2.47
   -8   20   27     -0.34     -1.35
   -8   20   28     -1.81      0.44
   -8   20   29     -1.25     -2.68
   -8   20   30      0.10     -3.16
   -8   20   31     -1.33      4.29
   -8   20   32     -2.35      0.40
   -8   20   33     -0.37     -4.68
   -8   20   34      0.89      1.54
   -8   20   35      0.92     -1.54
   -8   20   36      0.26     -3.69
   -8   20   37      0.79     -3.05
   -8   20   38     -0.78      0.01
   -8   20   39     -2.10     -5.11
   -8   20   40     -0.86      0.85
   -7   20    0      0.15      0.03
   -7   20    1      0.97     -0.84
   -7   20    2     -2.19     -3.44
   -7   20    3     -0.81     -0.56
   -7   20    4      0.38      1.41
   -7   20    5      0.48     -0.47
   -7   20    6      1.56     -0.08
   -7   20    7      3.04     -0.67
   -7   20    8     -1.57      0.14
   -7   20    9     -0.13     -0.53
   -7   20   10     -1.72      0.04
   -7   20   11     -0.10     -0.77
   -7   20   12      1.29     -0.26
   -7   20   13     -0.14      0.41
   -7   20   14     -1.93      1.77
   -7   20   15     -0.79     -2.43
   -7   20   16     -0.49     -1.08
   -7   20   17      0.58     -0.01
   -7   20   18      2.45     -1.03
   -7   20   19     -1.70      0.50
   -7   20   20     -1.02      0.52
   -7   20   21     -3.16     -0.99
   -7   20   22     -0.92      0.99
   -7   20   23      1.08      0.74
   -7   20   24     -1.02     -3.04
   -7   20   25      2.04      0.51
   -7   20   26     -1.28     -3.86
   -7   20   27      0.92     -0.72
   -7   20   28     -0.64      0.62
   -7   20   29     -1.36      1.70
   -7   20   30      0.40     -2.88
   -7   20   31      0.49     -0.97
   -7   20   32     -1.64      2.47
   -7   20   33      0.47     -1.11
   -7   20   34      0.13      1.27
   -7   20   35      0.69     -0.24
   -7   20   36     -3.22      2.57
   -7   20   37     -0.68     -0.95
   -7   20   38      3.34      2.07
   -7   20   39     -4.60     -9.92
   -7   20   40     -0.51     -2.05
   -6   20    0      1.86      0.17
   -6   20    1      2.18      1.61
   -6   20    2      1.98     -1.61
   -6   20    3      1.75     -0.84
   -6   20    4     -0.70     -0.95
   -6   20    5      2.21     -1.43
   -6   20    6     -1.17     -4.18
   -6   20    7      0.11     -1.79
   -6   20    8      2.46     -0.65
   -6   20    9     -0.54      2.50
   -6   20   10     -2.75     -1.32
   -6   20   11      1.69      1.01
   -6   20   12      0.60      0.34
   -6   20   13      0.53      0.81
   -6   20   14     -0.08      1.80
   -6   20   15     -1.27     -0.06
   -6   20   16     -4.30     -1.27
   -6   20   17     -1.17      0.07
   -6   20   18      1.80      2.40
   -6   20   19      2.34     -1.22
   -6   20   20      0.02      4.37
   -6   20   21     -1.64     -4.90
   -6   20   22     -0.13      2.37
   -6   20   23     -0.74     -0.68
   -6   20   24      0.52     -2.05
   -6   20   25     -2.54     -1.07
   -6   20   26     -0.51      2.44
   -6   20   27      1.36      3.01
   -6   20   28     -1.33     -2.47
   -6   20   29     -1.17      0.00
   -6   20   30     -0.48      1.28
   -6   20   31     -0.24     -1.94
   -6   20   32      0.66      0.12
   -6   20   33     -0.18      5.11
   -6   20   34      0.07      0.77
   -6   20   35      0.42     -3.67
   -6   20   36     -1.80      0.67
   -6   20   37      4.80     -2.53
   -6   20   38     -6.35      1.15
   -6   20   39     -5.08     -1.32
   -6   20   40     -1.36     -0.68
   -5   20    0     -0.95      0.21
   -5   20    1      0.33      0.96
   -5   20    2     -3.21     -0.44
   -5   20    3     -0.62      0.57
   -5   20    4      1.27      0.16
   -5   20    5     -0.16      0.91
   -5   20    6     -0.27     -3.40
   -5   20    7     -0.52     -1.10
   -5   20    8      2.67     -1.44
   -5   20    9      1.08      1.68
   -5   20   10     -0.77      1.31
   -5   20   11     -2.27      3.84
   -5   20   12      1.53      0.06
   -5   20   13      2.63      3.05
   -5   20   14     -0.80      0.74
   -5   20   15     -0.44      2.48
   -5   20   16     -2.33      0.45
   -5   20   17     -0.34     -2.10
   -5   20   18      1.17      1.93
   -5   20   19      2.88     -1.27
   -5   20   20      0.97      0.08
   -5   20   21      1.29     -3.20
   -5   20   22      0.24      0.28
   -5   20   23      1.40     -0.94
   -5   20   24      0.44      0.69
   -5   20   25     -1.99     -0.03
   -5   20   26     -2.60      2.12
   -5   20   27      0.10      0.43
   -5   20   28     -1.34     -1.03
   -5   20   29     -2.93     -1.51
   -5   20   30      1.19      2.63
   -5   20   31     -1.19      3.04
   -5   20   32     -0.57      3.44
   -5   20   33     -0.50      0.09
   -5   20   34     -1.20     -1.29
   -5   20   35     -4.65     -4.80
   -5   20   36     -1.30      4.30
   -5   20   37      5.38     -0.38
   -5   20   38     -4.36      3.57
   -5   20   39     -1.73     -0.64
   -5   20   40     -1.22     -2.28
   -4   20    0     -1.67      0.08
   -4   20    1     -2.25      1.92
   -4   20    2      3.65     -0.83
   -4   20    3      1.25      1.13
   -4   20    4     -1.43      0.61
   -4   20    5     -0.06     -0.07
   -4   20    6     -1.61     -1.28
   -4   20    7      0.41     -0.96
   -4   20    8     -3.08      1.59
   -4   20    9     -0.26      2.43
   -4   20   10      0.94      2.68
   -4   20   11     -0.83      1.40
   -4   20   12      1.64      0.42
   -4   20   13     -0.88      1.53
   -4   20   14     -2.11     -0.38
   -4   20   15     -0.69      0.03
   -4   20   16     -0.82      1.88
   -4   20   17     -0.71     -0.93
   -4   20   18     -0.69     -0.80
   -4   20   19      1.67      1.37
   -4   20   20      2.47     -1.82
   -4   20   21     -1.97     -5.99
   -4   20   22      0.72     -0.47
   -4   20   23     -0.79     -0.70
   -4   20   24      2.49      3.13
   -4   20   25     -0.52      2.64
   -4   20   26     -3.83      0.28
   -4   20   27      2.09      2.88
   -4   20   28      0.45      0.72
   -4   20   29     -3.05      2.61
   -4   20   30      0.09     -0.06
   -4   20   31     -2.54      1.89
   -4   20   32     -0.37      0.55
   -4   20   33      2.31     -2.47
   -4   20   34      0.90      0.54
   -4   20   35     -2.49     -0.59
   -4   20   36     -2.58     -0.88
   -4   20   37     -2.50      0.90
   -4   20   38      2.36      1.32
   -4   20   39     -8.22     -4.02
   -4   20   40     -2.76     -1.18
   -3   20    0      0.10     -0.23
   -3   20    1     -4.06     -0.59
   -3   20    2      0.32      0.50
   -3   20    3     -1.44     -1.88
   -3   20    4     -0.25      0.27
   -3   20    5     -1.71     -2.19
   -3   20    6      0.76     -1.43
   -3   20    7     -1.07      0.20
   -3   20    8      0.58     -0.37
   -3   20    9      0.19      5.65
   -3   20   10     -1.30     -1.08
   -3   20   11     -0.72     -1.16
   -3   20   12     -0.67     -0.27
   -3   20   13      0.21      0.03
   -3   20   14     -2.50      2.24
   -3   20   15     -2.10     -0.77
   -3   20   16      0.76     -1.02
   -3   20   17      2.25     -0.42
   -3   20   18     -0.78     -1.19
   -3   20   19      1.56      1.18
   -3   20   20      2.19      2.21
   -3   20   21     -0.40     -1.58
   -3   20   22      0.41      0.62
   -3   20   23     -2.04     -1.51
   -3   20   24     -0.58      4.31
   -3   20   25      3.47      0.56
   -3   20   26     -0.54      1.61
   -3   20   27      2.64      3.93
   -3   20   28     -0.04      0.04
   -3   20   29     -0.71      1.29
   -3   20   30     -1.05     -3.06
   -3   20   31      0.82     -0.60
   -3   20   32     -1.81     -2.34
   -3   20   33      3.08      1.99
   -3   20   34      2.28      1.45
   -3   20   35      4.30      4.10
   -3   20   36     -4.66      5.17
   -3   20   37     -1.27     -0.79
   -3   20   38      2.74     -1.29
   -3   20   39      0.30     -2.17
   -3   20   40      0.22      1.97
   -2   20    0     -0.47     -0.05
   -2   20    1      1.16     -0.32
   -2   20    2      1.36     -0.75
   -2   20    3      0.20     -1.14
   -2   20    4     -1.20     -0.03
   -2   20    5      0.07     -0.05
   -2   20    6     -2.55      0.95
   -2   20    7      2.70     -1.81
   -2   20    8     -1.35      0.84
   -2   20   10      0.90     -3.30
   -2   20   11      0.15     -0.28
   -2   20   12     -0.65     -2.12
   -2   20   13     -1.81     -1.14
   -2   20   14     -0.59     -0.07
   -2   20   15     -0.39     -1.92
   -2   20   16      0.11      0.21
   -2   20   17      0.27      0.42
   -2   20   18     -0.02     -1.48
   -2   20   19      0.92     -1.31
   -2   20   20      1.03      0.97
   -2   20   21      0.32      3.50
   -2   20   22      0.32     -1.30
   -2   20   23     -2.08      0.52
   -2   20   24      0.32      2.78
   -2   20   25     -3.24     -0.51
   -2   20   26      3.17      4.35
   -2   20   27      0.65      2.22
   -2   20   28      3.57     -2.88
   -2   20   29     -0.85     -1.75
   -2   20   30      1.95     -2.51
   -2   20   31     -0.19      1.56
   -2   20   32     -1.48     -0.52
   -2   20   33     -0.17      5.43
   -2   20   34     -1.62     -1.31
   -2   20   35      0.90     -4.58
   -2   20   36     -1.98      1.79
   -2   20   37      1.39     -4.00
   -2   20   38     -1.81      0.43
   -2   20   39      5.31     -0.42
   -1   20    0      1.82      0.16
   -1   20    1      0.21      2.75
   -1   20    2     -1.88      0.98
   -1   20    3      1.37     -1.50
   -1   20    4      5.30      0.37
   -1   20    5     -0.30     -0.34
   -1   20    6     -0.05     -1.92
   -1   20    7      1.79      1.56
   -1   20    8      0.66     -0.51
   -1   20    9     -1.49     -2.26
   -1   20   10      0.24      1.07
   -1   20   11     -1.90      2.01
   -1   20   12      1.25     -2.31
   -1   20   13     -1.52      0.49
   -1   20   14     -2.98     -0.97
   -1   20   15     -0.43     -1.27
   -1   20   16      1.28      0.17
   -1   20   17     -1.09      0.76
   -1   20   18      0.23     -0.65
   -1   20   19     -1.88     -0.61
   -1   20   20      4.04      1.76
   -1   20   21      1.25      0.08
   -1   20   22      1.18      0.74
   -1   20   23     -0.73      0.06
   -1   20   24      0.59     -3.24
   -1   20   25     -0.98      2.45
   -1   20   26      1.95      1.83
   -1   20   27     -5.52     -1.08
   -1   20   28      3.09      3.67
   -1   20   29     -1.78     -0.58
   -1   20   30      4.09      2.79
   -1   20   31     -3.63      3.62
   -1   20   32      1.54      3.43
   -1   20   33     -0.14      3.63
   -1   20   34      3.18      1.62
   -1   20   35     -1.61     -2.20
   -1   20   36     -3.88      3.88
   -1   20   37      1.60     -5.00
   -1   20   38      0.23     -1.78
    0   20    0      1.79     -1.17
    0   20    1     -0.97     -2.65
    0   20    2     -0.13      0.12
    0   20    3      0.43      0.27
    0   20    4      5.56      0.67
    0   20    5     -1.06      0.11
    0   20    6      0.66      0.45
    0   20    7     -0.50      0.43
    0   20    8     -1.57      0.02
    0   20    9      0.30     -0.85
    0   20   10      2.75     -0.53
    0   20   11     -1.83     -0.24
    0   20   12      1.86     -0.17
    0   20   13      3.89     -0.31
    0   20   14      2.43     -0.03
    0   20   15     -1.38      0.27
    0   20   16     -2.43      0.11
    0   20   17     -0.13     -0.19
    0   20   18     -1.23      0.37
    0   20   19     -3.70     -0.35
    0   20   20      2.14      0.17
    0   20   21     -1.09      0.38
    0   20   22     -2.46     -0.06
    0   20   23     -0.81      0.03
    0   20   24     -1.93     -0.03
    0   20   25     -0.25      4.02
    0   20   26     -2.07      0.15
    0   20   27     -0.72     -0.04
    0   20   28      1.74      0.10
    0   20   29     -3.28      0.28
    0   20   30      4.48      0.07
    0   20   31     -2.05     -0.15
    0   20   32     -0.17     -0.15
    0   20   33     -4.13     -0.16
    0   20   34      2.56      0.57
    0   20   35      1.19      0.20
    0   20   36     -4.32     -0.08
    0   20   37     -0.19     -1.09
  -10   21    0     -0.34     -0.52
  -10   21    1      4.71      5.03
  -10   21    2     -0.84     -0.55
  -10   21    3     -0.25     -2.09
  -10   21    4      8.12     -0.91
  -10   21    5     -0.16      0.83
  -10   21    6      1.23      2.45
  -10   21    7     -2.65      0.78
  -10   21    8      1.52      0.37
  -10   21    9      1.05      1.46
  -10   21   10     -0.45      1.25
  -10   21   11     -0.95      0.32
  -10   21   12     -0.97      2.17
  -10   21   13      0.06     -1.78
  -10   21   14     -0.78      2.25
  -10   21   15     -0.97      2.92
  -10   21   16      2.61      1.00
  -10   21   17      0.01      5.34
  -10   21   18     -0.15     -2.88
  -10   21   19     -2.83      4.75
  -10   21   20      0.33      1.39
  -10   21   21      1.64     -1.75
  -10   21   22      2.21      1.27
  -10   21   23     -0.22      0.58
  -10   21   24      4.68      1.01
  -10   21   25      0.03      0.96
  -10   21   26     -2.05      0.15
  -10   21   27      1.13      1.66
  -10   21   28      3.50      0.49
  -10   21   29     -1.78      1.50
  -10   21   30     -2.34      0.36
  -10   21   31      0.93     -2.61
  -10   21   32     -0.75      2.45
  -10   21   33      1.78      7.93
  -10   21   34      0.08      2.95
  -10   21   35      1.26     -3.42
  -10   21   36      0.08      1.87
  -10   21   37     -0.21      4.60
  -10   21   38      3.30      3.17
   -9   21    0     -1.39     -0.05
   -9   21    1      1.87      1.48
   -9   21    2      4.18     -0.60
   -9   21    3      1.29      1.10
   -9   21    4      1.12      1.95
   -9   21    5     -1.06     -1.10
   -9   21    6     -2.68      2.23
   -9   21    7      0.04      0.74
   -9   21    8     -0.53     -0.73
   -9   21    9      1.61     -2.01
   -9   21   10      2.72      0.29
   -9   21   11     -0.32      2.14
   -9   21   12     -2.90     -1.59
   -9   21   13      0.23     -1.42
   -9   21   14     -0.80      1.42
   -9   21   15      0.40     -2.89
   -9   21   16      0.22     -1.76
   -9   21   17      0.55     -0.42
   -9   21   18     -1.05     -1.47
   -9   21   19     -2.75     -0.75
   -9   21   20      1.63     -1.92
   -9   21   21      0.89      1.87
   -9   21   22      1.10      0.67
   -9   21   23     -2.21      1.71
   -9   21   24     -3.93     -0.09
   -9   21   25     -1.08     -0.48
   -9   21   26      0.01      0.55
   -9   21   27      2.28      0.05
   -9   21   28     -2.61      3.10
   -9   21   29     -2.32     -0.77
   -9   21   30     -3.94      0.96
   -9   21   31      0.46     -0.84
   -9   21   32     -1.34     -1.10
   -9   21   33      0.64      4.50
   -9   21   34      2.91      1.95
   -9   21   35     -0.45     -1.30
   -9   21   36      1.30     -1.98
   -9   21   37     -5.75     -1.50
   -9   21   38      0.49      2.86
   -8   21    0     -0.31     -0.08
   -8   21    1     -1.77     -1.58
   -8   21    2     -0.98     -3.42
   -8   21    3      2.19      1.27
   -8   21    4      1.00      2.43
   -8   21    5     -1.96      0.31
   -8   21    6      1.00     -2.33
   -8   21    7      0.43     -0.22
   -8   21    8     -0.49      1.40
   -8   21    9      0.18      1.80
   -8   21   10      1.49     -0.28
   -8   21   11     -0.32     -0.37
   -8   21   12      1.97     -4.12
   -8   21   13      1.82      0.26
   -8   21   14     -0.82     -1.36
   -8   21   15     -2.23     -1.89
   -8   21   16     -0.05      0.76
   -8   21   17      1.86     -0.74
   -8   21   18      0.30      0.51
   -8   21   19      0.85     -0.58
   -8   21   20      3.41     -1.17
   -8   21   21     -0.36      3.32
   -8   21   22     -0.66     -1.01
   -8   21   23     -0.46     -0.19
   -8   21   24     -1.77     -1.77
   -8   21   25      1.00      0.17
   -8   21   26      2.11      1.40
   -8   21   27     -1.90     -2.92
   -8   21   28     -3.98      1.35
   -8   21   29     -0.30      0.92
   -8   21   30     -1.59      1.22
   -8   21   31      2.14     -1.02
   -8   21   32      2.72     -1.59
   -8   21   33     -1.30     -1.90
   -8   21   34     -4.47     -0.61
   -8   21   35      1.55     -1.26
   -8   21   36      0.08     -1.97
   -8   21   37     -6.22     -0.50
   -8   21   38      4.26      1.53
   -8   21   39     -0.74    -12.75
   -7   21    0      1.09     -0.31
   -7   21    1     -0.91     -0.25
   -7   21    2      1.95     -3.37
   -7   21    3     -0.09     -0.49
   -7   21    4      1.13     -1.42
   -7   21    5      4.02     -0.37
   -7   21    6     -1.46     -1.40
   -7   21    7      2.57     -1.38
   -7   21    8      0.48     -0.01
   -7   21    9      0.57      0.67
   -7   21   10     -3.96      2.37
   -7   21   11      0.70     -2.40
   -7   21   12      0.45     -2.78
   -7   21   13     -3.03     -0.61
   -7   21   14     -2.20      1.57
   -7   21   15     -1.79     -1.57
   -7   21   16     -0.06      0.63
   -7   21   17      0.33     -0.99
   -7   21   18      1.20      2.27
   -7   21   19      2.84      0.37
   -7   21   20      0.78     -0.66
   -7   21   21     -0.86     -2.27
   -7   21   22     -1.05      2.17
   -7   21   23     -2.35      1.66
   -7   21   24      0.92     -0.68
   -7   21   25     -0.41     -1.60
   -7   21   26     -2.76      2.82
   -7   21   27     -0.17      1.88
   -7   21   28      2.21     -4.08
   -7   21   29      3.76     -2.44
   -7   21   30      0.64     -1.46
   -7   21   31      0.81     -2.03
   -7   21   32      0.79     -2.70
   -7   21   33      0.50     -2.92
   -7   21   34     -5.56     -2.68
   -7   21   35     -1.32     -1.70
   -7   21   36     -2.02     -7.29
   -7   21   37     -3.28     -1.54
   -7   21   38      2.37      1.45
   -7   21   39     -4.12     -2.49
   -6   21    0     -0.53     -0.07
   -6   21    1      1.09      0.74
   -6   21    2      0.23     -3.92
   -6   21    3     -0.42     -2.33
   -6   21    4     -1.44     -0.66
   -6   21    5      2.16      0.02
   -6   21    6     -0.07     -2.11
   -6   21    7      1.04      0.65
   -6   21    8      0.78      0.35
   -6   21    9     -0.20      2.44
   -6   21   10     -3.34     -1.49
   -6   21   11     -1.81      0.28
   -6   21   12     -0.50     -1.46
   -6   21   13      2.57     -1.45
   -6   21   14      0.60     -0.79
   -6   21   15      0.36      1.34
   -6   21   16      0.60      2.51
   -6   21   17      1.78     -0.22
   -6   21   18     -0.76     -0.45
   -6   21   19     -2.45     -1.59
   -6   21   20     -1.88     -0.87
   -6   21   21      3.09     -0.82
   -6   21   22      0.85      1.88
   -6   21   23     -0.68     -0.48
   -6   21   24     -1.63      2.23
   -6   21   25      3.69      0.64
   -6   21   26     -1.41      1.05
   -6   21   27      1.55      0.00
   -6   21   28      2.04     -4.62
   -6   21   29     -0.96     -5.46
   -6   21   30      0.72     -0.13
   -6   21   31     -3.11      0.40
   -6   21   32     -0.87      0.05
   -6   21   33     -0.99      3.52
   -6   21   34     -4.06     -4.88
   -6   21   35     -2.21     -3.54
   -6   21   36     -2.29     -2.46
   -6   21   37      0.75      0.20
   -6   21   38     -2.48      3.10
   -6   21   39     -0.19      6.24
   -5   21    0     -0.36     -0.08
   -5   21    1     -0.53     -2.07
   -5   21    2     -0.30     -2.41
   -5   21    3      0.95      2.11
   -5   21    4     -1.14     -0.81
   -5   21    5     -0.76      0.29
   -5   21    6     -2.47      3.41
   -5   21    7      1.94     -1.86
   -5   21    8      0.23      1.68
   -5   21    9      0.37      0.13
   -5   21   10      0.80     -2.39
   -5   21   11      0.59     -0.52
   -5   21   12     -0.17     -3.32
   -5   21   13     -1.10     -1.05
   -5   21   14     -2.28      2.65
   -5   21   15      0.51      0.67
   -5   21   16     -1.02      3.78
   -5   21   17      1.30      0.64
   -5   21   18      0.49     -0.61
   -5   21   19     -1.15     -0.47
   -5   21   20     -0.79     -2.56
   -5   21   21      0.36      0.02
   -5   21   22     -1.30      0.73
   -5   21   23     -1.34     -1.65
   -5   21   24      0.11      1.49
   -5   21   25      0.37      0.64
   -5   21   26      1.24      1.22
   -5   21   27      1.31      0.45
   -5   21   28     -2.07     -3.27
   -5   21   29     -2.58     -4.97
   -5   21   30     -0.70      0.16
   -5   21   31     -2.90      1.27
   -5   21   32     -0.82     -0.55
   -5   21   33     -0.09     -2.72
   -5   21   34     -2.84     -1.13
   -5   21   35     -3.83     -0.38
   -5   21   36     -3.06      1.26
   -5   21   37     -0.78      0.67
   -5   21   38     -0.66      4.91
   -5   21   39      0.05      3.62
   -4   21    0      1.81     -0.14
   -4   21    1      1.43      0.71
   -4   21    2      1.15      0.35
   -4   21    3     -0.25      0.64
   -4   21    4      2.23      2.90
   -4   21    5      1.08     -1.41
   -4   21    6     -0.36      2.52
   -4   21    7     -0.11      1.11
   -4   21    8      0.64      0.68
   -4   21    9      0.86     -2.58
   -4   21   10     -2.78     -0.04
   -4   21   11     -0.91      0.06
   -4   21   12     -0.02     -4.25
   -4   21   13     -0.61     -0.64
   -4   21   14     -0.25      2.16
   -4   21   15     -0.75      1.14
   -4   21   16      0.43      2.45
   -4   21   17     -1.20      1.67
   -4   21   18      0.96      0.37
   -4   21   19     -1.02      0.67
   -4   21   20     -3.42      5.01
   -4   21   21     -2.93     -1.22
   -4   21   22     -2.22     -0.61
   -4   21   23     -0.32     -0.70
   -4   21   24      1.56     -2.08
   -4   21   25      4.64     -0.30
   -4   21   26      2.70      2.02
   -4   21   27     -1.44      1.98
   -4   21   28     -5.10      2.37
   -4   21   29     -3.39     -0.10
   -4   21   30     -3.42     -5.36
   -4   21   31     -0.86      0.69
   -4   21   32     -0.28     -3.83
   -4   21   33     -1.74     -2.37
   -4   21   34     -0.51      2.26
   -4   21   35      3.51      4.81
   -4   21   36      0.64      2.07
   -4   21   37     -1.09     -4.37
   -4   21   38      1.13     -1.66
   -3   21    0      1.17      0.17
   -3   21    1      0.20      1.86
   -3   21    2     -0.33     -0.52
   -3   21    3     -1.84      0.13
   -3   21    4     -0.52      0.36
   -3   21    5      0.24      2.31
   -3   21    6     -1.73      2.19
   -3   21    7     -1.23      0.04
   -3   21    8     -0.06     -1.10
   -3   21    9      0.15     -3.61
   -3   21   10      0.25     -0.51
   -3   21   11      0.59     -0.76
   -3   21   12     -0.71     -2.50
   -3   21   13     -0.50     -1.08
   -3   21   14      0.21      0.12
   -3   21   15     -1.09      0.78
   -3   21   16      2.40     -1.05
   -3   21   17     -2.45      1.97
   -3   21   18      0.60      0.91
   -3   21   19     -0.41     -1.18
   -3   21   20     -0.12      1.73
   -3   21   21     -1.67      4.43
   -3   21   22     -1.03     -1.47
   -3   21   23     -0.86      2.20
   -3   21   24      0.09      0.91
   -3   21   25      6.01     -1.19
   -3   21   26     -2.11      2.97
   -3   21   27     -1.95      3.51
   -3   21   28      0.96      0.50
   -3   21   29     -1.95     -2.08
   -3   21   30     -0.04     -5.04
   -3   21   31     -2.77     -0.26
   -3   21   32      0.90     -6.88
   -3   21   33     -0.62     -0.31
   -3   21   34     -0.88     -4.19
   -3   21   35      1.42      0.83
   -3   21   36     -0.54      2.10
   -3   21   37      4.95     -3.94
   -3   21   38     -1.75     -2.85
   -2   21    0      0.33      1.71
   -2   21    1      2.24      4.01
   -2   21    2     -0.28     -0.62
   -2   21    3      0.80      0.92
   -2   21    4      3.42      0.75
   -2   21    5      2.61      1.15
   -2   21    6     -0.93     -0.08
   -2   21    7     -0.42      0.18
   -2   21    8      0.59     -1.35
   -2   21    9     -0.39     -0.55
   -2   21   10     -1.79     -2.50
   -2   21   11      0.39      1.24
   -2   21   12      1.31     -0.34
   -2   21   13     -0.76     -2.33
   -2   21   14      1.40     -0.90
   -2   21   15      0.54      0.19
   -2   21   16      0.83     -0.69
   -2   21   17     -0.02      0.42
   -2   21   18      1.39      1.77
   -2   21   19     -2.61     -0.56
   -2   21   20      1.01     -0.69
   -2   21   21     -0.82      2.39
   -2   21   22      3.44     -1.51
   -2   21   23     -3.07      0.62
   -2   21   24      2.56     -0.31
   -2   21   25      3.12     -0.31
   -2   21   26     -1.42     -0.89
   -2   21   27     -1.71      2.01
   -2   21   28     -1.76      0.12
   -2   21   29      1.43     -1.89
   -2   21   30      0.79     -1.66
   -2   21   31     -1.96     -0.45
   -2   21   32     -0.34      0.72
   -2   21   33      0.79     -0.59
   -2   21   34      6.80     -2.37
   -2   21   35     -2.61     -2.99
   -2   21   36     -2.85      3.52
   -2   21   37      2.78      0.40
   -1   21    0      0.42      0.58
   -1   21    1     -0.58      0.67
   -1   21    2      0.68      2.11
   -1   21    3     -0.07      1.81
   -1   21    4      1.05     -1.37
   -1   21    5      0.26      2.17
   -1   21    6      1.85     -1.96
   -1   21    7      0.87      1.38
   -1   21    8      2.49     -1.33
   -1   21    9     -0.05     -3.14
   -1   21   10     -0.19      0.74
   -1   21   11      0.56     -2.49
   -1   21   12      0.57     -1.11
   -1   21   13     -0.17     -0.22
   -1   21   14      1.99      0.41
   -1   21   15     -0.67      1.72
   -1   21   16     -4.46     -0.51
   -1   21   17      0.97      0.97
   -1   21   18      0.82     -3.48
   -1   21   19     -2.16      1.99
   -1   21   20     -0.15     -2.43
   -1   21   21      0.30      2.40
   -1   21   22     -0.27      1.82
   -1   21   23     -1.01     -1.89
   -1   21   24      1.14     -3.41
   -1   21   25      0.34      1.54
   -1   21   26     -1.81     -0.67
   -1   21   27      1.35     -3.41
   -1   21   28     -3.10      2.73
   -1   21   29     -0.23      0.99
   -1   21   30      0.50      3.60
   -1   21   31      3.32      1.53
   -1   21   32     -0.92      2.28
   -1   21   33      3.47     -1.66
   -1   21   34      6.71      4.40
   -1   21   35     -0.36      4.73
   -1   21   36     -4.67      8.39
    0   21    0     -0.73      0.31
    0   21    1     -1.07     -1.09
    0   21    2     -0.33     -0.22
    0   21    3      2.48      0.25
    0   21    4     -0.18      0.38
    0   21    5     -1.65      0.28
    0   21    6      1.55     -0.28
    0   21    7      1.53      0.55
    0   21    8      0.25      0.50
    0   21    9      0.33      0.64
    0   21   10     -0.67      0.35
    0   21   11      1.74     -0.61
    0   21   12      1.05     -0.31
    0   21   13      0.72     -0.30
    0   21   14      4.58      0.05
    0   21   15      2.19     -0.02
    0   21   16     -2.38      0.03
    0   21   17      0.08     -0.14
    0   21   18      0.14     -0.14
    0   21   19     -1.55      0.13
    0   21   20     -5.04      0.97
    0   21   21     -0.75     -0.06
    0   21   22     -2.90     -0.48
    0   21   23      0.03      0.11
    0   21   24     -5.19      0.11
    0   21   25     -2.25      1.24
    0   21   26     -0.50      0.24
    0   21   27      4.74      0.15
    0   21   28     -0.91      0.60
    0   21   29     -1.06     -0.06
    0   21   30     -0.71      0.37
    0   21   31      3.34      0.19
    0   21   32     -5.25     -0.22
    0   21   33      5.82      0.23
    0   21   34      0.29     -0.02
  -11   22    0      0.72      0.05
  -11   22    1     -0.02      2.44
  -11   22    2      0.27     -0.25
  -11   22    3     -0.02     -0.84
  -11   22    4      0.54     -0.25
  -11   22    5      0.04      0.77
  -11   22    7      0.13      0.02
  -11   22    8      0.77      0.04
  -11   22    9     -0.15      2.32
  -11   22   10     -0.36     -0.58
  -11   22   11      0.36      1.48
  -11   22   12      0.43     -1.05
  -11   22   13      0.42      1.28
  -11   22   14      1.49      0.09
  -11   22   15      0.21      1.56
  -11   22   16     -2.12     -0.35
  -11   22   17      1.05      3.87
  -11   22   18      1.53     -0.02
  -11   22   19      0.11      2.69
  -11   22   20     -2.79     -0.21
  -11   22   21     -1.41      0.08
  -11   22   22      1.97     -0.46
  -11   22   23      0.35      2.03
  -11   22   24      3.05      0.07
  -11   22   25      0.06     -1.40
  -11   22   26     -1.97      0.20
  -11   22   27      1.02     -4.47
  -11   22   28      2.26     -0.29
  -11   22   29     -0.01      4.85
  -11   22   30     -2.14     -1.01
  -11   22   31      1.12      6.37
  -11   22   32      3.26     -0.45
  -11   22   33     -0.15     -0.16
  -11   22   34     -2.69     -0.20
  -11   22   35     -0.62     -1.50
  -11   22   36      0.12      0.42
  -10   22    0     -1.63      0.02
  -10   22    1      1.13      1.32
  -10   22    2      1.83      0.41
  -10   22    3     -0.30      0.62
  -10   22    4      1.45      0.80
  -10   22    5     -0.73     -0.09
  -10   22    6     -2.38      2.16
  -10   22    7      2.97     -1.51
  -10   22    8      1.03      0.36
  -10   22   10     -0.93     -1.23
  -10   22   11      1.95     -1.48
  -10   22   12      0.25      0.53
  -10   22   13     -2.10      0.17
  -10   22   14     -0.47      0.10
  -10   22   15     -1.27      1.32
  -10   22   16     -1.85     -1.72
  -10   22   17      1.77      0.32
  -10   22   18     -0.60     -1.20
  -10   22   19     -0.96      1.35
  -10   22   20     -2.39      0.51
  -10   22   21     -0.35      0.79
  -10   22   22     -0.52      1.63
  -10   22   23     -1.11      2.00
  -10   22   24     -1.51     -1.91
  -10   22   25     -2.38     -0.29
  -10   22   26      0.67     -0.83
  -10   22   27      5.21      0.97
  -10   22   28      1.96      1.57
  -10   22   29     -0.08      0.49
  -10   22   30     -3.09      0.02
  -10   22   31     -0.66      2.51
  -10   22   32     -3.66      0.95
  -10   22   33      3.68      0.99
  -10   22   34      0.76     -3.84
  -10   22   35     -2.50      0.10
  -10   22   36      0.27     -1.25
  -10   22   37     -2.73      3.27
   -9   22    0      0.92      0.21
   -9   22    1     -1.74     -1.40
   -9   22    2      1.24     -1.78
   -9   22    3      1.12      0.00
   -9   22    4     -0.51     -0.54
   -9   22    5     -1.40      1.38
   -9   22    6      2.36      3.18
   -9   22    7     -0.59     -0.46
   -9   22    8     -1.47     -1.06
   -9   22    9     -0.89     -0.93
   -9   22   10     -0.68     -0.91
   -9   22   11      0.44     -0.85
   -9   22   12      1.00     -4.42
   -9   22   13      4.45     -0.34
   -9   22   14      2.79      0.05
   -9   22   15     -1.80      0.64
   -9   22   16      0.10     -2.73
   -9   22   17      0.53      1.23
   -9   22   18      1.36     -1.73
   -9   22   19     -2.93     -1.47
   -9   22   20     -0.20     -3.06
   -9   22   21     -1.14      3.26
   -9   22   22     -0.96     -0.38
   -9   22   23      0.02     -1.26
   -9   22   24     -3.48     -0.69
   -9   22   25     -1.01      0.88
   -9   22   26      2.02      2.57
   -9   22   27      0.50      3.03
   -9   22   28      0.80      1.72
   -9   22   29     -1.98     -2.42
   -9   22   30     -3.92     -0.05
   -9   22   31      1.40     -2.50
   -9   22   32     -1.22      0.06
   -9   22   33      2.21      1.79
   -9   22   34     -1.98     -1.45
   -9   22   35     -2.40     -0.71
   -9   22   36     -2.48      0.37
   -9   22   37     -3.02      3.19
   -8   22    0      0.33     -0.30
   -8   22    1     -2.45     -2.80
   -8   22    2      1.23      1.33
   -8   22    3     -1.01     -1.61
   -8   22    4     -0.35      0.29
   -8   22    5     -0.17      1.22
   -8   22    6      0.33     -2.25
   -8   22    7     -0.47      0.90
   -8   22    8     -2.12      0.30
   -8   22    9     -1.44     -2.58
   -8   22   10     -4.36      0.54
   -8   22   11      1.33     -0.23
   -8   22   12      2.64      1.19
   -8   22   13      0.36     -1.64
   -8   22   14      0.37     -0.03
   -8   22   15      2.65      0.17
   -8   22   16      1.81      1.56
   -8   22   17     -2.02      0.71
   -8   22   18     -1.29      1.20
   -8   22   19     -0.40     -0.68
   -8   22   20      0.02      1.03
   -8   22   21     -3.19      0.26
   -8   22   22      0.26      0.94
   -8   22   23      0.91      0.22
   -8   22   24      4.16     -1.62
   -8   22   25      4.00     -1.14
   -8   22   26      0.75      4.69
   -8   22   27     -3.02     -0.48
   -8   22   28      2.25      0.70
   -8   22   29      0.36     -5.03
   -8   22   30     -1.08     -5.61
   -8   22   31      1.83     -0.07
   -8   22   32      0.32      2.53
   -8   22   33     -2.09      0.14
   -8   22   34     -1.86     -2.29
   -8   22   35     -1.71     -1.30
   -8   22   36     -2.64      4.02
   -8   22   37     -0.03     -1.32
   -7   22    0      0.32      0.05
   -7   22    1     -0.42      3.06
   -7   22    2      0.54      0.41
   -7   22    3     -0.59     -6.43
   -7   22    4     -1.68      1.37
   -7   22    5      0.86      0.13
   -7   22    6     -2.30     -2.05
   -7   22    7      0.74     -0.93
   -7   22    8     -0.80     -1.49
   -7   22    9     -0.53     -1.92
   -7   22   10     -2.12      2.15
   -7   22   11     -0.10     -1.98
   -7   22   12      0.47     -0.34
   -7   22   13     -0.51      2.03
   -7   22   14     -2.29     -0.52
   -7   22   15      2.77     -1.11
   -7   22   16     -3.12      1.00
   -7   22   17     -0.70      1.83
   -7   22   18     -2.47      1.31
   -7   22   19     -0.21     -0.85
   -7   22   20      0.93     -0.71
   -7   22   21      0.22      0.49
   -7   22   22      3.83      2.26
   -7   22   23      0.20     -1.10
   -7   22   24      2.53      0.14
   -7   22   25      6.20      0.00
   -7   22   26     -3.13      2.07
   -7   22   27     -1.15     -2.62
   -7   22   28      4.02     -0.98
   -7   22   29      0.22     -0.57
   -7   22   30     -1.05     -1.65
   -7   22   31     -1.16      0.77
   -7   22   32      0.50      0.09
   -7   22   33     -2.00      5.59
   -7   22   34      2.18     -1.43
   -7   22   35     -2.68     -0.92
   -7   22   36      4.17     -0.72
   -7   22   37     -2.10      0.44
   -6   22    0      3.83     -0.26
   -6   22    1     -2.16     -0.04
   -6   22    2     -3.65     -1.17
   -6   22    3     -1.05      0.57
   -6   22    4     -3.37     -0.82
   -6   22    5     -1.47     -1.71
   -6   22    6     -4.75     -1.19
   -6   22    7      0.52     -2.10
   -6   22    8      0.55     -0.34
   -6   22    9      1.61     -3.37
   -6   22   10      1.11      1.13
   -6   22   11     -1.31     -0.32
   -6   22   12      1.57     -0.43
   -6   22   13     -1.65     -0.28
   -6   22   14     -2.12     -0.63
   -6   22   15      0.10     -0.94
   -6   22   16      0.51      1.27
   -6   22   17      1.77     -1.13
   -6   22   18     -0.96     -4.06
   -6   22   19      0.07     -0.93
   -6   22   20      1.08     -3.68
   -6   22   21      1.09      1.47
   -6   22   22     -0.39     -0.61
   -6   22   23     -2.69     -3.12
   -6   22   24      1.00      2.56
   -6   22   25      4.78     -0.43
   -6   22   26      2.66     -1.03
   -6   22   27     -0.55     -2.21
   -6   22   28      2.49      0.99
   -6   22   29      1.30     -1.76
   -6   22   30     -1.98      2.93
   -6   22   31     -1.08      0.99
   -6   22   32      0.27     -1.80
   -6   22   33      3.17      3.65
   -6   22   34      1.34     -0.67
   -6   22   35      2.10     -0.37
   -6   22   36      0.45     -0.61
   -6   22   37     -2.04      2.37
   -6   22   38      0.77     -1.20
   -5   22    0      0.91     -0.12
   -5   22    1      0.36      0.62
   -5   22    2     -1.12      1.94
   -5   22    3      0.49      0.37
   -5   22    4      0.74      1.18
   -5   22    5      2.24     -2.12
   -5   22    6     -0.48      0.12
   -5   22    7     -0.98     -3.24
   -5   22    8      0.86     -0.76
   -5   22   10      1.59      1.65
   -5   22   11     -0.05      1.68
   -5   22   12     -0.31      0.42
   -5   22   13      2.10     -3.50
   -5   22   14     -0.89      0.57
   -5   22   15      0.24     -4.36
   -5   22   16     -2.95     -0.37
   -5   22   17     -1.44      2.42
   -5   22   18      0.41     -2.65
   -5   22   19     -2.19     -0.10
   -5   22   20     -0.84     -0.77
   -5   22   21      0.61     -2.29
   -5   22   22      0.75     -2.10
   -5   22   23      0.90     -0.91
   -5   22   24      0.38     -3.68
   -5   22   25      1.83     -0.59
   -5   22   26      2.55     -0.89
   -5   22   27     -1.73     -0.35
   -5   22   28     -4.15      2.18
   -5   22   29      0.78      0.06
   -5   22   30     -1.01      3.73
   -5   22   31      1.92     -4.32
   -5   22   32      0.66     -3.68
   -5   22   33      0.21      0.82
   -5   22   34      1.92     -1.81
   -5   22   35      5.30     -1.03
   -5   22   36     -2.58     -4.96
   -5   22   37     -2.10     -0.39
   -4   22    0      1.09     -0.08
   -4   22    1     -3.25      0.14
   -4   22    2     -0.50      1.75
   -4   22    3      1.13      0.29
   -4   22    4     -1.32     -0.06
   -4   22    5      1.15      1.07
   -4   22    6     -0.34      4.43
   -4   22    7      3.28      1.87
   -4   22    8     -0.63      0.20
   -4   22    9     -0.16      0.07
   -4   22   10      2.83      2.75
   -4   22   11      1.59      1.51
   -4   22   12      0.69     -0.27
   -4   22   13     -3.15     -3.90
   -4   22   14     -0.73     -1.19
   -4   22   15      0.30     -1.55
   -4   22   16     -2.60      0.51
   -4   22   17      0.98      1.78
   -4   22   18     -0.56     -0.12
   -4   22   19     -1.56      2.85
   -4   22   20     -1.68      2.70
   -4   22   21      1.09     -0.81
   -4   22   22     -0.67     -0.72
   -4   22   23      1.11      3.71
   -4   22   24      0.12     -3.42
   -4   22   25      3.40     -0.74
   -4   22   26     -0.80     -0.17
   -4   22   27     -2.15      1.30
   -4   22   28     -0.98      0.10
   -4   22   29      2.46     -1.04
   -4   22   30     -1.13      2.25
   -4   22   31      1.12     -2.33
   -4   22   32     -0.26     -3.95
   -4   22   33     -6.33     -0.54
   -4   22   34     -0.78     -0.39
   -4   22   35      1.95     -1.12
   -3   22    0      0.85     -0.06
   -3   22    1     -0.63      0.40
   -3   22    2     -2.26     -0.04
   -3   22    3      1.20      1.24
   -3   22    4      2.37     -0.38
   -3   22    5      4.45      1.31
   -3   22    6     -3.49      5.78
   -3   22    7     -3.03     -0.02
   -3   22    8     -0.63      1.23
   -3   22    9      0.31      1.64
   -3   22   10     -0.68      0.34
   -3   22   11      0.73      0.07
   -3   22   12      1.46      2.52
   -3   22   13     -1.68      0.51
   -3   22   14      2.12      1.63
   -3   22   15     -1.49     -0.80
   -3   22   16      1.16      0.05
   -3   22   17      2.42      0.24
   -3   22   18      0.08      4.12
   -3   22   19     -0.23      0.48
   -3   22   20      0.61     -0.14
   -3   22   21     -0.61     -1.71
   -3   22   22      1.39     -0.85
   -3   22   23      0.71      0.64
   -3   22   24     -2.21      0.00
   -3   22   25     -2.43     -1.56
   -3   22   26     -1.99     -0.22
   -3   22   27     -0.30      4.99
   -3   22   28      0.38      1.04
   -3   22   29      0.69      1.30
   -3   22   30     -2.41     -3.55
   -3   22   31     -0.43     -1.64
   -3   22   32     -3.06      1.69
   -3   22   33     -0.14     -0.34
   -3   22   34     -1.81     -2.48
   -3   22   35     -2.03     -3.39
   -2   22    0     -0.25     -0.18
   -2   22    1     -0.52     -1.03
   -2   22    2      3.31      1.74
   -2   22    3     -2.11      0.67
   -2   22    4     -1.57      0.23
   -2   22    5     -0.31      0.22
   -2   22    6     -1.22     -2.08
   -2   22    7      0.16      3.51
   -2   22    8     -0.56     -1.44
   -2   22    9      1.43     -0.04
   -2   22   10     -2.24     -0.77
   -2   22   11     -0.99     -0.36
   -2   22   12     -0.61      1.53
   -2   22   13     -2.29     -0.41
   -2   22   14      1.15      3.21
   -2   22   15     -1.22      1.12
   -2   22   16      0.27     -1.22
   -2   22   17      0.10     -2.54
   -2   22   18      0.53      0.39
   -2   22   19      0.10      0.88
   -2   22   20      1.85     -0.61
   -2   22   21     -0.01     -1.31
   -2   22   22     -0.45      1.04
   -2   22   23      2.30      0.32
   -2   22   24      0.63      0.43
   -2   22   25     -1.55     -1.62
   -2   22   26     -2.46     -0.83
   -2   22   27      4.74     -0.52
   -2   22   28     -0.39      1.30
   -2   22   29     -2.50      1.98
   -2   22   30     -0.85     -2.57
   -2   22   31      1.45     -1.30
   -2   22   32      0.22      5.48
   -2   22   33      2.47     -0.53
   -2   22   34     -0.19      2.47
   -1   22    0     -1.24     -0.42
   -1   22    1      0.20      2.86
   -1   22    2     -1.54     -0.23
   -1   22    3     -0.36      0.04
   -1   22    4     -2.22      1.24
   -1   22    5     -2.84      1.14
   -1   22    6     -0.61      0.64
   -1   22    7      0.98      0.78
   -1   22    8      0.96      0.99
   -1   22    9      0.19     -0.69
   -1   22   10     -1.27      0.77
   -1   22   11      1.93     -1.47
   -1   22   12      0.04     -1.97
   -1   22   13     -0.70      0.26
   -1   22   14     -2.03     -5.46
   -1   22   15      1.32      1.42
   -1   22   16      1.50     -1.82
   -1   22   17     -0.94      3.11
   -1   22   18     -0.41     -4.49
   -1   22   19     -2.06      1.62
   -1   22   20      1.48     -0.58
   -1   22   21      2.04      4.86
   -1   22   22      0.59      0.39
   -1   22   23      2.05     -1.97
   -1   22   24      0.75     -1.34
   -1   22   25     -0.12     -2.11
   -1   22   26     -3.17     -0.40
   -1   22   27      3.22     -0.36
   -1   22   28      0.20     -1.25
   -1   22   29     -1.93      6.41
   -1   22   30     -0.44      3.59
   -1   22   31      2.89      0.47
   -1   22   32      0.15      1.19
   -1   22   33      6.38     -2.06
    0   22    0     -2.51     -0.07
    0   22    1      0.41      0.31
    0   22    2     -0.30      0.03
    0   22    3     -1.99      0.46
    0   22    4     -2.83     -0.43
    0   22    5      1.31     -0.21
    0   22    6      0.54     -0.11
    0   22    7      0.12      0.15
    0   22    8     -2.12      0.08
    0   22    9      0.86     -0.53
    0   22   10      0.81      0.24
    0   22   11     -0.08     -0.03
    0   22   12      1.29     -0.33
    0   22   13     -3.04      0.26
    0   22   14     -1.47      0.02
    0   22   15      3.72      0.00
    0   22   16      1.08      0.17
    0   22   17      4.17      0.11
    0   22   18      1.92     -0.08
    0   22   19     -1.66     -0.01
    0   22   20      1.64      0.12
    0   22   21      3.70     -0.29
    0   22   22      0.22     -0.42
    0   22   23     -3.79      0.19
    0   22   24     -3.86     -0.14
    0   22   25      0.28      0.20
    0   22   26     -6.46      0.18
    0   22   27     -1.89      0.16
    0   22   28      4.60      0.49
    0   22   29      1.20      0.15
    0   22   30     -3.76      0.13
  -11   23    0      0.64     -0.03
  -11   23    1     -2.66     -0.39
  -11   23    2     -0.70      2.08
  -11   23    3     -0.59      1.68
  -11   23    4      0.71      0.12
  -11   23    5     -0.41     -2.68
  -11   23    6     -3.84     -3.09
  -11   23    7      2.37      1.59
  -11   23    8     -1.36      1.20
  -11   23    9     -0.95      2.83
  -11   23   10     -0.46      0.66
  -11   23   11      1.00      0.00
  -11   23   12     -1.53     -1.43
  -11   23   13     -3.14      0.66
  -11   23   14      1.85     -0.51
  -11   23   15     -0.54     -2.27
  -11   23   16     -0.21      1.94
  -11   23   17     -1.13     -2.69
  -11   23   18      0.90      1.59
  -11   23   19      2.18      0.17
  -11   23   20     -3.50     -0.08
  -11   23   21     -1.98      2.51
  -11   23   22      2.45      1.83
  -11   23   23      0.93     -0.98
  -11   23   24     -0.10     -1.97
  -11   23   25     -0.55     -1.61
  -11   23   26      2.15      2.00
  -11   23   27     -0.26      0.54
  -11   23   28      0.40      0.10
  -11   23   29      0.40      0.09
  -11   23   30     -5.63     -2.90
  -11   23   31     -1.03      1.47
  -11   23   32     -2.50      0.21
  -11   23   33     -1.08     -6.32
  -11   23   34      0.10     -0.85
  -11   23   35      0.70     -1.35
  -10   23    0     -1.93     -0.03
  -10   23    1     -1.28     -1.51
  -10   23    2     -2.49      1.22
  -10   23    3     -1.47      1.95
  -10   23    4      1.95      0.47
  -10   23    5     -0.03     -1.55
  -10   23    6     -0.17      0.31
  -10   23    7     -2.64     -0.10
  -10   23    8      1.56     -0.76
  -10   23    9      0.50     -0.04
  -10   23   10      0.99     -1.28
  -10   23   11      1.39     -1.09
  -10   23   12     -0.38     -2.64
  -10   23   13      0.34     -1.15
  -10   23   14     -0.18     -1.16
  -10   23   15     -2.07     -1.25
  -10   23   16     -4.06     -0.40
  -10   23   17     -2.04     -2.43
  -10   23   18     -1.10      0.81
  -10   23   19      1.45      2.02
  -10   23   20     -1.28     -1.90
  -10   23   21     -0.78      1.92
  -10   23   22      0.06      0.57
  -10   23   23      1.56     -0.32
  -10   23   24     -1.15      0.93
  -10   23   25     -1.30      0.57
  -10   23   26     -2.10      0.10
  -10   23   27     -0.90      3.79
  -10   23   28      1.22     -0.78
  -10   23   29      1.57     -3.12
  -10   23   30     -3.83     -2.69
  -10   23   31     -3.27     -0.59
  -10   23   32     -1.16      0.20
  -10   23   33      2.88     -0.59
  -10   23   34     -0.45     -1.00
  -10   23   35     -0.80      0.54
   -9   23    0     -0.97     -0.31
   -9   23    1     -1.05     -0.49
   -9   23    2     -3.35      0.09
   -9   23    3     -0.45     -2.66
   -9   23    4     -2.88     -0.86
   -9   23    5      2.49     -1.41
   -9   23    6      3.89      3.93
   -9   23    7     -0.46     -1.72
   -9   23    8     -1.22     -0.67
   -9   23    9      0.89     -0.67
   -9   23   10     -0.93     -1.66
   -9   23   11     -2.09      2.15
   -9   23   12     -0.76      2.58
   -9   23   13     -0.86     -1.00
   -9   23   14     -1.29     -0.07
   -9   23   15      1.43     -5.21
   -9   23   16     -0.88      0.27
   -9   23   17     -0.81      1.01
   -9   23   18      0.49     -0.90
   -9   23   19     -2.00      1.52
   -9   23   20     -1.60      1.21
   -9   23   21      1.72     -1.49
   -9   23   22     -1.48     -1.46
   -9   23   23      0.74     -0.44
   -9   23   24      2.99     -1.09
   -9   23   25     -0.03      0.99
   -9   23   26     -1.58     -0.64
   -9   23   27     -2.74      0.19
   -9   23   28     -1.02      1.69
   -9   23   29      2.27     -0.56
   -9   23   30     -3.86     -1.78
   -9   23   31      3.38      0.80
   -9   23   32     -0.41      2.82
   -9   23   33      6.22      0.06
   -9   23   34     -0.45     -0.53
   -9   23   35     -4.00     -3.03
   -9   23   36     -2.41      3.25
   -8   23    0      0.97     -0.09
   -8   23    1      3.27      0.70
   -8   23    2     -0.34      0.36
   -8   23    3      1.03     -6.14
   -8   23    4      0.34     -1.30
   -8   23    5      2.60     -0.60
   -8   23    6     -0.87      0.73
   -8   23    7      3.04     -0.70
   -8   23    8     -1.85      1.06
   -8   23    9     -1.09     -4.03
   -8   23   10     -2.51      0.25
   -8   23   11      1.50      0.77
   -8   23   12     -1.11      1.86
   -8   23   13     -2.36     -0.03
   -8   23   14     -0.50      0.71
   -8   23   15      4.60     -2.92
   -8   23   16     -3.03      1.80
   -8   23   17      1.60      3.07
   -8   23   18     -0.22      1.94
   -8   23   19      1.79      0.55
   -8   23   20     -1.02      2.66
   -8   23   21      1.07     -0.91
   -8   23   22      0.32     -1.21
   -8   23   23     -0.61      3.55
   -8   23   24      2.59     -5.33
   -8   23   25      2.18     -0.50
   -8   23   26      1.68      1.54
   -8   23   27     -4.04     -4.98
   -8   23   28      1.71      0.42
   -8   23   29     -0.47      2.00
   -8   23   30      2.03     -0.85
   -8   23   31      0.03      0.74
   -8   23   32     -1.71      2.07
   -8   23   33      3.68     -1.65
   -8   23   34      3.05      0.82
   -8   23   35     -2.82     -1.80
   -8   23   36      1.80      2.13
   -7   23    0      2.88     -0.23
   -7   23    1      1.26      0.02
   -7   23    2      0.06     -1.67
   -7   23    3      0.66     -0.91
   -7   23    4      0.60     -0.60
   -7   23    5      0.14      1.28
   -7   23    6     -2.16     -2.42
   -7   23    7      0.20      0.70
   -7   23    8      1.03      0.75
   -7   23    9      0.90     -0.84
   -7   23   10     -0.88      0.65
   -7   23   11      1.60     -1.85
   -7   23   12     -1.74     -1.46
   -7   23   13     -2.99      1.63
   -7   23   14     -0.07     -1.01
   -7   23   15      1.24      2.40
   -7   23   16      1.42      1.02
   -7   23   17      2.12      0.13
   -7   23   18      0.40      1.13
   -7   23   19      0.95     -2.32
   -7   23   20      0.35      0.12
   -7   23   21     -0.70     -0.86
   -7   23   22     -0.96     -2.59
   -7   23   23     -2.51     -0.26
   -7   23   24     -0.77     -0.01
   -7   23   25     -1.11      0.24
   -7   23   26      3.08     -1.05
   -7   23   27     -1.11     -3.10
   -7   23   28      0.94     -1.33
   -7   23   29     -1.73      4.84
   -7   23   30      2.84      0.92
   -7   23   31     -0.78     -1.01
   -7   23   32      2.96      2.97
   -7   23   33      0.48     -0.69
   -7   23   34      4.30      5.60
   -7   23   35      0.76      1.13
   -7   23   36      3.12      1.72
   -6   23    0      3.19     -1.21
   -6   23    1      0.13      2.23
   -6   23    2     -0.64     -0.95
   -6   23    3      1.93      3.22
   -6   23    4     -0.42      0.46
   -6   23    5     -0.22     -0.40
   -6   23    6     -1.53     -0.56
   -6   23    7     -4.80      0.70
   -6   23    8     -0.47      1.51
   -6   23    9      0.40     -1.44
   -6   23   10      0.78      0.64
   -6   23   11     -0.13      0.52
   -6   23   12     -0.05      1.97
   -6   23   13      1.11     -0.78
   -6   23   14     -0.18     -1.33
   -6   23   15     -0.38      0.26
   -6   23   16      1.90      0.56
   -6   23   17     -1.53     -2.90
   -6   23   18     -0.48     -1.33
   -6   23   19     -1.54     -3.10
   -6   23   20     -2.10     -1.76
   -6   23   21     -0.71     -5.65
   -6   23   22      2.00     -5.11
   -6   23   23     -1.98     -1.29
   -6   23   24     -0.50      4.60
   -6   23   25     -4.28      1.51
   -6   23   26     -0.51     -0.56
   -6   23   27      2.07      3.62
   -6   23   28      1.98     -0.10
   -6   23   29      1.28      4.19
   -6   23   30     -1.41     -0.66
   -6   23   31      1.61     -1.53
   -6   23   32      0.15      1.39
   -6   23   33      2.29     -0.20
   -6   23   34      0.55      2.18
   -6   23   35      2.17      0.07
   -5   23    0      1.06      0.26
   -5   23    1     -0.30      1.71
   -5   23    2     -1.66      0.46
   -5   23    3      0.60     -1.58
   -5   23    4      2.26      3.32
   -5   23    5     -2.46      2.51
   -5   23    6      1.50     -2.22
   -5   23    7      2.77      2.99
   -5   23    8     -1.52      1.39
   -5   23    9      0.27     -1.04
   -5   23   10      0.30     -0.11
   -5   23   11     -1.44     -0.63
   -5   23   12      0.69      2.49
   -5   23   13     -0.61     -0.21
   -5   23   14     -4.00      0.03
   -5   23   15     -1.81     -1.72
   -5   23   16     -0.12      0.80
   -5   23   17     -1.05      3.61
   -5   23   18     -1.15     -2.25
   -5   23   19     -1.92     -0.46
   -5   23   20     -2.84     -0.39
   -5   23   21      3.30     -0.84
   -5   23   22      1.19     -0.68
   -5   23   23      2.12      1.99
   -5   23   24     -0.42      3.23
   -5   23   25      2.73      0.86
   -5   23   26     -0.79     -0.80
   -5   23   27      1.04      0.55
   -5   23   28      0.80      0.36
   -5   23   29      1.53      0.82
   -5   23   30      0.65      1.03
   -5   23   31      0.54      0.42
   -5   23   32     -5.97     -2.53
   -5   23   33     -1.79      3.91
   -5   23   34     -0.01     -0.05
   -5   23   35     -2.20     -0.62
   -4   23    0      0.40      0.16
   -4   23    1      1.47     -1.48
   -4   23    2     -1.22      0.88
   -4   23    3      0.24     -0.92
   -4   23    4     -1.56      0.01
   -4   23    5      2.55      0.91
   -4   23    6      0.16      4.22
   -4   23    7     -3.89     -0.49
   -4   23    8     -2.88      4.16
   -4   23    9     -0.61      1.58
   -4   23   10      2.71      2.68
   -4   23   11     -0.17      1.12
   -4   23   12     -0.06      2.97
   -4   23   13     -1.77     -0.79
   -4   23   14      0.27      2.46
   -4   23   15     -2.76     -0.42
   -4   23   16     -0.05     -0.07
   -4   23   17      4.35     -0.09
   -4   23   18     -0.02     -1.25
   -4   23   19     -3.06      0.58
   -4   23   20     -0.04     -2.01
   -4   23   21      0.15     -0.21
   -4   23   22     -1.68      2.35
   -4   23   23      3.07      0.33
   -4   23   24     -0.04     -0.37
   -4   23   25     -1.33     -1.41
   -4   23   26      1.92      0.28
   -4   23   27      0.82      1.68
   -4   23   28      0.61      0.08
   -4   23   29      0.28      0.41
   -4   23   30     -2.40     -1.47
   -4   23   31      0.24      0.37
   -4   23   32     -5.82      0.46
   -4   23   33     -0.32      4.74
   -4   23   34     -1.59      0.63
   -3   23    0     -0.56     -0.09
   -3   23    1     -5.37     -4.72
   -3   23    2      0.79      1.33
   -3   23    3      0.28     -0.82
   -3   23    4     -0.65      0.25
   -3   23    5      1.26     -1.14
   -3   23    6      0.37      0.30
   -3   23    7     -2.23     -0.19
   -3   23    8      0.15      1.61
   -3   23    9     -0.19      0.95
   -3   23   10     -1.55     -0.64
   -3   23   11     -2.18     -0.95
   -3   23   12     -0.61      4.27
   -3   23   13     -1.07     -0.13
   -3   23   14      0.81      1.43
   -3   23   15      0.67     -0.74
   -3   23   16     -0.12      0.68
   -3   23   17      1.61     -0.88
   -3   23   18     -0.59     -0.33
   -3   23   19     -0.63     -0.13
   -3   23   20      0.39     -0.36
   -3   23   21     -2.00     -3.35
   -3   23   22     -1.34     -0.61
   -3   23   23      2.86     -2.05
   -3   23   24     -1.48     -0.47
   -3   23   25     -4.02     -3.14
   -3   23   26     -4.50      1.41
   -3   23   27     -0.08     -0.55
   -3   23   28      0.75      1.22
   -3   23   29     -1.15      1.99
   -3   23   30     -0.48     -4.79
   -3   23   31     -3.42      0.72
   -3   23   32     -0.09      4.62
   -3   23   33      4.78      4.94
   -2   23    0     -1.04     -0.24
   -2   23    1     -1.47      0.83
   -2   23    2     -0.41     -1.38
   -2   23    3      0.15     -3.93
   -2   23    4     -0.96      0.24
   -2   23    5      0.77      1.65
   -2   23    6     -0.45     -2.14
   -2   23    7      0.80      1.21
   -2   23    8     -1.91     -2.06
   -2   23    9     -0.45      1.96
   -2   23   10     -2.60      0.48
   -2   23   11     -3.56     -2.75
   -2   23   12      0.75     -2.08
   -2   23   13      2.84      0.01
   -2   23   14     -0.20     -0.38
   -2   23   15     -0.42      0.51
   -2   23   16      2.67     -2.57
   -2   23   17     -0.43      1.52
   -2   23   18      0.10     -1.08
   -2   23   19     -0.90      0.58
   -2   23   20     -3.26     -3.12
   -2   23   21      1.17     -0.77
   -2   23   22      3.66     -1.92
   -2   23   23      0.71     -0.46
   -2   23   24      1.88      1.38
   -2   23   25      0.68     -0.92
   -2   23   26     -2.86      2.18
   -2   23   27      0.29     -0.71
   -2   23   28     -0.91     -1.14
   -2   23   29      0.17      0.42
   -2   23   30      7.29     -0.64
   -2   23   31      0.52      0.30
   -1   23    0     -2.11      0.11
   -1   23    1     -1.38      0.77
   -1   23    2     -1.62     -2.90
   -1   23    3      1.28      1.67
   -1   23    4     -2.16      2.95
   -1   23    5      1.22      3.65
   -1   23    6      0.42      3.82
   -1   23    7      2.62      0.16
   -1   23    8     -2.23     -0.89
   -1   23    9     -1.60      0.05
   -1   23   10     -0.73      2.20
   -1   23   11      2.97      3.12
   -1   23   12      0.25      1.71
   -1   23   13      0.17     -0.04
   -1   23   14      0.60     -5.60
   -1   23   15      1.38      3.28
   -1   23   16      2.03     -2.52
   -1   23   17      0.25      0.55
   -1   23   18      2.37      0.40
   -1   23   19     -1.47      1.62
   -1   23   20     -0.15     -1.08
   -1   23   21      0.95      5.58
   -1   23   22      4.01     -1.79
   -1   23   23     -0.77      2.58
   -1   23   24      0.87      0.27
   -1   23   25      1.25      1.54
   -1   23   26     -2.87     -0.44
   -1   23   27     -1.83     -1.98
   -1   23   28      1.49     -1.92
   -1   23   29      1.17      1.33
    0   23    0      2.91     -0.25
    0   23    1     -0.34     -0.49
    0   23    2     -3.71      0.05
    0   23    3     -2.50     -0.34
    0   23    4     -4.38     -0.32
    0   23    5      7.16      1.51
    0   23    6     -2.74     -0.30
    0   23    7      1.74      0.14
    0   23    8      1.77     -0.04
    0   23    9     -0.68      0.21
    0   23   10     -2.61     -0.05
    0   23   11      0.37      0.13
    0   23   12     -0.96     -0.60
    0   23   13     -2.78     -0.10
    0   23   14     -0.77     -0.12
    0   23   15      1.43     -0.33
    0   23   16     -1.59      0.58
    0   23   17      1.17      0.35
    0   23   18     -0.69     -0.07
    0   23   19     -1.65     -0.35
    0   23   20      3.52      0.07
    0   23   21     -0.13     -0.01
    0   23   22     -1.30     -0.15
    0   23   23     -0.14      0.35
    0   23   25     -1.81      0.13
    0   23   26     -3.29      0.16
  -12   24    0      4.42     -0.19
  -12   24    1     -0.23     -1.96
  -12   24    2     -3.17      0.12
  -12   24    3      0.07     -1.61
  -12   24    4     -1.04      0.55
  -12   24    5     -0.07     -0.54
  -12   24    6     -1.61     -0.20
  -12   24    7      0.12      0.90
  -12   24    8     -1.44     -0.38
  -12   24    9     -0.78      0.27
  -12   24   10     -6.46     -0.01
  -12   24   11     -0.77      2.91
  -12   24   12     -0.97     -0.51
  -12   24   13     -0.56     -0.08
  -12   24   14      0.55     -0.49
  -12   24   15      0.15     -2.23
  -12   24   16      7.77     -0.15
  -12   24   17     -4.21     -0.14
  -12   24   18      0.88      0.54
  -12   24   19     -0.38     -0.86
  -12   24   20      0.09      0.87
  -12   24   21      0.44      0.67
  -12   24   22     -0.83      0.44
  -12   24   23      0.11     -0.15
  -12   24   24     -0.76      0.10
  -12   24   25      0.27      1.38
  -12   24   26      4.89      0.07
  -12   24   27     -1.30      0.76
  -12   24   28     -5.13      0.38
  -12   24   29      0.47     -3.14
  -12   24   30     -0.23     -0.21
  -12   24   31     -0.34     -2.48
  -12   24   32     -2.77      0.07
  -12   24   33     -0.31      0.05
  -11   24    0     -0.95     -0.19
  -11   24    1     -0.89     -0.69
  -11   24    2      0.02      2.12
  -11   24    3      0.66      0.95
  -11   24    4      0.08      1.10
  -11   24    5      0.77     -0.35
  -11   24    7     -3.33     -1.96
  -11   24    8     -0.57      0.37
  -11   24   10      1.98      0.49
  -11   24   11     -1.63      1.83
  -11   24   13      0.10     -0.51
  -11   24   14      0.54      0.41
  -11   24   15     -1.35     -3.60
  -11   24   16      0.03      0.28
  -11   24   17     -1.83     -0.19
  -11   24   18      1.12      2.21
  -11   24   19      1.64      1.11
  -11   24   20      1.70      1.21
  -11   24   21     -0.15      2.57
  -11   24   22     -0.63      0.90
  -11   24   23      0.89     -3.22
  -11   24   24      0.44     -2.25
  -11   24   25     -0.03      0.66
  -11   24   26      0.95      1.16
  -11   24   27     -0.21      1.31
  -11   24   28     -0.55      1.88
  -11   24   29     -2.21     -1.57
  -11   24   30     -0.39     -0.94
  -11   24   31      1.25     -2.10
  -11   24   32     -0.65     -1.43
  -11   24   33     -1.98      0.05
  -11   24   34     -1.83      2.04
  -10   24    0     -0.39     -0.12
  -10   24    1     -0.81      0.00
  -10   24    2     -0.03      0.04
  -10   24    3     -0.30      2.56
  -10   24    4      3.41     -1.74
  -10   24    5      1.92      0.21
  -10   24    6     -1.31      1.57
  -10   24    7     -1.87     -0.43
  -10   24    8     -1.48     -1.16
  -10   24    9     -1.27      0.07
  -10   24   10      0.35     -0.04
  -10   24   11     -0.90      1.75
  -10   24   12      0.66     -2.54
  -10   24   13     -0.96      1.42
  -10   24   14     -0.41     -0.32
  -10   24   15     -0.27     -1.12
  -10   24   16     -1.61     -3.77
  -10   24   17     -0.16     -2.17
  -10   24   18     -0.45      1.44
  -10   24   19     -0.84     -0.82
  -10   24   20     -0.28      1.32
  -10   24   21      0.75      0.35
  -10   24   22     -2.68     -2.11
  -10   24   23      0.23     -1.98
  -10   24   24      1.79      6.28
  -10   24   25     -0.27      1.65
  -10   24   26     -1.47      0.79
  -10   24   27      1.71      3.63
  -10   24   28     -0.40      0.12
  -10   24   29     -1.82      0.29
  -10   24   30     -1.77      3.00
  -10   24   31      0.05      4.81
  -10   24   32      0.52     -1.70
  -10   24   33      5.87     -0.28
  -10   24   34     -1.94     -0.13
   -9   24    0      0.84     -0.04
   -9   24    1      1.76      1.68
   -9   24    2      0.20      1.31
   -9   24    3     -0.88      0.35
   -9   24    4     -1.01     -0.81
   -9   24    5      3.65     -1.27
   -9   24    6     -2.40      0.09
   -9   24    7     -2.68     -0.16
   -9   24    8     -2.31     -0.73
   -9   24    9     -0.82     -1.84
   -9   24   10     -1.73      0.68
   -9   24   11      2.54      0.95
   -9   24   12      0.72     -0.35
   -9   24   13      0.99      1.82
   -9   24   14      0.83      2.52
   -9   24   15     -0.31     -1.69
   -9   24   16     -2.19     -0.99
   -9   24   17      0.06     -1.29
   -9   24   18      0.34     -1.66
   -9   24   19     -3.28     -0.28
   -9   24   20     -0.23     -0.18
   -9   24   21      1.17      1.13
   -9   24   22     -0.41     -1.76
   -9   24   23     -0.89      1.98
   -9   24   24     -0.26      1.50
   -9   24   25     -0.65      1.27
   -9   24   26     -0.27     -1.16
   -9   24   27      2.62      1.22
   -9   24   28     -1.65     -0.04
   -9   24   29     -0.37      1.67
   -9   24   30     -0.71      5.22
   -9   24   31      1.95      2.69
   -9   24   32      0.14      2.63
   -9   24   33      5.41     -4.25
   -9   24   34      2.45     -3.98
   -8   24    0      0.32      0.31
   -8   24    1      1.60     -0.50
   -8   24    2      1.20     -0.12
   -8   24    3     -0.44     -1.81
   -8   24    4     -0.69     -0.04
   -8   24    5     -0.67      1.36
   -8   24    6     -2.22     -4.84
   -8   24    7      2.39     -0.33
   -8   24    8     -0.61     -0.70
   -8   24    9      0.10      0.84
   -8   24   10     -0.86      1.70
   -8   24   11      3.41     -0.63
   -8   24   12      0.76     -0.99
   -8   24   13      0.92      0.35
   -8   24   14     -0.42      0.77
   -8   24   15      0.93     -0.11
   -8   24   16     -0.99      0.88
   -8   24   17      0.31      1.24
   -8   24   18     -0.97     -2.11
   -8   24   19     -0.88      1.15
   -8   24   20     -0.48     -0.93
   -8   24   21      0.40      2.21
   -8   24   22      1.06     -1.63
   -8   24   23     -3.19      3.85
   -8   24   24      0.04      0.44
   -8   24   25     -2.34     -1.15
   -8   24   26      1.29     -0.77
   -8   24   27     -0.85     -3.55
   -8   24   28      2.41     -1.96
   -8   24   29     -0.06      1.27
   -8   24   30      0.83      1.32
   -8   24   31     -0.54     -4.23
   -8   24   32     -0.06     -0.26
   -8   24   33      0.30     -4.36
   -8   24   34     -1.22      0.28
   -7   24    0     -0.32     -0.43
   -7   24    1      0.87      0.05
   -7   24    2      0.74      0.49
   -7   24    3     -0.31     -0.04
   -7   24    4     -3.09     -2.76
   -7   24    5      1.13      1.00
   -7   24    6     -0.43      2.61
   -7   24    7      0.18      0.30
   -7   24    8      1.49      3.06
   -7   24    9      0.86      5.10
   -7   24   10      0.77      0.45
   -7   24   11      0.90      0.53
   -7   24   12     -2.16      1.97
   -7   24   13      1.75     -1.91
   -7   24   14     -0.24      0.46
   -7   24   15      0.37     -1.34
   -7   24   16      0.22     -0.61
   -7   24   17     -0.30     -1.41
   -7   24   18      0.34      1.64
   -7   24   19     -3.95     -1.74
   -7   24   20     -3.68     -0.53
   -7   24   22      1.76     -0.93
   -7   24   23      2.06     -1.75
   -7   24   24      1.19      3.95
   -7   24   25     -5.43      4.48
   -7   24   26     -3.10     -2.49
   -7   24   27      0.59     -1.09
   -7   24   28      0.06     -1.63
   -7   24   29     -0.43     -1.27
   -7   24   30     -1.35     -3.67
   -7   24   31     -3.52     -5.32
   -7   24   32      1.02      6.78
   -7   24   33      1.42     -1.31
   -7   24   34     -2.33      2.49
   -6   24    0      2.08     -0.15
   -6   24    1     -0.34      3.36
   -6   24    2      1.83      0.27
   -6   24    3     -0.38     -3.14
   -6   24    4      1.38      0.10
   -6   24    5     -1.27      0.57
   -6   24    6      0.12      2.09
   -6   24    7      2.68      3.72
   -6   24    8     -0.27      1.36
   -6   24    9     -0.75      0.55
   -6   24   10     -0.87     -2.85
   -6   24   11     -0.32      1.53
   -6   24   12     -0.41      1.56
   -6   24   13      1.76      0.86
   -6   24   14     -1.40      2.86
   -6   24   15     -0.02     -0.87
   -6   24   16     -0.46     -0.46
   -6   24   17     -0.32     -0.18
   -6   24   19     -2.79      1.85
   -6   24   20     -1.96     -2.34
   -6   24   21      0.80      3.17
   -6   24   22      2.08      0.30
   -6   24   23      2.73     -0.15
   -6   24   24      0.63      2.70
   -6   24   25     -0.28      2.51
   -6   24   26     -6.19     -0.55
   -6   24   27      1.02     -0.67
   -6   24   28      0.24      2.41
   -6   24   29      0.73     -0.85
   -6   24   30     -0.96      0.16
   -6   24   31     -2.89      2.21
   -6   24   32     -2.81      6.71
   -6   24   33      3.26      1.62
   -5   24    0     -0.62     -0.04
   -5   24    1      3.55      2.74
   -5   24    2      1.64     -2.37
   -5   24    3      0.48     -3.37
   -5   24    4      1.62      0.77
   -5   24    5     -1.89     -0.19
   -5   24    6      1.33     -0.48
   -5   24    7     -0.89      2.81
   -5   24    8     -3.90      0.47
   -5   24    9      0.12      1.12
   -5   24   10      3.66      0.08
   -5   24   11     -1.17      2.33
   -5   24   12     -0.16     -2.98
   -5   24   13     -0.47     -0.86
   -5   24   14     -0.54      1.58
   -5   24   15     -2.10      2.15
   -5   24   16      0.04     -0.24
   -5   24   17      0.16      1.04
   -5   24   18     -0.27      0.59
   -5   24   19     -1.34      1.76
   -5   24   20      2.14     -0.94
   -5   24   22      0.56     -0.07
   -5   24   23      0.41     -0.35
   -5   24   24      2.16      0.22
   -5   24   25      2.77      1.11
   -5   24   26      2.26     -0.03
   -5   24   27     -1.38     -1.49
   -5   24   28     -2.57      4.72
   -5   24   29      1.41      0.64
   -5   24   31     -0.22      0.61
   -4   24    0      0.78      0.16
   -4   24    1     -0.99      0.38
   -4   24    2      0.76      0.34
   -4   24    3      0.38      3.13
   -4   24    4     -3.14      0.74
   -4   24    5     -1.10     -2.03
   -4   24    6     -1.05      1.69
   -4   24    7     -3.82     -0.48
   -4   24    8     -0.76      1.18
   -4   24    9      0.76     -0.01
   -4   24   10      1.97     -0.67
   -4   24   11      1.24      2.01
   -4   24   12      0.37      2.23
   -4   24   13     -1.42     -1.41
   -4   24   14      1.33     -0.40
   -4   24   15     -1.47      1.40
   -4   24   16     -2.01      0.67
   -4   24   17      1.69     -0.50
   -4   24   18     -0.95     -0.73
   -4   24   19      0.18     -0.85
   -4   24   20      2.51     -1.62
   -4   24   21     -3.33      1.37
   -4   24   22     -2.27     -2.05
   -4   24   23     -1.84     -1.44
   -4   24   24      2.57     -3.30
   -4   24   25     -2.16     -0.06
   -4   24   26      1.77      3.52
   -4   24   27      0.72     -0.27
   -4   24   28     -0.54     -1.89
   -4   24   29      2.24      3.06
   -3   24    0     -1.64      0.01
   -3   24    1     -5.19     -0.17
   -3   24    2     -0.10     -0.87
   -3   24    3      0.13     -0.35
   -3   24    4     -1.08     -2.20
   -3   24    5      0.25     -1.23
   -3   24    6      0.24      0.56
   -3   24    7     -1.13     -0.76
   -3   24    8      0.68     -0.05
   -3   24    9      0.01     -0.08
   -3   24   10     -2.44     -1.71
   -3   24   11      0.65     -1.64
   -3   24   12     -0.69     -2.54
   -3   24   13      0.26     -0.43
   -3   24   14      1.49     -1.65
   -3   24   15     -0.46      0.74
   -3   24   16     -4.79     -0.84
   -3   24   17     -3.42     -1.56
   -3   24   18      1.54      0.59
   -3   24   19      2.24      0.72
   -3   24   20     -3.34     -0.65
   -3   24   21     -2.85     -1.79
   -3   24   22     -0.14     -3.47
   -3   24   23      1.19     -1.36
   -3   24   24      1.26      1.12
   -3   24   25     -0.21     -1.41
   -3   24   26     -3.46      0.97
   -3   24   27      0.54      1.69
   -3   24   28      0.70     -2.63
   -3   24   29     -1.39      0.03
   -2   24    0     -0.18     -0.28
   -2   24    1     -2.46     -0.41
   -2   24    2     -1.18     -0.50
   -2   24    3      1.10      1.30
   -2   24    4     -0.40      0.65
   -2   24    5      1.16      3.45
   -2   24    6      0.33     -1.51
   -2   24    7      3.32      1.27
   -2   24    8     -0.43      0.03
   -2   24    9     -0.50     -2.54
   -2   24   10     -0.34      0.86
   -2   24   11      0.92     -0.87
   -2   24   12      1.95      0.51
   -2   24   13      1.68     -0.19
   -2   24   14     -1.46     -2.25
   -2   24   15     -1.50      1.65
   -2   24   16      0.37     -0.67
   -2   24   17      0.47     -0.41
   -2   24   18      1.91      0.08
   -2   24   19      2.51      0.16
   -2   24   20     -0.09     -1.10
   -2   24   21     -1.40      1.49
   -2   24   22      2.06     -1.77
   -2   24   23     -2.04     -1.44
   -2   24   24      3.42     -0.14
   -2   24   25      2.77      4.34
   -2   24   26     -3.69     -1.51
   -2   24   27     -0.76     -0.82
   -1   24    0      0.20     -0.29
   -1   24    1      0.39     -2.35
   -1   24    2      0.06     -0.11
   -1   24    3     -0.56      2.87
   -1   24    4     -2.72      3.24
   -1   24    5      3.84      0.25
   -1   24    6      1.18     -1.10
   -1   24    7      4.54     -0.77
   -1   24    8     -1.14      1.48
   -1   24   10     -1.38      0.15
   -1   24   11      0.66      2.33
   -1   24   12     -1.71      4.37
   -1   24   13      1.89      1.51
   -1   24   14     -0.03     -1.94
   -1   24   15     -0.22     -1.92
   -1   24   16      0.04     -0.56
   -1   24   17      0.85      1.18
   -1   24   18     -0.58      3.75
   -1   24   19     -0.29      2.33
   -1   24   20     -0.33      0.05
   -1   24   21     -0.24      2.50
   -1   24   22      0.32      3.47
   -1   24   23     -1.27     -0.68
   -1   24   24      3.11     -1.65
    0   24    0      1.34     -0.36
    0   24    1     -2.77      0.24
    0   24    2      1.22     -0.34
    0   24    3      0.74      0.37
    0   24    4     -3.71     -0.16
    0   24    5      2.48      0.91
    0   24    6     -0.92      0.28
    0   24    7      0.72      1.30
    0   24    8     -0.07      0.22
    0   24    9     -0.82     -0.80
    0   24   10      0.01      1.54
    0   24   11      1.77      0.16
    0   24   12     -0.43     -0.47
    0   24   13     -2.87     -0.42
    0   24   14     -2.24      0.03
    0   24   15      1.20      0.12
    0   24   16     -0.88      2.80
    0   24   17     -2.81      0.01
    0   24   18     -3.13     -0.37
    0   24   19      1.91     -0.60
    0   24   20     -0.68      0.20
    0   24   21      3.03      0.29
  -12   25    0     -0.08      0.29
  -12   25    1     -0.90     -1.34
  -12   25    2     -0.33      0.04
  -12   25    3      2.05     -0.25
  -12   25    4     -3.15     -0.62
  -12   25    5      0.75     -2.02
  -12   25    6     -1.15      3.70
  -12   25    7     -0.84     -0.43
  -12   25    8      1.19      0.48
  -12   25    9     -0.52      1.07
  -12   25   10     -1.38     -1.22
  -12   25   11     -0.39      0.85
  -12   25   12      0.17      1.86
  -12   25   13     -2.48     -1.12
  -12   25   14      3.00      1.67
  -12   25   15     -1.56      2.68
  -12   25   16     -1.58      0.70
  -12   25   17      0.01     -0.56
  -12   25   18      0.06      0.12
  -12   25   19     -0.11     -1.23
  -12   25   20      1.91      0.29
  -12   25   21      0.36     -0.87
  -12   25   22     -0.19     -0.67
  -12   25   23     -1.04      0.07
  -12   25   24      0.20     -3.45
  -12   25   25      0.82      3.06
  -12   25   26      0.83     -1.26
  -12   25   27     -1.94      2.30
  -12   25   28     -2.48      1.44
  -12   25   29      0.24     -0.26
  -12   25   30      4.07     -2.63
  -12   25   31     -0.92     -2.39
  -12   25   32      0.80     -0.50
  -11   25    0     -0.76      0.06
  -11   25    1     -1.26     -1.75
  -11   25    2      3.29     -1.52
  -11   25    3     -1.40      1.02
  -11   25    4      1.67     -0.53
  -11   25    5     -1.17      1.74
  -11   25    6      2.11     -0.72
  -11   25    7      1.94     -0.77
  -11   25    8     -1.28      0.87
  -11   25    9      2.63     -1.88
  -11   25   10     -0.23     -0.48
  -11   25   11     -1.38      1.09
  -11   25   12     -0.02      2.33
  -11   25   13     -1.09      0.48
  -11   25   14      3.28     -0.33
  -11   25   15     -2.64     -0.57
  -11   25   16     -1.45     -1.72
  -11   25   17      1.46      1.66
  -11   25   18      0.92     -1.97
  -11   25   19      1.85     -2.07
  -11   25   20     -0.68      1.42
  -11   25   21     -0.22      0.68
  -11   25   22      1.04      0.85
  -11   25   23     -0.48     -1.76
  -11   25   24      1.58      1.97
  -11   25   25     -3.57      1.56
  -11   25   26      0.27      0.69
  -11   25   27      2.43     -2.50
  -11   25   28      0.01     -1.11
  -11   25   29     -1.73      1.81
  -11   25   30      5.49     -2.40
  -11   25   31      1.44      0.45
  -11   25   32     -0.37     -2.63
  -10   25    0      0.60     -0.25
  -10   25    1     -0.90     -0.31
  -10   25    2      1.47      0.34
  -10   25    3     -0.82     -1.12
  -10   25    4      0.00     -0.36
  -10   25    5     -0.65      1.00
  -10   25    6      0.61     -0.45
  -10   25    7      0.57      0.27
  -10   25    8     -0.97      1.11
  -10   25    9     -0.34     -1.49
  -10   25   10     -0.98      1.25
  -10   25   11      1.62      1.37
  -10   25   12      0.02     -3.68
  -10   25   13      0.55     -0.33
  -10   25   14      1.60      0.72
  -10   25   15     -0.53      2.31
  -10   25   16     -0.22     -0.12
  -10   25   17      0.78     -1.70
  -10   25   18      0.43      0.10
  -10   25   19      0.06     -0.26
  -10   25   20     -1.34     -1.90
  -10   25   21     -1.59      0.07
  -10   25   22     -1.53      1.57
  -10   25   23      0.76      0.91
  -10   25   24      1.44      3.93
  -10   25   25     -3.06      0.68
  -10   25   26     -0.11      2.08
  -10   25   27      6.75      1.44
  -10   25   28     -0.14     -5.53
  -10   25   29     -0.62      1.79
  -10   25   30      3.89      3.40
  -10   25   31     -0.35      3.28
   -9   25    0     -1.40     -0.07
   -9   25    1     -3.09     -0.77
   -9   25    2     -0.24      0.08
   -9   25    3      0.13     -0.96
   -9   25    4      1.95      0.76
   -9   25    5     -2.37      0.32
   -9   25    6      0.04     -1.59
   -9   25    7      0.85      0.57
   -9   25    8     -2.24     -2.04
   -9   25    9     -0.45      0.01
   -9   25   10     -1.36      0.20
   -9   25   11      0.02     -2.08
   -9   25   12      1.31     -0.26
   -9   25   13      2.05      0.38
   -9   25   14      0.46      1.88
   -9   25   15     -2.58     -0.74
   -9   25   16      1.15      2.15
   -9   25   17      0.40      0.13
   -9   25   18     -0.20     -2.12
   -9   25   19      0.37      1.41
   -9   25   20      0.60     -1.57
   -9   25   21      0.77      0.75
   -9   25   22      0.19     -1.86
   -9   25   23     -1.55      4.10
   -9   25   24     -0.18      1.26
   -9   25   25      1.15     -2.40
   -9   25   26      1.28     -0.88
   -9   25   27     -0.15      0.93
   -9   25   28     -0.14     -1.19
   -9   25   29      0.76      3.00
   -9   25   30      0.97      6.91
   -9   25   31      0.04     -1.55
   -9   25   32     -1.24     -1.63
   -8   25    0     -1.45     -0.03
   -8   25    1      0.99     -1.54
   -8   25    2      0.45      0.32
   -8   25    3     -0.42      0.83
   -8   25    4     -0.11     -0.59
   -8   25    5     -2.10     -0.75
   -8   25    6      2.06      2.65
   -8   25    7      2.88      0.52
   -8   25    8     -3.76     -0.29
   -8   25    9     -0.47      0.28
   -8   25   10      2.70      0.24
   -8   25   11     -0.54     -0.79
   -8   25   12      0.73      1.29
   -8   25   13      1.24      0.07
   -8   25   14     -0.16     -0.02
   -8   25   15     -0.19     -1.39
   -8   25   16     -0.92     -0.20
   -8   25   17     -2.31      0.17
   -8   25   18      0.51     -0.56
   -8   25   19      0.08      0.89
   -8   25   20     -0.84      1.61
   -8   25   21      1.97     -0.27
   -8   25   22      1.01      0.45
   -8   25   23     -1.15      0.78
   -8   25   24      2.77      3.93
   -8   25   25      0.45      0.18
   -8   25   26     -1.50     -1.65
   -8   25   27     -2.52      0.73
   -8   25   28     -2.07      1.68
   -8   25   29      0.13      1.88
   -8   25   30     -2.14      2.53
   -8   25   31     -0.80     -4.80
   -8   25   32     -0.01     -5.76
   -7   25    0     -0.08      0.25
   -7   25    1     -2.15     -0.65
   -7   25    2     -0.51      3.66
   -7   25    3     -0.89      1.34
   -7   25    4     -0.60     -1.90
   -7   25    5      0.19     -0.41
   -7   25    6      2.46      3.80
   -7   25    7      4.78      0.51
   -7   25    8      3.88      3.26
   -7   25    9     -0.44      0.28
   -7   25   10     -1.34     -1.21
   -7   25   11      1.61      1.61
   -7   25   12     -2.47      3.68
   -7   25   13      0.85      1.41
   -7   25   14     -0.40     -0.45
   -7   25   15     -0.33     -1.31
   -7   25   16     -1.00      0.51
   -7   25   17      1.79      0.46
   -7   25   18      3.58      1.78
   -7   25   19     -2.34      0.43
   -7   25   20     -2.49      0.16
   -7   25   21      1.46      3.88
   -7   25   22      1.18      0.43
   -7   25   23      2.01     -2.17
   -7   25   24     -0.36      0.60
   -7   25   25     -0.82      3.32
   -7   25   26     -0.41     -2.85
   -7   25   27      2.24      1.17
   -7   25   28     -2.68      3.63
   -7   25   29      1.32     -4.42
   -7   25   31     -3.57     -0.77
   -6   25    0      0.68      0.18
   -6   25    1     -3.16     -1.85
   -6   25    2      1.39     -0.08
   -6   25    3      2.87     -0.43
   -6   25    4      3.12     -0.83
   -6   25    5      2.75     -1.76
   -6   25    6     -1.06      0.46
   -6   25    7     -2.62      0.03
   -6   25    8     -2.43     -0.65
   -6   25    9     -1.01     -0.74
   -6   25   10      0.88     -0.34
   -6   25   11      1.86      0.87
   -6   25   12     -1.86      0.12
   -6   25   13     -0.01      0.37
   -6   25   14      1.16     -0.80
   -6   25   15      2.11      2.81
   -6   25   16     -1.55     -0.10
   -6   25   17      1.05      0.76
   -6   25   18     -0.12      0.25
   -6   25   19      0.97      1.78
   -6   25   20      0.74     -2.34
   -6   25   21     -1.23      3.32
   -6   25   22      0.28     -1.54
   -6   25   23      1.11     -2.56
   -6   25   24      1.24      1.41
   -6   25   25     -2.66      2.85
   -6   25   26      2.16      0.19
   -6   25   27     -0.36     -1.15
   -6   25   29      1.53     -2.01
   -6   25   30     -2.62      3.45
   -5   25    0     -1.76      0.06
   -5   25    1     -1.93     -0.05
   -5   25    2     -1.80     -1.56
   -5   25    3      2.21      2.27
   -5   25    4      0.22      0.27
   -5   25    5     -0.52     -0.24
   -5   25    6      0.88     -2.00
   -5   25    7     -0.54     -1.46
   -5   25    8     -1.90     -2.09
   -5   25    9      0.46      1.38
   -5   25   10      0.70      2.15
   -5   25   11      1.43     -1.59
   -5   25   12     -0.86      3.37
   -5   25   13     -3.37     -0.42
   -5   25   14     -1.10      0.07
   -5   25   15      0.71      0.69
   -5   25   16      0.30      0.17
   -5   25   17      2.18      1.78
   -5   25   18     -1.83     -1.67
   -5   25   19      1.83      1.33
   -5   25   20      3.83     -0.31
   -5   25   21     -0.02      1.36
   -5   25   22     -2.20     -2.10
   -5   25   23     -2.75     -0.20
   -5   25   24      1.63      0.00
   -5   25   25      0.26      2.05
   -5   25   26      3.60      5.45
   -5   25   27     -4.82     -2.11
   -5   25   28      1.79     -0.79
   -5   25   29      2.41     -0.97
   -4   25    0     -0.70      0.01
   -4   25    1      4.47      0.50
   -4   25    2     -1.06      0.22
   -4   25    3      3.94      3.47
   -4   25    4      0.71     -1.11
   -4   25    5     -0.03     -0.09
   -4   25    6     -0.88      1.19
   -4   25    7     -0.61      0.39
   -4   25    8      1.51     -0.46
   -4   25    9     -1.21     -1.23
   -4   25   10     -4.42     -0.93
   -4   25   11      1.78     -0.14
   -4   25   12      0.32      0.32
   -4   25   13      1.05      0.84
   -4   25   14      2.12      0.99
   -4   25   15      0.41      1.48
   -4   25   16     -3.09      0.16
   -4   25   17     -0.19      0.44
   -4   25   18     -1.68      1.30
   -4   25   19      2.02      1.81
   -4   25   20      1.52     -0.10
   -4   25   21     -0.82      1.00
   -4   25   22     -1.32      1.20
   -4   25   23     -1.13      1.86
   -4   25   24      0.30      1.09
   -4   25   25     -0.13      0.58
   -4   25   26      0.52      3.71
   -4   25   27      0.13      0.11
   -3   25    0      0.88      0.40
   -3   25    1      2.09     -2.49
   -3   25    2     -0.84      1.22
   -3   25    3      2.55      1.76
   -3   25    4      3.64     -0.54
   -3   25    5     -0.65      0.05
   -3   25    6     -1.07     -1.56
   -3   25    7     -0.46      1.18
   -3   25    8     -0.62      1.16
   -3   25    9     -0.12     -2.98
   -3   25   10      1.93     -0.67
   -3   25   11      0.33     -1.60
   -3   25   12     -0.91     -1.30
   -3   25   13     -0.96     -0.42
   -3   25   14      3.35      0.17
   -3   25   15     -0.96      0.89
   -3   25   16     -2.92      0.04
   -3   25   17     -1.13     -2.66
   -3   25   18      2.06     -0.63
   -3   25   19      3.70     -1.91
   -3   25   20      0.33     -1.70
   -3   25   21      1.61      0.04
   -3   25   22     -1.00      1.85
   -3   25   23      0.18      0.41
   -3   25   24     -2.83      1.05
   -2   25    0      3.48     -0.15
   -2   25    1      4.80      0.28
   -2   25    2      0.24      1.83
   -2   25    3      0.88      2.24
   -2   25    4      4.12      1.55
   -2   25    5     -2.23      0.33
   -2   25    6     -1.34     -0.34
   -2   25    7      0.75      0.34
   -2   25    8     -0.81      1.08
   -2   25    9      0.28     -0.72
   -2   25   10      3.84      0.73
   -2   25   11      0.69     -1.99
   -2   25   12      0.41     -1.20
   -2   25   13      2.66      0.45
   -2   25   14     -0.24      0.25
   -2   25   15      1.15     -1.11
   -2   25   16      1.19      1.26
   -2   25   17     -2.15      0.36
   -2   25   18      1.34     -1.03
   -2   25   19      3.40      0.41
   -2   25   20      0.05     -1.83
   -2   25   21     -0.59     -0.95
   -1   25    0      0.19      0.52
   -1   25    1      0.35      0.58
   -1   25    2      1.32     -1.32
   -1   25    3      1.18      3.96
   -1   25    4      1.73      0.90
   -1   25    5     -0.61     -1.78
   -1   25    6     -0.66     -2.44
   -1   25    7     -1.64      1.03
   -1   25    8     -1.90      0.37
   -1   25    9      0.63     -1.27
   -1   25   10      1.22      1.96
   -1   25   11     -0.33     -1.37
   -1   25   12      1.17     -0.06
   -1   25   13     -0.46      0.03
   -1   25   14     -1.64      0.47
   -1   25   15      0.71     -3.22
   -1   25   16      3.40      1.82
   -1   25   17     -4.23      0.35
   -1   25   18     -0.05     -1.22
   -1   25   19      2.89      1.26
    0   25    0      2.55      0.24
    0   25    1      0.05      1.68
    0   25    2     -0.45      0.15
    0   25    3      1.41     -0.79
    0   25    4      0.84     -0.21
    0   25    5      2.92      0.37
    0   25    6     -0.36      0.39
    0   25    7    -12.10      1.58
    0   25    8     -4.14     -0.06
    0   25    9     -0.48      0.36
    0   25   10      5.60      4.83
    0   25   11      2.88      0.01
    0   25   12      3.22      0.05
    0   25   13     -3.52     -1.14
    0   25   14     -2.79     -0.10
    0   25   15     -0.02      0.06
    0   25   16      3.98      1.61
    0   25   17     -5.85      0.21
  -13   26    0      0.26      0.18
  -13   26    1     -0.11     -2.12
  -13   26    2     -4.02      0.09
  -13   26    3      0.04      0.28
  -13   26    4      0.83     -0.31
  -13   26    5      0.22     -4.67
  -13   26    6     -0.38      3.28
  -13   26    7      0.28      0.64
  -13   26    8     -0.04     -0.20
  -13   26   10      0.81      0.07
  -13   26   11     -0.04     -4.19
  -13   26   12     -1.04      0.81
  -13   26   13     -0.86      0.62
  -13   26   14      1.10      0.29
  -13   26   15      0.09      2.42
  -13   26   16      3.44      0.36
  -13   26   17      0.54     -5.90
  -13   26   18      1.90      0.17
  -13   26   19      0.90     -3.16
  -13   26   20      3.19     -0.20
  -13   26   21     -0.66      2.14
  -13   26   22      0.23      0.80
  -13   26   23      0.05     -0.24
  -13   26   24      1.24      0.33
  -13   26   25     -0.58      0.75
  -13   26   26      1.69     -0.05
  -13   26   27      0.27      4.75
  -13   26   28      1.66      0.33
  -13   26   29     -0.23      0.33
  -13   26   30      1.10     -0.10
  -12   26    0      0.15      0.39
  -12   26    1     -0.37     -2.15
  -12   26    2     -2.43      2.29
  -12   26    3     -0.07      0.79
  -12   26    4      4.35     -0.57
  -12   26    5      1.22     -1.00
  -12   26    6      3.18      6.73
  -12   26    7     -1.68     -0.01
  -12   26    8      0.11     -1.14
  -12   26    9     -0.82      0.03
  -12   26   10     -2.17     -1.65
  -12   26   11      1.00     -2.01
  -12   26   13     -1.51      1.02
  -12   26   14      1.16      3.56
  -12   26   15     -1.80     -3.29
  -12   26   16      2.94      1.08
  -12   26   17     -0.25     -1.10
  -12   26   18     -0.08      0.46
  -12   26   19     -1.67     -2.84
  -12   26   20      0.46     -0.72
  -12   26   21     -0.87      0.31
  -12   26   22      2.90      0.66
  -12   26   23     -2.24      3.96
  -12   26   24      3.03     -2.58
  -12   26   25      3.52     -2.53
  -12   26   26     -0.27     -1.62
  -12   26   27     -3.01     -0.25
  -12   26   28      3.91      2.31
  -12   26   29     -1.34     -0.66
  -12   26   30      0.18     -2.07
  -11   26    0      1.37     -0.02
  -11   26    1      0.88      0.09
  -11   26    2      1.28     -0.80
  -11   26    3     -2.72     -0.09
  -11   26    4     -1.60      1.24
  -11   26    5      2.96     -1.25
  -11   26    6      2.28     -0.93
  -11   26    7      0.12     -1.00
  -11   26    8      0.60      2.09
  -11   26    9      1.35     -6.12
  -11   26   10      0.27      0.64
  -11   26   11     -3.63      3.54
  -11   26   12     -1.00     -3.08
  -11   26   13      0.08     -0.07
  -11   26   14     -1.06     -0.76
  -11   26   15      2.33      0.24
  -11   26   16      0.23      1.96
  -11   26   17      0.47     -0.03
  -11   26   18     -0.03      0.30
  -11   26   19      0.67      0.06
  -11   26   20     -2.45      0.74
  -11   26   21      1.68     -1.25
  -11   26   22      3.59      1.34
  -11   26   23     -2.36      2.81
  -11   26   24      1.02      2.21
  -11   26   25      0.33     -0.21
  -11   26   26     -4.04     -2.94
  -11   26   27      1.65     -2.68
  -11   26   28     -1.68     -0.27
  -11   26   29     -0.98      1.14
  -11   26   30      4.63     -4.74
  -10   26    0     -0.65      0.02
  -10   26    1     -2.25     -1.06
  -10   26    2     -0.01     -0.85
  -10   26    3      1.11     -2.21
  -10   26    4      1.58      0.70
  -10   26    5     -0.82      1.67
  -10   26    6     -0.51     -1.81
  -10   26    7      0.84     -0.02
  -10   26    8      0.50      1.91
  -10   26    9     -0.28     -2.62
  -10   26   10     -2.36      0.14
  -10   26   11     -3.67     -0.08
  -10   26   12     -1.09      0.47
  -10   26   13      0.17     -1.39
  -10   26   14      1.40      0.38
  -10   26   15      2.97      0.26
  -10   26   16      3.20     -0.05
  -10   26   17      2.48     -2.23
  -10   26   18      0.52      1.47
  -10   26   19      0.79      1.10
  -10   26   20     -1.10     -1.54
  -10   26   21     -0.32      0.19
  -10   26   22     -1.44      0.73
  -10   26   23      1.20      0.71
  -10   26   24     -2.74     -1.72
  -10   26   25     -1.09      2.60
  -10   26   26     -0.64     -1.28
  -10   26   27     -0.85     -2.09
  -10   26   28     -1.70     -2.35
  -10   26   29      0.19      2.48
  -10   26   30      7.26     -1.77
   -9   26    0      0.09     -0.30
   -9   26    1      2.54     -0.25
   -9   26    2      3.38     -1.67
   -9   26    3      0.80      0.17
   -9   26    4      2.82     -0.58
   -9   26    5     -1.70      0.56
   -9   26    6      0.32      0.30
   -9   26    7     -3.28      0.38
   -9   26    8     -1.55     -1.53
   -9   26    9      0.32     -1.92
   -9   26   10      2.46     -0.19
   -9   26   11     -1.25     -3.89
   -9   26   12      0.50      5.04
   -9   26   13      1.14     -0.40
   -9   26   14      2.49     -0.30
   -9   26   15     -0.05     -1.14
   -9   26   16      0.51     -2.51
   -9   26   17      0.00     -0.82
   -9   26   18     -0.43     -0.01
   -9   26   19      0.23     -0.63
   -9   26   20      1.52      3.26
   -9   26   21     -1.50     -0.15
   -9   26   22     -0.04     -0.48
   -9   26   23     -0.65      1.94
   -9   26   24     -2.45      1.41
   -9   26   25      0.58     -0.83
   -9   26   26      1.95     -2.36
   -9   26   27     -5.99     -0.61
   -9   26   29      2.06      5.79
   -8   26    1      3.13     -0.60
   -8   26    2      3.69      1.15
   -8   26    3     -0.95      2.29
   -8   26    4     -1.38      0.74
   -8   26    5      0.58     -0.27
   -8   26    6      3.51     -0.42
   -8   26    7      0.25      0.63
   -8   26    8      1.78     -0.82
   -8   26   10      2.07      1.58
   -8   26   11     -1.12     -2.05
   -8   26   12      1.03     -0.69
   -8   26   13     -2.54      0.16
   -8   26   14      3.31     -1.50
   -8   26   15      1.72      1.28
   -8   26   16      1.35      0.04
   -8   26   17      0.07      2.16
   -8   26   19      0.21     -3.45
   -8   26   20     -0.47      3.21
   -8   26   21     -3.36      3.01
   -8   26   22      1.95      1.90
   -8   26   23      0.59      0.49
   -8   26   24     -0.56      0.09
   -8   26   25     -2.82     -0.30
   -8   26   26      5.02     -0.57
   -8   26   28     -2.53      2.71
   -8   26   29      0.05      2.05
   -7   26    0      0.41     -0.37
   -7   26    1     -2.50     -1.81
   -7   26    2      3.87      1.52
   -7   26    4      1.08      1.20
   -7   26    5     -0.78     -0.05
   -7   26    6      0.66     -2.02
   -7   26    7     -3.87      2.33
   -7   26    8     -2.02     -1.65
   -7   26    9      1.03     -2.54
   -7   26   10     -1.08      0.24
   -7   26   11     -0.31      0.24
   -7   26   12      0.16      0.25
   -7   26   13     -0.03      0.00
   -7   26   14      3.01     -3.28
   -7   26   15     -0.83      2.29
   -7   26   16      3.28      2.43
   -7   26   17     -0.38      0.07
   -7   26   18     -0.42      0.97
   -7   26   19      1.15     -2.59
   -7   26   20     -2.06      1.41
   -7   26   22     -1.81      1.98
   -7   26   23      1.24      0.49
   -7   26   24     -0.11     -2.73
   -7   26   25     -2.84     -0.14
   -7   26   27      5.30      0.09
   -7   26   28      2.09      0.57
   -6   26    0     -2.00      0.51
   -6   26    1     -4.83     -1.94
   -6   26    2      0.04      0.63
   -6   26    3      1.64      0.89
   -6   26    4      2.56     -0.31
   -6   26    5     -1.78     -1.73
   -6   26    6     -1.11     -0.66
   -6   26    7     -7.08     -1.42
   -6   26    8     -6.57     -4.65
   -6   26    9     -0.78     -0.88
   -6   26   10     -0.39      1.96
   -6   26   11      0.52     -0.97
   -6   26   12      0.15      4.27
   -6   26   13     -1.09     -0.22
   -6   26   14      0.53      0.25
   -6   26   15      2.67     -1.12
   -6   26   16      2.03      0.92
   -6   26   17     -1.74     -0.59
   -6   26   18      0.11     -0.74
   -6   26   19      2.16     -0.20
   -6   26   20     -1.50     -0.69
   -6   26   22     -2.59     -0.62
   -6   26   23     -1.46     -0.61
   -6   26   24     -0.80     -1.16
   -6   26   25      2.14     -0.85
   -6   26   26     -0.25      0.84
   -6   26   27      3.27     -0.97
   -5   26    0      1.17     -0.12
   -5   26    1      3.38      2.90
   -5   26    2      2.43     -0.32
   -5   26    3      1.71     -0.32
   -5   26    4     -3.97     -3.33
   -5   26    5     -1.39      0.38
   -5   26    6      2.53     -2.65
   -5   26    7     -0.21     -1.05
   -5   26    8      0.66     -1.57
   -5   26    9      0.84      1.68
   -5   26   10     -1.64      1.81
   -5   26   11      4.23      0.79
   -5   26   12      1.83      3.43
   -5   26   13      0.50     -0.15
   -5   26   14     -1.54     -1.35
   -5   26   15      0.15      0.00
   -5   26   16      0.23     -0.60
   -5   26   17     -3.12      0.14
   -5   26   19      1.24      2.38
   -5   26   20      1.79      1.80
   -5   26   21      0.80     -2.08
   -5   26   22     -0.93      1.42
   -5   26   23     -0.17      1.01
   -5   26   24      2.44     -0.49
   -4   26    0      2.46      0.13
   -4   26    1      1.30     -3.04
   -4   26    2      1.62      0.24
   -4   26    3      1.65     -1.07
   -4   26    4      0.93     -0.21
   -4   26    5      0.01     -2.17
   -4   26    6      0.37     -3.15
   -4   26    7      2.57      1.81
   -4   26    8      0.75     -0.14
   -4   26    9      1.04      0.75
   -4   26   10     -1.19     -1.05
   -4   26   11      1.78      0.77
   -4   26   12      0.66      0.46
   -4   26   13      0.24     -1.28
   -4   26   14     -0.01     -2.22
   -4   26   15      2.68     -0.04
   -4   26   16      2.05     -2.45
   -4   26   17     -1.15     -1.05
   -4   26   18     -1.00     -0.08
   -4   26   19      0.34     -1.51
   -4   26   20      3.90      1.71
   -4   26   21      1.29      1.02
   -3   26    0      0.66     -0.31
   -3   26    1      0.64     -0.43
   -3   26    2     -2.47     -0.02
   -3   26    3     -1.09     -3.20
   -3   26    4      2.34      1.50
   -3   26    5     -1.51     -3.23
   -3   26    6      2.43      2.98
   -3   26    7     -2.17      1.25
   -3   26    8     -0.84      2.29
   -3   26    9      0.07      1.29
   -3   26   10      4.38      1.18
   -3   26   11      0.61     -0.36
   -3   26   12     -0.69     -0.39
   -3   26   13      1.72     -0.63
   -3   26   14     -0.52     -0.84
   -3   26   15      2.84     -2.13
   -3   26   16      0.19     -1.38
   -3   26   17      1.19      1.92
   -3   26   19     -1.19     -2.53
   -2   26    0      1.84     -0.43
   -2   26    1      0.48      3.00
   -2   26    2     -1.11     -2.17
   -2   26    4      0.74     -0.24
   -2   26    5     -6.12      3.20
   -2   26    6     -0.97      2.34
   -2   26    7      0.40      0.76
   -2   26    8      2.07      0.63
   -2   26    9     -2.67      1.77
   -2   26   10     -1.10      0.25
   -2   26   11      0.24     -1.94
   -2   26   12      1.13     -3.98
   -2   26   13      1.03     -2.00
   -2   26   14      0.10      1.79
   -2   26   15     -0.37     -2.26
   -2   26   16      0.60      1.00
   -2   26   17     -0.99      3.45
   -1   26    0      1.37     -0.63
   -1   26    1     -0.13      2.01
   -1   26    2     -0.02     -2.90
   -1   26    3      0.11      1.13
   -1   26    4     -2.78     -0.31
   -1   26    5      0.72      0.75
   -1   26    6      0.51     -0.20
   -1   26    7     -4.80     -0.27
   -1   26    8      0.54     -1.83
   -1   26    9      1.63      0.73
   -1   26   10      0.84      4.00
   -1   26   11     -1.41     -1.59
   -1   26   13     -2.01     -5.11
   -1   26   14     -1.98      0.72
   -1   26   15     -4.46      0.51
    0   26    0      4.96     -0.27
    0   26    1     -0.62      0.30
    0   26    2     -1.05      0.08
    0   26    3      1.84      0.01
    0   26    4     -0.02      1.20
    0   26    5     -0.26     -0.20
    0   26    6      2.46     -0.55
    0   26    7     -3.81     -0.48
    0   26    8     -2.81      0.09
    0   26    9      1.70     -0.08
    0   26   10      3.88      0.63
    0   26   11     -1.27      0.33
    0   26   12     -3.02      0.07
  -13   27    0     -0.19     -0.04
  -13   27    1      2.18     -0.76
  -13   27    2     -3.83     -0.14
  -13   27    3      0.02     -1.74
  -13   27    4     -2.49     -0.52
  -13   27    5     -0.35     -2.47
  -13   27    6     -0.28      3.03
  -13   27    7     -0.10     -3.87
  -13   27    8     -0.40     -0.33
  -13   27    9     -0.25     -1.99
  -13   27   10      1.33      0.36
  -13   27   11      0.03      1.80
  -13   27   12     -1.33      2.27
  -13   27   13     -3.51      1.43
  -13   27   14      0.72      0.87
  -13   27   15     -0.56     -1.35
  -13   27   16      3.71     -0.38
  -13   27   17     -0.97     -3.32
  -13   27   18     -0.03      0.14
  -13   27   19     -0.42      0.11
  -13   27   20     -0.86      1.07
  -13   27   21      1.12     -0.45
  -13   27   22      2.69     -1.64
  -13   27   23     -2.61     -0.91
  -13   27   24     -0.39     -2.44
  -13   27   25      1.06      0.75
  -13   27   26     -0.03     -0.65
  -13   27   27     -2.17     -0.18
  -13   27   28      1.53      4.17
  -12   27    0     -0.33     -0.18
  -12   27    1      0.70     -1.22
  -12   27    2      1.71     -1.54
  -12   27    3     -1.36     -1.76
  -12   27    4      0.12      0.71
  -12   27    5      1.92      0.40
  -12   27    6      2.23     -0.10
  -12   27    7     -1.53      0.36
  -12   27    8     -3.05      0.64
  -12   27    9      0.34     -2.61
  -12   27   10     -0.59      0.82
  -12   27   11     -0.72      1.30
  -12   27   12     -0.30      0.51
  -12   27   13     -3.67     -0.55
  -12   27   14      1.96     -0.73
  -12   27   15      1.85     -2.67
  -12   27   16      2.71     -0.39
  -12   27   17     -3.00      3.01
  -12   27   18      0.28     -0.43
  -12   27   19     -2.11     -3.11
  -12   27   20     -3.36      1.96
  -12   27   21      1.46     -0.94
  -12   27   22      0.95     -0.70
  -12   27   23     -6.44      3.89
  -12   27   24     -1.36     -3.85
  -12   27   25      4.33      0.23
  -12   27   26     -0.56     -0.23
  -12   27   27      2.18     -2.44
  -12   27   28      4.18      4.59
  -11   27    0     -0.54      0.08
  -11   27    1     -2.33     -0.35
  -11   27    2     -0.07     -0.74
  -11   27    3     -0.69     -1.95
  -11   27    4      0.74      2.10
  -11   27    5      0.16      1.13
  -11   27    6     -0.31     -2.20
  -11   27    7     -3.69      3.19
  -11   27    8     -1.07     -0.29
  -11   27    9      0.37      0.20
  -11   27   10      0.66     -0.23
  -11   27   11     -0.14      0.90
  -11   27   12      1.95     -1.82
  -11   27   13      0.50     -0.34
  -11   27   14      1.27     -0.96
  -11   27   15      2.62      2.10
  -11   27   16     -0.03     -0.62
  -11   27   17     -2.67     -0.78
  -11   27   18     -1.31     -0.39
  -11   27   19     -4.07     -3.04
  -11   27   20     -0.16      1.06
  -11   27   21      0.01      0.66
  -11   27   22     -1.93      1.15
  -11   27   23     -2.74      0.25
  -11   27   24     -0.24     -3.07
  -11   27   25      2.25      2.05
  -11   27   26     -0.75     -0.42
  -11   27   27      3.41      1.35
  -10   27    0     -1.46      0.30
  -10   27    1      0.85      1.04
  -10   27    2      1.10     -1.59
  -10   27    3     -0.34      1.28
  -10   27    4     -1.34     -1.75
  -10   27    5     -5.09      4.73
  -10   27    6     -1.49      0.61
  -10   27    7      0.45      3.02
  -10   27    8      0.92     -0.92
  -10   27    9      0.48      0.06
  -10   27   10      3.59      2.67
  -10   27   11      2.22     -2.69
  -10   27   12     -0.26      2.23
  -10   27   13     -1.29      0.73
  -10   27   14     -0.07     -0.41
  -10   27   15     -0.25     -0.40
  -10   27   16     -5.07     -2.75
  -10   27   17     -2.42     -1.11
  -10   27   18     -2.86     -0.07
  -10   27   19     -0.38     -1.79
  -10   27   20     -0.27     -2.73
  -10   27   21     -1.51      1.50
  -10   27   22     -0.46      1.50
  -10   27   23      1.22     -3.41
  -10   27   24     -0.14     -0.59
  -10   27   25     -0.82      2.69
  -10   27   26      2.36     -0.23
  -10   27   27     -3.95      1.95
   -9   27    0     -2.19      0.06
   -9   27    1      2.31     -1.54
   -9   27    2     -1.39      1.02
   -9   27    3     -1.63      1.17
   -9   27    4     -1.12     -0.69
   -9   27    5      1.55      0.75
   -9   27    6      0.32     -1.11
   -9   27    7      1.28     -0.09
   -9   27    8      5.06     -2.48
   -9   27    9      1.43     -2.92
   -9   27   10     -0.62      4.22
   -9   27   11      3.62     -4.05
   -9   27   12     -0.35      0.06
   -9   27   13     -1.50      1.19
   -9   27   14     -0.36      1.82
   -9   27   15     -1.58      3.22
   -9   27   16      0.08     -1.33
   -9   27   17     -0.96      2.28
   -9   27   18     -2.10      2.21
   -9   27   19     -0.25     -0.65
   -9   27   20     -0.55     -4.23
   -9   27   21     -2.85     -0.66
   -9   27   22      2.56     -0.33
   -9   27   23      1.17      0.37
   -9   27   24      1.70      0.63
   -9   27   25     -0.38     -1.36
   -9   27   26      0.60      0.08
   -8   27    0     -0.84     -0.11
   -8   27    1      2.73      0.07
   -8   27    2      4.05      0.14
   -8   27    3      0.82      0.43
   -8   27    4     -3.78      1.66
   -8   27    5      2.59     -1.49
   -8   27    6      2.04     -4.70
   -8   27    7     -2.52      2.03
   -8   27    8      3.54     -2.75
   -8   27    9      0.19     -0.96
   -8   27   10      2.40     -0.42
   -8   27   11      0.03     -0.98
   -8   27   12     -2.19     -3.33
   -8   27   13      0.66      1.50
   -8   27   14      1.95     -0.20
   -8   27   15     -0.04      2.74
   -8   27   16     -0.57      0.65
   -8   27   17     -0.36      0.95
   -8   27   18      1.34     -1.17
   -8   27   19     -1.52     -0.75
   -8   27   20     -2.32     -0.32
   -8   27   21     -0.60     -0.96
   -8   27   22      4.12      1.77
   -8   27   23     -0.27      0.15
   -8   27   24      0.64      0.82
   -8   27   25     -1.26      1.50
   -8   27   26      1.43     -0.57
   -7   27    0     -3.00      0.51
   -7   27    1     -5.38     -0.34
   -7   27    2      2.16     -2.47
   -7   27    3      0.00      1.13
   -7   27    4      0.97     -1.19
   -7   27    5     -6.50     -2.34
   -7   27    6     -0.74     -1.05
   -7   27    7      0.56      3.93
   -7   27    8     -0.12     -0.95
   -7   27    9      0.42     -2.26
   -7   27   10      1.70     -0.61
   -7   27   11     -2.75      2.22
   -7   27   12      0.14     -0.61
   -7   27   13     -3.11      2.12
   -7   27   14     -0.80      1.42
   -7   27   15      1.90     -3.24
   -7   27   16      1.12     -0.87
   -7   27   17     -0.34     -1.62
   -7   27   18      0.03     -1.42
   -7   27   19      3.71     -0.31
   -7   27   20     -4.00     -0.60
   -7   27   21      1.78     -0.52
   -7   27   22     -1.04      2.73
   -7   27   23     -1.71      0.84
   -6   27    0      0.04      0.08
   -6   27    1      2.42      1.92
   -6   27    2     -1.99     -0.74
   -6   27    3      2.88     -0.54
   -6   27    4      0.44     -1.87
   -6   27    5     -1.82      0.56
   -6   27    6      1.28      0.66
   -6   27    7     -0.39      2.22
   -6   27    8      0.91      0.56
   -6   27    9     -0.41     -1.02
   -6   27   10     -1.20      1.54
   -6   27   11      0.88      1.23
   -6   27   12      0.16     -0.62
   -6   27   13     -1.07     -3.27
   -6   27   14      0.59      1.62
   -6   27   15      0.99     -2.40
   -6   27   16      3.01     -1.19
   -6   27   17     -1.62      1.73
   -6   27   18      4.97     -0.76
   -6   27   19      1.81     -0.12
   -6   27   20     -2.86     -2.32
   -6   27   21      0.84     -2.54
   -5   27    0      1.85     -0.02
   -5   27    1      0.18      4.85
   -5   27    2      3.22     -0.22
   -5   27    3     -0.29      0.41
   -5   27    4     -3.24      0.47
   -5   27    5      3.63      2.78
   -5   27    6      0.07     -4.96
   -5   27    7      0.74      0.06
   -5   27    8      1.54     -2.32
   -5   27    9      0.97      0.16
   -5   27   10     -0.91     -1.04
   -5   27   11      1.17      0.00
   -5   27   12      2.00      1.17
   -5   27   13     -1.13     -3.94
   -5   27   14      1.25     -0.50
   -5   27   15      0.68      2.14
   -5   27   16      1.36     -2.36
   -5   27   17     -3.39     -1.46
   -5   27   18      2.71     -0.39
   -5   27   19     -1.39     -3.96
   -4   27    0     -1.29     -0.09
   -4   27    1     -5.40      0.18
   -4   27    2     -0.40     -0.27
   -4   27    3     -2.00      0.02
   -4   27    4     -2.68     -0.64
   -4   27    5      3.99     -4.09
   -4   27    6     -0.86      2.02
   -4   27    7     -0.55     -0.27
   -4   27    8     -2.10     -1.29
   -4   27    9     -1.30      0.43
   -4   27   10     -0.15      1.51
   -4   27   11     -3.72     -0.63
   -4   27   12      1.92      3.22
   -4   27   13     -3.40      0.29
   -4   27   14     -1.34      0.54
   -4   27   15      4.15     -0.81
   -4   27   16     -1.11     -4.41
   -4   27   17     -0.72     -1.39
   -3   27    0      1.67      0.01
   -3   27    1     -0.81     -0.93
   -3   27    2     -3.14     -0.19
   -3   27    3     -3.13     -2.58
   -3   27    4     -1.85     -3.32
   -3   27    5     -2.78     -0.13
   -3   27    6      1.12      0.94
   -3   27    7      1.40      2.39
   -3   27    8      1.66      3.02
   -3   27    9     -2.26     -2.10
   -3   27   10     -4.71      2.69
   -3   27   11     -0.88      1.34
   -3   27   12      1.22      2.60
   -3   27   13     -0.18      2.04
   -3   27   14     -0.31      1.97
   -3   27   15      2.06     -2.05
   -2   27    0      2.77     -0.02
   -2   27    1     -0.31     -2.23
   -2   27    2      2.74     -2.84
   -2   27    3      0.98     -4.16
   -2   27    4     -3.48     -1.68
   -2   27    5     -1.64      3.58
   -2   27    6      1.85     -4.83
   -2   27    7      1.40     -0.66
   -2   27    8      4.90      0.25
   -2   27    9     -0.50      0.40
   -2   27   10     -5.05      1.32
   -2   27   11      0.30     -0.58
   -2   27   12      0.83     -1.31
   -2   27   13     -0.21     -6.04
   -1   27    0      3.28      0.19
   -1   27    1     -0.48     -3.15
   -1   27    2      0.27     -1.24
   -1   27    4     -0.01      1.03
   -1   27    5      0.38      0.08
   -1   27    6      2.15     -3.94
   -1   27    7      0.47     -1.68
   -1   27    8      2.76     -3.12
   -1   27    9      3.71      0.11
   -1   27   10     -1.57      2.06
    0   27    0     -1.80     -0.17
    0   27    1      3.41     -0.52
    0   27    2     -0.59      0.19
    0   27    3      0.00     -0.14
    0   27    4      2.22      0.04
    0   27    5     -0.48     -0.21
    0   27    6      2.20      0.05
    0   27    7      0.57     -0.33
  -14   28    0     -1.22      0.20
  -14   28    1      0.63     -1.05
  -14   28    2      1.55     -0.20
  -14   28    3     -0.01     -0.24
  -14   28    4     -5.64     -0.25
  -14   28    5      0.22     -0.24
  -14   28    6      0.12     -0.26
  -14   28    7      0.15     -0.77
  -14   28    8      0.31      0.42
  -14   28    9     -0.10      0.61
  -14   28   10     -0.06     -0.20
  -14   28   11      0.67      0.95
  -14   28   12      0.63     -0.27
  -14   28   13      0.00      1.12
  -14   28   14      0.42     -0.19
  -14   28   15     -0.35      0.75
  -14   28   16      2.75     -0.61
  -14   28   17      0.29      0.85
  -14   28   18      0.70      0.17
  -14   28   19      0.18     -2.17
  -14   28   20     -2.70     -0.19
  -14   28   21      0.18      0.50
  -14   28   22     -1.69     -1.21
  -14   28   23     -0.01     -5.27
  -14   28   24     -2.84      0.40
  -14   28   25      0.07      6.71
  -13   28    0     -0.33     -0.11
  -13   28    1      3.31     -0.01
  -13   28    2      2.40     -1.31
  -13   28    3      0.09     -0.46
  -13   28    4     -5.05      3.07
  -13   28    5     -6.27     -1.48
  -13   28    6     -0.40     -0.17
  -13   28    7      2.97      0.52
  -13   28    8      1.99     -1.71
  -13   28    9      0.25     -2.98
  -13   28   10     -0.09      1.71
  -13   28   11      1.09     -0.15
  -13   28   12      0.65      2.78
  -13   28   13     -2.62     -1.70
  -13   28   14      1.27      0.77
  -13   28   15      0.81      0.04
  -13   28   16     -2.49      0.57
  -13   28   17     -4.66      3.38
  -13   28   18      2.01      0.55
  -13   28   19     -3.07     -0.23
  -13   28   20     -2.60     -0.29
  -13   28   21      1.41     -1.62
  -13   28   22      0.55      1.46
  -13   28   23      0.37     -1.36
  -13   28   24     -1.69     -1.45
  -13   28   25      0.58      3.15
  -12   28    0     -2.04      0.02
  -12   28    1     -0.63     -2.00
  -12   28    2     -0.34     -0.64
  -12   28    3      0.63     -3.46
  -12   28    4      0.34      2.60
  -12   28    5     -0.23     -0.97
  -12   28    6      0.34     -1.12
  -12   28    7     -1.41      3.29
  -12   28    8      2.84     -2.31
  -12   28    9     -0.62      0.64
  -12   28   10     -3.33      0.54
  -12   28   11      1.00     -1.82
  -12   28   12      2.11      0.40
  -12   28   13     -1.66     -0.69
  -12   28   14     -1.69      2.18
  -12   28   15     -1.99      0.61
  -12   28   16     -1.56     -0.33
  -12   28   17     -2.84      3.01
  -12   28   18      2.55     -2.86
  -12   28   19     -1.63     -5.82
  -12   28   20      3.60     -0.55
  -12   28   21     -0.47      0.65
  -12   28   22     -4.70      1.55
  -12   28   23     -0.95      1.22
  -12   28   24     -0.48     -0.02
  -11   28    0      1.32     -0.05
  -11   28    1      0.29     -0.61
  -11   28    2      2.81     -1.69
  -11   28    3      1.63     -0.55
  -11   28    4      0.46     -0.49
  -11   28    5     -2.60      1.30
  -11   28    6      1.44     -0.29
  -11   28    7      0.13      7.14
  -11   28    8      0.07     -3.69
  -11   28    9     -1.51      3.66
  -11   28   10     -0.35      0.33
  -11   28   11     -2.23      0.74
  -11   28   12      0.69     -0.29
  -11   28   13     -0.28     -2.57
  -11   28   14     -6.65      2.53
  -11   28   15     -1.62      0.44
  -11   28   16     -3.80     -1.53
  -11   28   17     -0.79      0.66
  -11   28   18     -0.04     -2.34
  -11   28   19      0.00     -4.48
  -11   28   20      3.36     -3.41
  -11   28   21     -2.01      1.69
  -11   28   22     -6.04      3.90
  -11   28   23      1.17     -1.20
  -11   28   24      1.55      0.30
  -10   28    0      0.49     -0.09
  -10   28    1      0.98      1.52
  -10   28    2      0.53     -0.47
  -10   28    3      1.07      2.14
  -10   28    4     -0.22      1.79
  -10   28    5      0.54     -0.53
  -10   28    6     -0.16      0.00
  -10   28    7      3.92      1.29
  -10   28    8     -2.05     -1.05
  -10   28    9     -1.67      0.47
  -10   28   10     -0.65      0.24
  -10   28   11     -3.32      1.89
  -10   28   12      0.77      1.78
  -10   28   13      1.65      1.28
  -10   28   14     -6.44      2.21
  -10   28   15      1.61      0.67
  -10   28   16     -5.35     -2.34
  -10   28   17      2.81     -0.36
  -10   28   18     -1.29      0.61
  -10   28   19      1.55      2.00
  -10   28   20     -0.90     -8.93
  -10   28   21     -0.70     -0.31
  -10   28   22     -0.74      1.16
  -10   28   23      1.96     -1.02
   -9   28    0     -0.18     -0.14
   -9   28    1     -2.77      2.67
   -9   28    2     -1.60      0.54
   -9   28    3      0.40     -3.68
   -9   28    4     -3.17      0.79
   -9   28    5      4.79     -3.43
   -9   28    6     -2.36      0.09
   -9   28    7      2.33     -3.55
   -9   28    8     -3.16     -0.59
   -9   28    9      0.09      0.27
   -9   28   10      1.09     -0.86
   -9   28   11      2.30     -2.29
   -9   28   12      2.62      1.70
   -9   28   13     -0.11      4.37
   -9   28   14     -0.69     -0.86
   -9   28   15     -1.40      1.66
   -9   28   16     -1.20     -2.62
   -9   28   17      0.33     -2.40
   -9   28   18      1.42      1.24
   -9   28   19      0.73      4.71
   -9   28   20      0.78     -4.43
   -9   28   21     -1.68     -0.33
   -9   28   22      2.71     -0.77
   -8   28    0      0.38     -0.31
   -8   28    1     -4.02      1.47
   -8   28    2     -2.71     -1.78
   -8   28    3      0.00     -1.69
   -8   28    4      1.67     -2.53
   -8   28    5     -0.11     -1.06
   -8   28    6      0.37      0.58
   -8   28    7      1.76     -0.47
   -8   28    8      0.94      1.03
   -8   28    9     -0.29      0.27
   -8   28   10     -0.18      0.68
   -8   28   11     -1.46     -0.40
   -8   28   12     -0.24      1.95
   -8   28   13     -0.22      3.97
   -8   28   14     -2.58      0.22
   -8   28   15     -1.44     -0.68
   -8   28   16     -0.47     -2.98
   -8   28   17      2.25     -4.78
   -8   28   18      0.45     -0.39
   -8   28   19     -2.41      3.98
   -8   28   20      0.43     -0.51
   -7   28    0      0.40     -0.20
   -7   28    1      1.82     -2.59
   -7   28    2      0.39     -1.25
   -7   28    3     -0.43      0.32
   -7   28    4     -4.11     -0.83
   -7   28    5     -0.36     -1.76
   -7   28    6      0.55      0.39
   -7   28    7      2.20      0.70
   -7   28    8     -0.07      5.90
   -7   28    9     -0.69      0.08
   -7   28   10      1.35      2.26
   -7   28   11      1.30      2.59
   -7   28   12     -0.57     -0.80
   -7   28   13      0.61     -1.24
   -7   28   14     -4.78      1.75
   -7   28   15      1.13     -2.53
   -7   28   16     -0.88     -1.29
   -7   28   17      5.55      0.19
   -6   28    0      0.06     -0.31
   -6   28    1     -0.31      3.35
   -6   28    2     -0.32      1.02
   -6   28    3     -0.17     -2.26
   -6   28    4     -1.61      1.51
   -6   28    5      0.06      3.21
   -6   28    6      0.31     -5.02
   -6   28    7      3.30      1.04
   -6   28    8     -0.80      1.40
   -6   28    9     -0.33     -0.14
   -6   28   10      0.29      2.39
   -6   28   11     -0.18     -1.14
   -6   28   12     -0.26     -1.21
   -6   28   13     -1.22     -4.60
   -6   28   14      2.32      1.38
   -6   28   15     -1.82     -0.87
   -6   28   17      6.57      3.88
   -5   28    0     -2.63     -0.03
   -5   28    1     -0.57      4.62
   -5   28    2      1.29      0.33
   -5   28    3     -3.15      1.21
   -5   28    4     -0.84     -2.94
   -5   28    5      2.62     -0.92
   -5   28    6     -1.01      1.76
   -5   28    7     -4.19     -0.81
   -5   28    8     -3.60     -1.62
   -5   28    9     -0.05     -0.09
   -5   28   10      1.39      1.46
   -5   28   11     -7.35     -2.47
   -5   28   12      0.99     -0.99
   -5   28   13     -4.15     -2.62
   -5   28   14      5.96      1.26
   -5   28   15     -3.24     -0.64
   -4   28    0     -1.89      0.10
   -4   28    1      1.45     -3.78
   -4   28    2      0.84      2.24
   -4   28    3      0.34      5.41
   -4   28    4     -2.98     -3.67
   -4   28    5     -3.72     -2.25
   -4   28    6     -1.54      1.56
   -4   28    7     -0.30      2.56
   -4   28    8     -2.88      2.03
   -4   28    9     -1.53     -1.49
   -4   28   10     -0.98      2.44
   -4   28   11     -5.68     -3.41
   -4   28   12      1.30      0.65
   -4   28   13     -2.22      2.89
   -3   28    1      1.42     -3.41
   -3   28    2      1.69     -0.03
   -3   28    3      1.32      0.00
   -3   28    4     -0.50     -0.76
   -3   28    5     -5.11      0.36
   -3   28    6     -0.49     -5.17
   -3   28    7      1.94      0.93
   -3   28    8      1.93      2.22
   -3   28    9      2.58     -1.40
   -3   28   10     -0.29      3.16
   -2   28    0      0.94      0.45
   -2   28    1     -2.40     -3.66
   -2   28    2      0.42     -0.33
   -2   28    3      1.37     -2.49
   -2   28    4      0.62      2.70
   -2   28    5     -0.21      1.11
   -2   28    6      2.95     -7.68
  -14   29    0      1.07      0.19
  -14   29    1      1.42     -0.76
  -14   29    2     -0.35     -0.29
  -14   29    3     -1.64      1.28
  -14   29    4      3.77      0.38
  -14   29    5     -1.66      1.43
  -14   29    6      1.10     -1.56
  -14   29    7      0.58      1.18
  -14   29    8      2.39     -1.51
  -14   29    9      1.08      2.93
  -14   29   10      3.28     -0.20
  -14   29   11     -0.28      0.68
  -14   29   12      3.79     -0.65
  -14   29   13     -0.55      0.42
  -14   29   14     -4.10     -0.24
  -14   29   15      2.26      1.72
  -14   29   16     -2.87      6.65
  -14   29   17     -1.23     -1.97
  -14   29   18      4.40      1.74
  -14   29   19     -0.83      1.02
  -14   29   20      2.42      0.10
  -14   29   21     -1.04      1.36
  -13   29    0      0.48      0.15
  -13   29    1     -0.30      0.51
  -13   29    2     -3.09      2.99
  -13   29    3      0.08      1.86
  -13   29    4     -1.31     -0.45
  -13   29    5      1.12     -1.18
  -13   29    6     -2.58      0.56
  -13   29    7     -1.21      0.82
  -13   29    8      5.93     -2.05
  -13   29    9     -0.93     -1.55
  -13   29   10     -0.54      1.96
  -13   29   11     -1.85     -0.97
  -13   29   12      2.78     -1.46
  -13   29   13      1.37     -0.14
  -13   29   14     -0.62      0.24
  -13   29   15     -0.78      2.44
  -13   29   16     -6.04      3.31
  -13   29   17      2.51     -2.23
  -13   29   18      1.72      1.32
  -13   29   19     -0.38      0.44
  -13   29   20      1.39      0.78
  -13   29   21     -0.15     -0.61
  -12   29    0      2.21      0.14
  -12   29    1     -1.48     -2.20
  -12   29    2     -2.92      0.44
  -12   29    3     -0.73     -1.67
  -12   29    4     -0.18     -2.59
  -12   29    5      2.28     -0.56
  -12   29    6     -0.98      2.19
  -12   29    7      0.92      4.66
  -12   29    8      1.80     -0.14
  -12   29    9     -1.15      2.54
  -12   29   10     -0.66     -1.46
  -12   29   11     -2.52     -4.04
  -12   29   12      2.90      2.03
  -12   29   13     -2.03     -1.70
  -12   29   14     -1.74      0.88
  -12   29   15     -5.64      1.10
  -12   29   16     -2.07      0.35
  -12   29   17      1.58      0.74
  -12   29   18      2.50     -1.75
  -12   29   19      3.72     -2.03
  -12   29   20      1.13      1.11
  -11   29    0      6.19     -0.53
  -11   29    1      2.45      1.40
  -11   29    2      2.73     -3.06
  -11   29    3      0.90      2.39
  -11   29    4      2.05     -2.39
  -11   29    5      0.40     -0.96
  -11   29    6      2.03     -0.73
  -11   29    7      2.58      1.82
  -11   29    8     -2.30     -0.46
  -11   29    9     -0.05      1.48
  -11   29   10     -2.02     -0.05
  -11   29   11     -5.31      0.79
  -11   29   12      2.08      1.70
  -11   29   13     -0.71     -0.78
  -11   29   14     -1.12      0.94
  -11   29   15     -2.57     -0.05
  -11   29   16     -2.61     -1.76
  -11   29   17      4.97      1.17
  -11   29   18      1.57     -1.49
  -11   29   19      3.55      0.23
  -11   29   20     -2.28     -1.69
  -10   29    0      2.08      0.17
  -10   29    1      0.71      0.25
  -10   29    2      1.97     -1.45
  -10   29    3     -0.60      0.94
  -10   29    4     -2.62     -0.10
  -10   29    5      1.32     -2.02
  -10   29    6      2.36      0.08
  -10   29    7      0.03     -0.50
  -10   29    8     -4.01     -1.42
  -10   29    9      1.04     -0.63
  -10   29   10     -0.79      0.27
  -10   29   11      3.18     -0.61
  -10   29   12     -1.92      1.53
  -10   29   13     -0.55     -0.26
  -10   29   14      1.07     -1.98
  -10   29   15     -1.10      1.37
  -10   29   16     -1.65     -5.48
  -10   29   17      2.90      1.77
  -10   29   18      4.88      0.58
  -10   29   19      3.13      1.46
   -9   29    0      0.67      0.16
   -9   29    1     -0.61     -0.98
   -9   29    2     -3.93      1.22
   -9   29    3     -0.82     -4.63
   -9   29    4      0.94      0.23
   -9   29    5      0.67      1.51
   -9   29    6      0.68      2.06
   -9   29    7     -0.17      2.85
   -9   29    8     -2.48     -4.11
   -9   29    9     -1.24     -1.80
   -9   29   10     -0.95      4.66
   -9   29   11      2.24     -4.20
   -9   29   12      0.58      7.91
   -9   29   13     -1.52     -3.41
   -9   29   14      1.22     -0.84
   -9   29   15     -0.90      1.71
   -9   29   16      1.49     -1.13
   -9   29   17     -0.73     -2.05
   -8   29    0     -2.04      0.01
   -8   29    1     -0.81     -1.43
   -8   29    2      2.08      1.54
   -8   29    3     -1.91     -0.89
   -8   29    4     -1.49      3.63
   -8   29    5      0.53      1.30
   -8   29    6      2.82      2.53
   -8   29    7     -0.23     -0.48
   -8   29    8     -0.60      1.98
   -8   29    9     -0.85      0.39
   -8   29   10     -0.03      3.22
   -8   29   11      2.23     -0.58
   -8   29   12     -0.77      4.33
   -8   29   13      0.82     -2.67
   -8   29   14     -3.94      3.29
   -8   29   16     -0.84      5.62
   -7   29    0     -0.12      0.12
   -7   29    1     -1.72     -0.46
   -7   29    2      1.52      1.09
   -7   29    3     -3.02     -1.63
   -7   29    4     -2.02      2.11
   -7   29    5     -0.91      1.15
   -7   29    6      0.67     -7.27
   -7   29    7      1.12     -0.50
   -7   29    8      0.40      1.20
   -7   29    9     -0.25      2.22
   -7   29   10      0.84     -0.04
   -7   29   11      4.17      1.83
   -7   29   12     -2.90     -0.08
   -7   29   13      2.05     -2.63
   -7   29   14     -3.66      3.75
   -6   29    0      0.36      0.06
   -6   29    1     -0.82      1.21
   -6   29    2      0.99      0.68
   -6   29    3     -2.50     -3.66
   -6   29    4     -1.90     -3.95
   -6   29    5     -2.05      1.06
   -6   29    6      3.88     -2.16
   -6   29    7     -0.42      0.03
   -6   29    8     -0.83     -0.52
   -6   29    9     -3.28     -0.39
   -6   29   10      5.59     -0.12
   -6   29   11     -2.53     -0.14
   -6   29   12     -4.58     -2.41
   -5   29    0      2.43      0.06
   -5   29    1      2.48     -3.17
   -5   29    2     -2.99      5.92
   -5   29    4      1.84     -1.79
   -5   29    5     -2.80     -1.05
   -5   29    6      0.27      1.15
   -5   29    7      0.26     -0.87
   -5   29    8     -0.46     -1.53
   -5   29    9     -2.21      0.00
   -4   29    0     -0.81     -0.03
   -4   29    1      5.23     -0.65
   -4   29    2     -0.44      1.15
   -4   29    3      1.92      3.57
  -15   30    0     -3.46     -0.11
  -15   30    1     -0.23     -3.12
  -15   30    2      0.38     -0.41
  -15   30    3     -0.18     -0.58
  -15   30    4      5.25     -0.07
  -15   30    5     -0.32      0.61
  -15   30    6      0.68     -0.41
  -15   30    7     -0.37     -0.72
  -15   30    8     -2.34     -0.80
  -15   30    9      0.01      2.39
  -15   30   10      4.03     -0.57
  -15   30   11     -0.17      1.73
  -15   30   12      3.16      0.01
  -15   30   13     -0.10      8.00
  -15   30   14     -4.12      0.00
  -15   30   15     -0.10     -0.81
  -15   30   16      0.03     -0.09
  -14   30    0      1.18      0.09
  -14   30    1      0.25     -0.77
  -14   30    2     -0.39      1.76
  -14   30    3     -2.15      1.33
  -14   30    4      2.79     -1.76
  -14   30    5      2.90      0.03
  -14   30    6     -2.53     -4.81
  -14   30    7     -0.52     -0.12
  -14   30    8      1.13     -1.28
  -14   30   10      0.50      2.34
  -14   30   11      1.41      2.20
  -14   30   12      1.83     -2.58
  -14   30   13      0.12      2.80
  -14   30   14     -0.79     -0.01
  -14   30   15      3.15     -0.37
  -14   30   16     -0.74      4.43
  -13   30    0     -3.18      0.53
  -13   30    1     -3.54      0.54
  -13   30    2     -2.37      3.40
  -13   30    3     -2.88     -0.31
  -13   30    4     -1.22     -0.48
  -13   30    5      3.12     -1.07
  -13   30    6     -1.58      1.65
  -13   30    7      0.20      1.60
  -13   30    8      2.25     -1.40
  -13   30    9     -2.19      3.74
  -13   30   10      0.32      1.37
  -13   30   11      0.53     -0.91
  -13   30   13      1.98     -1.13
  -13   30   14     -0.72      2.40
  -13   30   15     -0.04      0.06
  -13   30   16      0.77     -3.39
  -12   30    0     -1.31      0.14
  -12   30    1     -4.07      1.49
  -12   30    2     -2.27     -0.87
  -12   30    3      0.12     -2.44
  -12   30    4     -0.23     -1.63
  -12   30    5     -0.68     -1.07
  -12   30    6     -0.90      0.51
  -12   30    7      3.29      2.62
  -12   30    8     -1.94      1.32
  -12   30    9     -0.13      3.38
  -12   30   10      0.11      1.17
  -12   30   11     -1.84     -0.91
  -12   30   12      6.58      2.26
  -12   30   13      0.10     -0.78
  -12   30   14      5.99      0.80
  -12   30   15     -4.24     -0.85
  -11   30    0     -0.77     -0.25
  -11   30    1     -3.11      2.62
  -11   30    2      0.30      0.65
  -11   30    3      3.56      2.60
  -11   30    4     -3.09     -1.73
  -11   30    5     -3.21     -3.00
  -11   30    6      2.92     -1.39
  -11   30    7      0.45     -2.19
  -11   30    8      1.75     -2.15
  -11   30   10     -2.37      0.90
  -11   30   11      2.71      2.99
  -11   30   12     -0.37     -2.99
  -11   30   13     -0.14      0.42
  -11   30   14      3.32      0.96
  -10   30    0      0.47      0.00
  -10   30    1      1.86     -0.05
  -10   30    2     -1.42      0.05
  -10   30    3     -0.46     -0.79
  -10   30    4     -0.17     -1.44
  -10   30    5     -0.93     -6.31
  -10   30    6      0.82      0.64
  -10   30    7     -2.08      1.66
  -10   30    8      0.51     -2.37
  -10   30    9     -0.71      0.87
  -10   30   11      3.03      3.99
  -10   30   12     -1.81      0.17
  -10   30   13      1.06     -3.48
   -9   30    0     -1.23     -0.02
   -9   30    1      1.70     -1.42
   -9   30    2      0.35     -3.96
   -9   30    3      1.11     -2.05
   -9   30    4      1.72     -0.88
   -9   30    5     -2.08     -0.89
   -9   30    6      0.48      5.36
   -9   30    7     -0.07      1.94
   -9   30    8      0.94      4.13
   -9   30    9     -3.69     -1.85
   -9   30   10      0.69      7.71
   -9   30   11      1.32     -0.75
   -8   30    0     -2.09     -0.06
   -8   30    1      1.58     -0.26
   -8   30    2      1.21     -0.66
   -8   30    3     -3.29     -0.19
   -8   30    4      3.21      2.35
   -8   30    5      1.12      2.57
   -8   30    6     -1.26     -0.86
   -8   30    7     -1.28      0.22
   -8   30    8      3.43      3.00
   -7   30    0     -0.98      0.05
   -7   30    1      0.25      1.89
   -7   30    2      3.99     -3.44
   -7   30    3     -0.55      0.86
   -7   30    4     -2.40     -3.58
  -15   31    0     -0.48     -0.06
  -15   31    1      3.43     -1.73
  -15   31    2     -0.88      0.69
  -15   31    3     -1.89     -0.97
  -15   31    5      1.91     -2.00
  -15   31    6     -2.86     -1.58
  -15   31    7     -0.27      3.22
  -15   31    8     -0.37      1.88
  -14   31    0     -0.55      0.11
  -14   31    1      1.42     -0.89
  -14   31    2      1.65      1.88
  -14   31    3     -2.14      0.47
  -14   31    4     -0.32      1.46
  -14   31    5      1.60     -0.89
  -14   31    7      1.64      1.67
  -13   31    0     -4.31      0.20
  -13   31    1     -1.59     -0.48
  -13   31    2     -1.71      0.03
  -13   31    3      1.12     -0.33
  -13   31    4      1.64      1.91
  -13   31    5     -2.49     -0.93
  -13   31    6     -0.38      0.24
  -13   31    7      2.02      1.69
  -12   31    0      0.59      0.02
  -12   31    1     -1.75     -0.05
  -12   31    2     -2.34     -1.25
  -12   31    3      4.71      0.08
  -12   31    4     -3.12      0.13
  -12   31    5     -1.43     -1.17
  -12   31    6     -3.59     -3.27
  -11   31    0     -1.60     -0.09
  -11   31    1     -1.36     -0.77
  -11   31    3     -2.46      1.02
    0    1    0    240.08     -0.77
   -1    2    0   -230.52      0.76
    0    2    0   -130.78     -0.04
   -1    3    0     26.24     -1.11
    0    3    0    112.19     -0.47
   -1    4    0     19.25     -0.45
    0    4    0     33.86     -0.19
    0    5    0    -97.90      0.02
   -3    6    0     44.84     -0.10
   -1    7    0     19.57      0.70
    0    7    0     -4.00     -0.48
   -4    8    0    -52.73      0.36
   -3    8    0     -6.47     -0.31
    0    8    0    -22.05     -0.71
   -3    9    0     -4.52      0.03
   -5   10    0     44.53     -0.21
    0   10    0     -1.87     -0.20
   -4   11    0    -13.21     -0.19
   -6   12    0    -16.26      0.13
   -8   26    0      3.48     -0.10
   -3   28    0      3.05     -0.15
    0    1    1    -12.05      2.27
   -1    3    1     10.91    -29.70
    0    0    2    -56.44     -0.15
    0    1    2      0.69      1.91
   -1    3    2      1.86     44.47
   -2    5    2     11.34    -11.25
    0    1    3    141.23     -1.91
   -1    2    3      1.00    -36.22
    0    2    3    108.35      0.92
    0    4    3    130.30      3.80
   -1    5    3    -10.16    -11.82
   -2    6    3    -29.49      5.63
   -4    9    3     14.41     -5.78
   -5   11    3     -2.95      7.60
   -5   12    3      3.70      3.49
   -7   26    3     -0.59      3.33
   -2   26    3      1.54     -1.96
   -1   27    3     -0.42      0.43
    0    2    4     16.38     -0.06
   -2    4    5     -0.08     46.25
   -2    5    5     -6.59    -13.94
   -3    6    5      0.56    -14.90
    0    0    6    -37.55      0.68
    0    2    6    -77.04      0.25
   -1    3    6      5.19     11.10
   -2    4    6     -3.29      0.06
   -1    4    6      2.38     -3.01
   -2    5    6    -15.30     -9.47
   -1    5    6    -27.28     -7.02
    0    5    6     47.87     -0.05
   -3    6    6     25.14     -0.79
   -1    6    6    -31.69     -3.37
    0    6    6      6.70     -0.06
   -2    7    6      3.71     13.47
    0    7    6     41.79      0.61
   -2    8    6      9.61     10.66
  -11   22    6     -2.46     -0.11
  -11   24    6      0.12     -4.17
   -2    4    7     -1.19    -39.84
   -1    3    8      2.61    -45.97
   -1    4    8     -0.65     -1.92
   -2    5    8     -7.19     21.67
   -2    6    8     -6.42     30.74
    0    1    9    -71.68     -1.29
    0    3    9    -13.77     -1.46
   -1    4    9     11.97      6.11
   -2    5    9    -10.45     16.99
    0    5    9    -12.22      0.46
   -2    6    9      5.46    -17.44
    0    6    9    -10.25     -0.92
   -3    7    9     14.16      8.63
   -2    7    9    -16.45    -11.71
   -1    7    9     -2.96      5.73
   -3    8    9     -8.65     -6.83
    0    8    9     20.34     -0.41
  -10   20    9     -0.07     -1.62
   -2   20    9     -0.43      0.00
  -10   22    9      0.85     -0.83
   -5   22    9      3.01     -0.70
  -11   24    9     -1.63      2.17
   -1   24    9      0.76      0.66
  -13   26    9      0.54      1.98
   -8   26    9     -0.47     -1.11
  -14   30    9      1.39      1.41
  -11   30    9     -0.45      0.02
    0    0   12     46.50      0.74
   -1    2   12     22.57      0.08
    0    2   12     34.71      0.32
   -1    4   12     -6.06     -0.89
    0    4   12      3.95     -0.68
   -2    5   12    -19.05      4.67
   -3    6   12    -18.80      1.04
   -1    6   12     -9.09      8.84
    0    6   12     -7.39     -0.39
   -7   14   12      9.00     -0.03
   -8   18   12      0.52     -0.94
  -11   24   12     -2.80     -1.60
  -12   26   12     -1.61      1.98
   -1   26   12      0.25     -4.88
  -13   30   12      2.93     -0.31
    0    8   14     -0.56     -0.21
   -9   18   14      3.25     -0.34
   -8   16   15      0.46      5.83
   -1   26   16      1.81     -1.40
   -6   28   16      1.77     -1.73
    0    0   18     -0.85     -0.59
   -1    2   18      9.36     -0.19
    0    3   18      9.18      0.39
   -3   16   18     -1.31     -1.58
   -6   24   18     -0.64      3.41
    0   25   18     -3.48      0.07
   -8   26   18      0.11      2.65
   -5   26   18     -1.82     -1.43
   -3   26   18     -1.84     -0.25
   -2   26   18      0.16      1.27
   -1    2   19     -0.34      6.23
    0    3   19     -2.05     -0.20
    0   25   19      3.62      0.06
    0    4   20      7.96      0.40
   -1   25   20     -2.19      0.59
   -3   26   20      2.92      0.08
   -2   14   21     -1.08      0.57
   -1   14   21     -3.21      1.44
   -7   24   21     -0.52     -0.03
   -5   24   21      0.12      3.61
   -1   25   21     -0.44      2.18
   -7   26   21      1.54      2.34
   -6   26   21     -1.19     -1.32
   -3   26   21      3.24     -1.19
    0   24   22      0.36     -0.66
   -2   25   22     -1.07      1.79
   -4   26   22     -1.88      2.29
    0   24   23      0.10     -0.10
   -2   25   23      0.41      0.58
    0    0   24     -7.57      0.48
    0   23   24     -1.47     -0.41
   -1   24   25      0.64      3.65
   -3   25   25      0.55     -0.47
    0    5   26     -1.35     -0.09
   -7   26   26      3.11     -1.85
   -5   10   27      0.24     -0.98
    0   23   27     -0.58      0.06
   -8   26   27      3.26     -0.74
    0    5   28     -6.10     -0.14
   -6   25   28     -0.84      1.66
   -9   26   28     -3.20      1.70
   -5   24   30      2.47      1.93
  -12   24   34     -0.78      0.26
  -11   23   36     -0.82      0.48
    0   19   37      4.28     -0.57
  -11   22   37     -0.54      2.40
  -10   21   39      1.64      2.19
   -9   21   39      2.22      0.38
  -10   20   41     -0.05     -3.38
   -9   20   41      2.41     -0.05
   -8   20   41     -0.46      0.77
    0    0   50     -4.33     -1.57
    0    1   50     -3.44      0.31
   -1    2   50      2.30      0.14
    0    2   50      3.38      0.67
   -1    3   50      2.73     -1.50
    0    3   50      0.76      0.61
    0    4   50      2.36     -0.43
    0    1   51     -2.09      0.43
   -1    2   51     -0.26      4.50
    0    2   51     -2.80      0.07
   -1    3   51      2.94     -1.31
    0    3   51      3.67      0.85
   -2    4   51     -0.23     -4.90
   -1    4   51     -1.93     -0.51
    0    4   51     -2.65      0.13
   -2    5   51     -2.50      2.80
   -1    5   51     -6.10      0.60
    0    5   51     -0.09      0.18
    0    0   52      4.33     -0.66
    0    1   52      6.92      0.14
   -1    2   52     -0.72      0.34
    0    2   52     -3.21     -0.24
   -1    3   52     -3.39      0.95
    0    3   52     -0.53      0.02
   -2    4   52     -1.33      0.06
   -1    4   52     -0.24      2.55
    0    4   52      1.32     -0.59
   -2    5   52      1.59      1.85
   -1    5   52     -0.85     -0.39
    0    5   52      1.45     -0.13
    0    1   53     -0.38      0.17
   -1    2   53      0.40      0.05
    0    2   53      0.16     -1.22
   -1    3   53     -0.06     -2.07
    0    3   53      1.22     -0.79
   -2    4   53      0.32      1.94
   -1    4   53      0.67     -3.00
    0    4   53      0.99      0.63
   -2    5   53      0.89     -1.35
   -1    5   53     -1.33     -3.18
    0    5   53     -3.62      0.66
   -3    6   53      0.22     -0.25
   -2    6   53     -2.07      0.20
    0    0    0      0.00      0.00
# SQUEEZE RESULTS (Version = 160117)
# Note: Data are Listed for all Voids in the P1 Unit Cell
# i.e. Centre of Gravity, Solvent Accessible Volume,
# Recovered number of Electrons in the Void and
# Details about the Squeezed Material
loop_
  _platon_squeeze_void_nr
  _platon_squeeze_void_average_x
  _platon_squeeze_void_average_y
  _platon_squeeze_void_average_z
  _platon_squeeze_void_volume
  _platon_squeeze_void_count_electrons
  _platon_squeeze_void_content
   1 -0.002 -0.001 -0.002     12556      1312 ' '
# Missing Reflections Below sin(th)/lambda = 0.25
loop_
  _platon_missing_refln_index_h
  _platon_missing_refln_index_k
  _platon_missing_refln_index_l
  _platon_missing_refln_theta
    0    1    0     1.240
   -1    2    0     2.148
    0    2    0     2.480
   -1    3    0     3.282
    0    3    0     3.722
   -1    4    0     4.475
    0    4    0     4.965
    0    5    0     6.211
   -3    6    0     6.456
   -1    7    0     8.157
    0    7    0     8.712
   -4    8    0     8.622
   -3    8    0     8.712
    0    8    0     9.968
   -3    9    0     9.889
   -5   10    0    10.801
    0   10    0    12.497
   -4   11    0    12.044
    0    1    1     1.383
   -1    3    1     3.339
    0    0    2     1.226
    0    1    2     1.744
   -1    3    2     3.504
   -2    5    2     5.550
    0    1    3     2.218
   -1    2    3     2.828
    0    2    3     3.089
    0    4    3     5.297
   -1    5    3     5.982
   -2    6    3     6.829
   -4    9    3     9.905
   -5   11    3    12.058
    0    2    4     3.489
   -2    4    5     5.284
   -2    5    5     6.225
   -3    6    5     7.153
    0    0    6     3.680
    0    2    6     4.440
   -1    3    6     4.934
   -2    4    6     5.663
   -1    4    6     5.798
   -2    5    6     6.551
   -1    5    6     6.784
    0    5    6     7.227
   -3    6    6     7.439
   -1    6    6     7.846
    0    6    6     8.327
   -2    7    6     8.604
    0    7    6     9.469
   -2    8    6     9.714
   -2    4    7     6.082
   -1    3    8     5.910
   -1    4    8     6.650
   -2    5    8     7.317
   -2    6    8     8.219
    0    1    9     5.664
    0    3    9     6.668
   -1    4    9     7.119
   -2    5    9     7.746
    0    5    9     8.327
   -2    6    9     8.604
    0    6    9     9.302
   -3    7    9     9.386
   -2    7    9     9.551
   -1    7    9     9.874
   -3    8    9    10.339
    0    8    9    11.425
    0    0   12     7.376
   -1    2   12     7.686
    0    2   12     7.786
   -1    4   12     8.640
    0    4   12     8.907
   -2    5   12     9.166
   -3    6   12     9.826
   -1    6   12    10.140
    0    6   12    10.520
    0    0   18    11.103
   -1    2   18    11.314
    0    3   18    11.725
   -1    2   19    11.929
    0    3   19    12.321
_platon_squeeze_void_probe_radius                  1.20
_platon_squeeze_details
Positions of the disordered solvent molecules and Cu(+)-ions 
were impossible to resolve and to refine from the electron density 
distribution. The SQUEEZE procedure implemented in the program PLATON 
was used and an electron count of 1312 per unit cell 
(rest of the electron density) was calculated. This value corresponds 
to 6 Cu(+)-ions and 28.5 DMF molecules in the unit cell of Cu(I)[CFA-4]. 
Thus, the composition of the framework was determined
as [Cu5(tfpb)3]- (Cu1+)4.75 DMF.


TITL
CELL   23.6300   23.6300   41.3900     90.00     90.00    120.00
SPGR P6322
# Solvent Accessible Volume =     12567
# Electrons Found in S.A.V. =      1262
# Note: Atoms in Void as Cxxx and Qxxx all others

C101 0.071 0.696 0.720 !       1.25 eA-3
C102 0.138 0.704 0.095 !       1.21 eA-3
C103 0.485 0.571 0.757 !       1.12 eA-3
C104 0.671 0.099 0.914 !       1.05 eA-3
C105 0.702 0.117 0.923 !       1.04 eA-3
C106 0.914 0.271 0.227 !       1.02 eA-3
C107 0.077 0.330 0.649 !       1.02 eA-3
C108 0.959 0.675 0.274 !       0.98 eA-3
C109 0.259 0.285 0.852 !       0.96 eA-3
C110 0.703 0.724 0.657 !       0.96 eA-3
C111 0.100 0.702 0.736 !       0.95 eA-3
C112 0.056 0.695 0.741 !       0.95 eA-3
C113 0.656 0.960 0.484 !       0.92 eA-3
C114 0.664 0.971 0.461 !       0.92 eA-3
C115 0.640 0.945 0.742 !       0.90 eA-3
Q116 0.445 0.699 0.900 !       0.89 eA-3
C117 0.651 0.093 0.920 !       0.88 eA-3
C118 0.968 0.663 0.539 !       0.88 eA-3
C119 0.694 0.750 0.662 !       0.88 eA-3
Q120 0.664 0.330 0.454 !       0.86 eA-3
C121 0.289 0.833 0.384 !       0.86 eA-3
C122 0.603 0.892 0.709 !       0.86 eA-3
Q123 0.805 0.290 0.571 !       0.85 eA-3
C124 0.654 0.952 0.446 !       0.85 eA-3
C125 0.047 0.313 0.397 !       0.85 eA-3
C126 0.117 0.383 0.775 !       0.84 eA-3
C127 0.351 0.278 0.593 !       0.84 eA-3
C128 0.037 0.671 0.454 !       0.83 eA-3
C129 0.312 0.293 0.509 !       0.83 eA-3
C130 0.688 0.933 0.869 !       0.83 eA-3
C131 0.758 0.578 0.545 !       0.82 eA-3
C132 0.454 0.354 0.258 !       0.81 eA-3
C133 0.304 0.347 0.710 !       0.81 eA-3
C134 0.078 0.713 0.697 !       0.80 eA-3
C135 0.077 0.742 0.319 !       0.80 eA-3
C136 0.172 0.040 0.867 !       0.80 eA-3
C137 0.711 0.507 0.586 !       0.79 eA-3
C138 0.735 0.064 0.687 !       0.78 eA-3
C139 0.086 0.481 0.406 !       0.77 eA-3
C140 0.100 0.776 0.305 !       0.77 eA-3
C141 0.563 0.859 0.664 !       0.77 eA-3
C142 0.195 0.078 0.829 !       0.76 eA-3
C143 0.039 0.695 0.303 !       0.76 eA-3
C144 0.892 0.063 0.656 !       0.76 eA-3
C145 0.086 0.694 0.758 !       0.75 eA-3
C146 0.994 0.303 0.810 !       0.75 eA-3
C147 0.280 0.287 0.524 !       0.74 eA-3
C148 0.939 0.684 0.250 !       0.74 eA-3
C149 0.922 0.265 0.843 !       0.74 eA-3
C150 0.923 0.686 0.906 !       0.74 eA-3
C151 0.641 0.906 0.745 !       0.74 eA-3
C152 0.842 0.256 0.635 !       0.73 eA-3
C153 0.672 0.081 0.266 !       0.73 eA-3
C154 0.342 0.991 0.024 !       0.73 eA-3
C155 0.947 0.297 0.968 !       0.72 eA-3
C156 0.851 0.759 0.788 !       0.72 eA-3
C157 0.806 0.696 0.803 !       0.72 eA-3
C158 0.813 0.142 0.687 !       0.72 eA-3
C159 0.709 0.722 0.634 !       0.72 eA-3
C160 1.000 0.883 0.001 !       0.72 eA-3
C161 0.165 0.045 0.889 !       0.72 eA-3
C162 0.741 0.643 0.186 !       0.72 eA-3
C163 0.048 0.736 0.685 !       0.72 eA-3
C164 0.322 0.192 0.689 !       0.71 eA-3
C165 0.367 0.271 0.937 !       0.71 eA-3
C166 0.273 0.421 0.679 !       0.70 eA-3
C167 0.951 0.674 0.571 !       0.70 eA-3
C168 0.064 0.724 0.063 !       0.70 eA-3
Q169 0.821 0.331 0.172 !       0.70 eA-3
C170 0.336 0.133 0.023 !       0.69 eA-3
C171 0.916 0.657 0.922 !       0.69 eA-3
C172 0.093 0.141 0.328 !       0.69 eA-3
C173 0.965 0.274 0.807 !       0.68 eA-3
C174 0.773 0.768 0.313 !       0.68 eA-3
C175 0.290 0.223 0.563 !       0.68 eA-3
Q176 0.928 0.492 0.275 !       0.68 eA-3
C177 0.938 0.687 0.500 !       0.68 eA-3
C178 0.735 0.754 0.679 !       0.68 eA-3
C179 0.155 0.415 0.838 !       0.68 eA-3
C180 0.344 0.055 0.009 !       0.68 eA-3
Q181 0.469 0.921 0.406 !       0.68 eA-3
Q182 0.050 0.530 0.421 !       0.67 eA-3
Q183 0.829 0.566 0.345 !       0.67 eA-3
C184 0.889 0.143 0.290 !       0.67 eA-3
C185 0.721 0.611 0.614 !       0.67 eA-3
C186 0.374 0.303 0.617 !       0.67 eA-3
Q187 0.882 0.267 0.384 !       0.67 eA-3
C188 0.244 0.266 0.170 !       0.66 eA-3
C189 0.094 0.751 0.054 !       0.66 eA-3
C190 0.733 0.948 0.837 !       0.66 eA-3
C191 0.750 0.092 0.945 !       0.66 eA-3
C192 0.750 0.929 0.789 !       0.65 eA-3
C193 0.064 0.347 0.372 !       0.65 eA-3
C194 0.320 0.257 0.562 !       0.65 eA-3
C195 0.821 0.046 0.194 !       0.65 eA-3
C196 0.993 0.686 0.703 !       0.65 eA-3
C197 0.047 0.714 0.353 !       0.65 eA-3
Q198 0.943 0.481 0.587 !       0.64 eA-3
C199 0.257 0.903 0.110 !       0.64 eA-3
;
loop_
_space_group_symop_operation_xyz
'x, y, z'
'-y, x-y, z'
'-x+y, -x, z'
'-x, -y, z+1/2'
'y, -x+y, z+1/2'
'x-y, x, z+1/2'
'y, x, -z'
'x-y, -y, -z'
'-x, -x+y, -z'
'-y, -x, -z+1/2'
'-x+y, y, -z+1/2'
'x, x-y, -z+1/2'
loop_
_atom_site_label
_atom_site_type_symbol
_atom_site_fract_x
_atom_site_fract_y
_atom_site_fract_z
_atom_site_U_iso_or_equiv
_atom_site_adp_type
_atom_site_occupancy
_atom_site_site_symmetry_order
_atom_site_calc_flag
_atom_site_refinement_flags_posn
_atom_site_refinement_flags_adp
_atom_site_refinement_flags_occupancy
_atom_site_disorder_assembly
_atom_site_disorder_group
Cu1 Cu 0.72274(2) 0.44548(4) 0.750000 0.0741(2) Uani 1 2 d S T P . .
Cu2 Cu 0.666667 0.333333 0.69771(3) 0.0725(3) Uani 1 3 d S T P . .
Cu3 Cu 0.333333 0.666667 0.63151(3) 0.0868(3) Uani 1 3 d S T P . .
Cu4 Cu 0.28977(3) 0.55695(2) 0.57870(2) 0.0794(2) Uani 1 1 d . . . . .
Cu5 Cu 0.333333 0.666667 0.52554(3) 0.0775(3) Uani 1 3 d S T P E .
F1A F 0.598(2) 0.346(3) 0.6403(7) 0.164(9) Uani 0.56(11) 1 d . U P A 1
F1B F 0.5877(16) 0.3253(17) 0.6402(8) 0.124(8) Uani 0.44(11) 1 d . U P A 2
F3 F 0.5021(3) 0.3096(3) 0.66336(13) 0.186(2) Uani 1 1 d . . . . .
F2A F 0.565(4) 0.399(3) 0.6267(7) 0.201(13) Uani 0.43(7) 1 d . U P A 1
F2B F 0.5340(15) 0.3810(12) 0.6327(7) 0.146(8) Uani 0.57(7) 1 d . U P A 2
F4 F 0.6038(3) 0.5482(3) 0.74501(12) 0.172(2) Uani 1 1 d . . . . .
F6A F 0.691(3) 0.541(2) 0.7600(12) 0.158(12) Uani 0.41(7) 1 d . U P B 1
F6B F 0.6713(11) 0.5361(10) 0.7687(5) 0.128(5) Uani 0.59(7) 1 d . U P B 2
F5A F 0.6943(3) 0.5956(2) 0.72423(11) 0.181(2) Uani 1 1 d . . . . .
F7A F 0.5023(7) 0.7023(9) 0.6671(5) 0.231(12) Uani 0.71(3) 1 d . U P C 1
F7B F 0.4972(17) 0.657(2) 0.6854(9) 0.187(17) Uani 0.29(3) 1 d . U P C 2
F8A F 0.4111(6) 0.6725(6) 0.6888(3) 0.173(4) Uani 0.86(2) 1 d . U P C 1
F8B F 0.456(3) 0.713(3) 0.6692(14) 0.14(2) Uani 0.14(2) 1 d . U P C 2
F9 F 0.4528(6) 0.6172(5) 0.70225(19) 0.253(6) Uani 1 1 d . . . C 2
F10A F 0.3600(14) 0.4812(12) 0.5626(4) 0.186(10) Uani 0.47(5) 1 d . U P D 1
F10B F 0.3363(13) 0.4706(7) 0.5649(4) 0.134(7) Uani 0.53(5) 1 d . U P D 2
F11 F 0.4240(2) 0.4709(2) 0.58466(10) 0.1512(17) Uani 1 1 d . . . . .
F12 F 0.3291(3) 0.4172(2) 0.60433(11) 0.176(2) Uani 1 1 d . . . . .
F14 F 0.1605(2) 0.4606(2) 0.59684(10) 0.1607(19) Uani 1 1 d . . . . .
F13 F 0.1221(3) 0.3953(2) 0.55589(13) 0.192(2) Uani 1 1 d . . . . .
F15 F 0.0707(2) 0.4352(2) 0.57871(12) 0.170(2) Uani 1 1 d . . . . .
F16 F 0.1489(2) 0.5918(3) 0.45913(10) 0.165(2) Uani 1 1 d . . . . .
F17 F 0.1801(3) 0.6694(3) 0.49112(12) 0.192(2) Uani 1 1 d . . . . .
F18A F 0.2493(2) 0.6526(3) 0.46825(11) 0.146(2) Uani 0.890(9) 1 d . U P E 1
F18B F 0.250(2) 0.5847(19) 0.4838(8) 0.146(18) Uani 0.110(9) 1 d . U P E 2
N1 N 0.66157(18) 0.44565(18) 0.72079(9) 0.0728(10) Uani 1 1 d . . . . .
N2 N 0.63735(18) 0.39824(18) 0.69820(10) 0.0798(11) Uani 1 1 d . . . . .
N3 N 0.3741(2) 0.6112(2) 0.62987(11) 0.0919(13) Uani 1 1 d . . . . .
N4 N 0.35298(18) 0.56270(19) 0.60736(11) 0.0818(11) Uani 1 1 d . . . . .
N5 N 0.22539(17) 0.54859(17) 0.54895(9) 0.0756(11) Uani 1 1 d . . . . .
N6 N 0.24280(17) 0.59600(19) 0.52554(10) 0.0796(11) Uani 1 1 d . . . . .
C1 C 0.6357(2) 0.4828(2) 0.71622(12) 0.0758(13) Uani 1 1 d . . . . .
C2 C 0.5914(3) 0.4606(3) 0.69076(13) 0.0889(16) Uani 1 1 d . . . . .
C3 C 0.5942(3) 0.4057(3) 0.68047(12) 0.0842(14) Uani 1 1 d . . . . .
C4 C 0.5593(4) 0.3605(4) 0.65319(18) 0.113(2) Uani 1 1 d . . . . .
C5B C 0.6560(4) 0.5425(3) 0.73749(17) 0.111(2) Uani 1 1 d . . . . .
C6 C 0.5497(3) 0.4860(3) 0.67786(12) 0.0875(16) Uani 1 1 d . . . . .
C7 C 0.4795(3) 0.4447(4) 0.67563(14) 0.109(2) Uani 1 1 d . . . . .
H7 H 0.459700 0.401830 0.683031 0.131 Uiso 1 1 calc R U . . .
C8 C 0.4428(3) 0.4676(4) 0.66302(14) 0.106(2) Uani 1 1 d . . . . .
H8 H 0.397846 0.439971 0.661396 0.127 Uiso 1 1 calc R U . . .
C9 C 0.4702(3) 0.5319(3) 0.65227(12) 0.0860(14) Uani 1 1 d . . . . .
C10 C 0.5330(3) 0.5715(3) 0.65492(16) 0.112(2) Uani 1 1 d . . . . .
H10 H 0.550231 0.614845 0.648656 0.134 Uiso 1 1 calc R U . . .
C11 C 0.5762(3) 0.5508(4) 0.66707(16) 0.112(2) Uani 1 1 d . . . . .
H11 H 0.621008 0.579655 0.667842 0.134 Uiso 1 1 calc R U . . .
C12 C 0.4244(2) 0.5529(3) 0.63849(13) 0.0831(14) Uani 1 1 d . . . . .
C13 C 0.3834(2) 0.5290(2) 0.61233(11) 0.0744(13) Uani 1 1 d . . . . .
C14 C 0.4171(3) 0.6062(3) 0.64886(14) 0.0880(16) Uani 1 1 d . . . . .
C15 C 0.4481(5) 0.6518(6) 0.6753(2) 0.138(3) Uani 1 1 d . . . . .
C16 C 0.3685(4) 0.4754(3) 0.59180(17) 0.113(2) Uani 1 1 d . . . . .
C17 C 0.1608(2) 0.5051(2) 0.54600(12) 0.0793(13) Uani 1 1 d . . . . .
C18 C 0.1340(2) 0.5238(3) 0.52093(12) 0.0820(14) Uani 1 1 d . . . . .
C19 C 0.1873(2) 0.5793(3) 0.50951(13) 0.0829(15) Uani 1 1 d . . . . .
C20 C 0.1921(3) 0.6225(4) 0.48124(18) 0.113(2) Uani 1 1 d . . . . .
C21 C 0.1296(4) 0.4510(3) 0.56952(16) 0.114(2) Uani 1 1 d . . . . .
C22 C 0.0642(3) 0.4875(3) 0.50987(14) 0.0973(17) Uani 1 1 d . . . . .
C23 C 0.0303(3) 0.4216(3) 0.50501(16) 0.1085(19) Uani 1 1 d . . . . .
H23 H 0.050838 0.397515 0.508937 0.130 Uiso 1 1 calc R U . . .
C24 C 0.0321(3) 0.5246(4) 0.50546(14) 0.114(2) Uani 1 1 d . . . . .
H24 H 0.053633 0.569137 0.509809 0.136 Uiso 1 1 calc R U . . .
loop_
_atom_site_aniso_label
_atom_site_aniso_U_11
_atom_site_aniso_U_22
_atom_site_aniso_U_33
_atom_site_aniso_U_23
_atom_site_aniso_U_13
_atom_site_aniso_U_12
Cu1 0.0660(3) 0.0583(4) 0.0955(5) 0.000 -0.0298(4) 0.0291(2)
Cu2 0.0533(3) 0.0533(3) 0.1108(7) 0.000 0.000 0.02664(16)
Cu3 0.0524(3) 0.0524(3) 0.1555(10) 0.000 0.000 0.02620(17)
Cu4 0.0576(3) 0.0552(3) 0.1247(5) -0.0006(3) -0.0307(3) 0.0276(2)
Cu5 0.0517(3) 0.0517(3) 0.1291(8) 0.000 0.000 0.02586(16)
F1A 0.165(17) 0.18(2) 0.198(14) -0.126(14) -0.082(11) 0.124(17)
F1B 0.150(11) 0.097(14) 0.143(13) -0.064(11) -0.083(8) 0.074(10)
F3 0.122(4) 0.170(5) 0.196(5) -0.073(4) -0.038(3) 0.021(3)
F2A 0.26(4) 0.31(3) 0.075(9) -0.049(13) -0.068(16) 0.17(3)
F2B 0.178(14) 0.182(13) 0.135(12) -0.086(10) -0.112(10) 0.133(11)
F4 0.239(6) 0.202(5) 0.159(4) -0.059(4) -0.037(4) 0.172(5)
F6A 0.27(3) 0.188(19) 0.110(15) -0.111(13) -0.132(17) 0.186(19)
F6B 0.189(10) 0.133(9) 0.087(6) -0.022(8) -0.020(10) 0.099(8)
F5A 0.267(7) 0.079(3) 0.157(4) -0.023(3) -0.007(4) 0.057(3)
F7A 0.142(9) 0.185(14) 0.263(15) -0.149(13) -0.030(9) 0.004(9)
F7B 0.18(2) 0.21(3) 0.24(3) -0.15(2) -0.19(2) 0.15(2)
F8A 0.158(7) 0.226(9) 0.190(7) -0.121(7) -0.064(6) 0.138(7)
F8B 0.17(4) 0.20(4) 0.16(3) -0.14(3) -0.12(3) 0.15(3)
F9 0.379(15) 0.268(12) 0.167(6) -0.088(6) -0.103(7) 0.203(11)
F10A 0.173(13) 0.37(3) 0.087(8) -0.023(9) -0.010(9) 0.187(15)
F10B 0.199(13) 0.130(9) 0.132(9) -0.071(6) -0.113(9) 0.125(9)
F11 0.193(4) 0.186(4) 0.148(3) -0.050(3) -0.042(3) 0.149(4)
F12 0.236(6) 0.083(3) 0.175(4) -0.032(3) -0.040(4) 0.054(3)
F14 0.154(4) 0.122(3) 0.135(3) 0.044(2) -0.040(3) 0.015(3)
F13 0.247(6) 0.083(3) 0.188(4) 0.032(3) -0.001(4) 0.040(3)
F15 0.086(3) 0.152(4) 0.201(5) 0.069(4) 0.014(3) 0.007(2)
F16 0.131(3) 0.193(5) 0.136(3) 0.044(3) -0.050(3) 0.056(3)
F17 0.296(8) 0.181(5) 0.174(4) 0.056(4) 0.003(5) 0.175(6)
F18A 0.086(3) 0.190(5) 0.144(3) 0.094(3) 0.017(2) 0.055(3)
F18B 0.17(4) 0.14(3) 0.13(3) -0.02(2) 0.06(2) 0.08(3)
N1 0.076(2) 0.067(2) 0.087(2) -0.008(2) -0.026(2) 0.044(2)
N2 0.070(2) 0.072(2) 0.112(3) -0.021(2) -0.034(2) 0.046(2)
N3 0.076(3) 0.070(3) 0.141(4) -0.020(3) -0.037(3) 0.045(2)
N4 0.068(2) 0.063(2) 0.122(3) -0.021(2) -0.041(2) 0.0382(19)
N5 0.063(2) 0.055(2) 0.100(3) 0.0018(19) -0.0337(19) 0.0236(17)
N6 0.0495(19) 0.073(2) 0.109(3) 0.027(2) -0.0101(19) 0.0248(18)
C1 0.083(3) 0.075(3) 0.085(3) -0.013(2) -0.024(3) 0.051(3)
C2 0.107(4) 0.108(4) 0.091(3) -0.015(3) -0.020(3) 0.083(4)
C3 0.086(3) 0.089(4) 0.100(3) -0.018(3) -0.032(3) 0.061(3)
C4 0.106(5) 0.136(6) 0.119(5) -0.052(5) -0.061(4) 0.078(5)
C5B 0.161(7) 0.074(4) 0.116(5) -0.021(3) -0.046(5) 0.074(4)
C6 0.108(4) 0.111(4) 0.076(3) -0.013(3) -0.029(3) 0.079(4)
C7 0.105(5) 0.145(6) 0.107(4) 0.020(4) -0.011(4) 0.085(5)
C8 0.088(4) 0.143(6) 0.111(4) 0.021(4) -0.008(3) 0.076(4)
C9 0.080(3) 0.093(4) 0.099(3) -0.009(3) -0.020(3) 0.054(3)
C10 0.099(4) 0.078(4) 0.154(6) 0.010(4) -0.050(4) 0.040(3)
C11 0.086(4) 0.127(5) 0.139(5) 0.004(4) -0.022(4) 0.066(4)
C12 0.077(3) 0.085(3) 0.101(3) -0.003(3) -0.023(3) 0.052(3)
C13 0.084(3) 0.080(3) 0.079(3) -0.009(2) -0.029(2) 0.056(3)
C14 0.074(3) 0.086(4) 0.120(4) -0.032(3) -0.041(3) 0.052(3)
C15 0.141(8) 0.159(8) 0.160(7) -0.067(6) -0.065(6) 0.109(7)
C16 0.133(5) 0.074(4) 0.150(6) 0.000(4) -0.055(5) 0.067(4)
C17 0.060(3) 0.063(3) 0.096(3) 0.004(2) -0.013(2) 0.017(2)
C18 0.059(3) 0.084(3) 0.081(3) 0.003(3) -0.028(2) 0.019(2)
C19 0.059(3) 0.080(3) 0.110(4) 0.015(3) -0.018(3) 0.035(2)
C20 0.076(4) 0.120(5) 0.132(5) 0.040(4) -0.014(4) 0.041(4)
C21 0.106(5) 0.081(4) 0.103(4) 0.011(3) -0.033(4) 0.008(3)
C22 0.071(3) 0.126(5) 0.091(4) -0.006(3) -0.028(3) 0.046(4)
C23 0.066(3) 0.107(5) 0.135(5) -0.010(4) -0.025(3) 0.030(3)
C24 0.084(4) 0.137(6) 0.098(4) -0.001(4) -0.022(3) 0.038(4)
loop_
_atom_type_symbol
_atom_type_description
_atom_type_scat_dispersion_real
_atom_type_scat_dispersion_imag
_atom_type_scat_source
C C 0.0056 0.0027 'International Tables Vol C Tables 4.2.6.8 and 6.1.1.4'
Cu Cu 0.1643 1.8638 'International Tables Vol C Tables 4.2.6.8 and 6.1.1.4'
F F 0.0276 0.0166 'International Tables Vol C Tables 4.2.6.8 and 6.1.1.4'
N N 0.0104 0.0054 'International Tables Vol C Tables 4.2.6.8 and 6.1.1.4'
H H 0.0000 0.0000 'International Tables Vol C Tables 4.2.6.8 and 6.1.1.4'
O O 0.0180 0.0100 'International Tables Vol C Tables 4.2.6.8 and 6.1.1.4'
loop_
_geom_angle_atom_site_label_1
_geom_angle_atom_site_label_2
_geom_angle_atom_site_label_3
_geom_angle
_geom_angle_site_symmetry_1
_geom_angle_site_symmetry_3
N1 Cu1 N1 179.8(2) 11_656 .
N2 Cu2 N2 119.994(5) 3_665 2_655
N2 Cu2 N2 119.987(6) 3_665 .
N2 Cu2 N2 119.987(6) 2_655 .
N3 Cu3 N3 119.883(17) 3_565 2_665
N3 Cu3 N3 119.882(18) 3_565 .
N3 Cu3 N3 119.885(19) 2_665 .
N4 Cu4 N5 178.08(17) . .
N6 Cu5 N6 120.000(4) 3_565 2_665
N6 Cu5 N6 119.998(1) 3_565 .
N6 Cu5 N6 120.002(1) 2_665 .
C15 F7B F9 73(2) . .
F7B F9 C15 52.5(10) . .
N6 F18B C19 44.3(7) . .
C1 N1 N2 108.1(4) . .
C1 N1 Cu1 135.1(3) . .
N2 N1 Cu1 116.8(3) . .
C3 N2 N1 107.8(4) . .
C3 N2 Cu2 133.2(3) . .
N1 N2 Cu2 119.0(3) . .
C14 N3 N4 107.5(4) . .
C14 N3 Cu3 133.1(4) . .
N4 N3 Cu3 119.1(3) . .
C13 N4 N3 108.6(4) . .
C13 N4 Cu4 135.3(3) . .
N3 N4 Cu4 116.1(3) . .
C17 N5 N6 108.6(3) . .
C17 N5 Cu4 132.9(3) . .
N6 N5 Cu4 118.4(3) . .
C19 N6 N5 104.9(4) . .
C19 N6 F18B 68.2(15) . .
N5 N6 F18B 125.1(14) . .
C19 N6 Cu5 138.2(3) . .
N5 N6 Cu5 116.7(3) . .
F18B N6 Cu5 88.8(13) . .
N1 C1 C2 111.7(4) . .
N1 C1 C5B 120.1(4) . .
C2 C1 C5B 128.2(5) . .
C1 C2 C3 101.9(4) . .
C1 C2 C6 130.2(5) . .
C3 C2 C6 127.9(5) . .
N2 C3 C2 110.4(4) . .
N2 C3 C4 120.3(5) . .
C2 C3 C4 129.2(5) . .
F1A C4 F3 116(3) . .
F2B C4 F3 95.5(17) . .
F1A C4 F2A 90(3) . .
F3 C4 F2A 124(3) . .
F2B C4 F1B 115.1(16) . .
F3 C4 F1B 98.8(15) . .
F1A C4 C3 107(2) . .
F2B C4 C3 115.4(8) . .
F3 C4 C3 110.6(7) . .
F2A C4 C3 106.7(19) . .
F1B C4 C3 117.3(12) . .
F5A C5B F6A 101(3) . .
F5A C5B F4 104.1(6) . .
F6A C5B F4 119(3) . .
F5A C5B F6B 115.2(10) . .
F4 C5B F6B 95.7(13) . .
F5A C5B C1 114.2(6) . .
F6A C5B C1 108.4(13) . .
F4 C5B C1 110.4(6) . .
F6B C5B C1 114.9(11) . .
C11 C6 C7 116.7(5) . .
C11 C6 C2 122.0(5) . .
C7 C6 C2 121.3(5) . .
C8 C7 C6 120.6(6) . .
C7 C8 C9 121.6(6) . .
C10 C9 C8 119.8(5) . .
C10 C9 C12 122.7(6) . .
C8 C9 C12 117.5(5) . .
C9 C10 C11 122.5(6) . .
C6 C11 C10 118.7(6) . .
C13 C12 C14 103.3(4) . .
C13 C12 C9 129.5(5) . .
C14 C12 C9 127.1(5) . .
N4 C13 C12 110.9(4) . .
N4 C13 C16 118.4(4) . .
C12 C13 C16 130.6(4) . .
N3 C14 C12 109.7(4) . .
N3 C14 C15 120.2(5) . .
C12 C14 C15 130.2(5) . .
F7A C15 F8A 107.7(14) . .
F7B C15 F8B 110(3) . .
F7B C15 F9 55(3) . .
F8B C15 F9 137.6(18) . .
F7B C15 C14 116.6(12) . .
F7A C15 C14 112.8(10) . .
F8A C15 C14 114.2(7) . .
F8B C15 C14 112.8(13) . .
F9 C15 C14 108.8(9) . .
F10A C16 F12 115.3(14) . .
F12 C16 F10B 99.5(12) . .
F10A C16 F11 90.6(12) . .
F12 C16 F11 101.8(5) . .
F10B C16 F11 109.7(13) . .
F10A C16 C13 117.8(11) . .
F12 C16 C13 115.3(6) . .
F10B C16 C13 117.2(6) . .
F11 C16 C13 111.8(5) . .
N5 C17 C18 110.1(4) . .
N5 C17 C21 118.9(4) . .
C18 C17 C21 130.8(5) . .
C19 C18 C17 102.3(4) . .
C19 C18 C22 131.7(5) . .
C17 C18 C22 126.0(5) . .
N6 C19 C18 114.1(4) . .
N6 C19 C20 116.8(5) . .
C18 C19 C20 129.1(4) . .
N6 C19 F18B 67.5(14) . .
C18 C19 F18B 127.7(13) . .
C20 C19 F18B 73.3(15) . .
F18A C20 F16 109.3(6) . .
F18A C20 F17 105.6(6) . .
F16 C20 F17 104.3(6) . .
F18A C20 C19 113.3(5) . .
F16 C20 C19 113.4(6) . .
F17 C20 C19 110.3(6) . .
F14 C21 F15 102.8(6) . .
F14 C21 F13 108.6(7) . .
F15 C21 F13 103.9(6) . .
F14 C21 C17 115.3(5) . .
F15 C21 C17 116.0(6) . .
F13 C21 C17 109.3(6) . .
C23 C22 C24 119.5(5) . .
C23 C22 C18 123.3(6) . .
C24 C22 C18 117.2(6) . .
C23 C23 C22 122.0(3) 9_556 .
C24 C24 C22 118.4(4) 9_556 .
loop_
_geom_bond_atom_site_label_1
_geom_bond_atom_site_label_2
_geom_bond_distance
_geom_bond_site_symmetry_2
Cu1 N1 1.886(3) 11_656
Cu1 N1 1.886(3) .
Cu2 N2 1.974(4) 3_665
Cu2 N2 1.974(4) 2_655
Cu2 N2 1.974(4) .
Cu3 N3 1.977(4) 3_565
Cu3 N3 1.977(4) 2_665
Cu3 N3 1.977(4) .
Cu4 N4 1.858(3) .
Cu4 N5 1.889(3) .
Cu5 N6 1.948(4) 3_565
Cu5 N6 1.948(4) 2_665
Cu5 N6 1.948(4) .
F1A C4 1.25(3) .
F1B C4 1.41(4) .
F3 C4 1.351(9) .
F2A C4 1.39(4) .
F2B C4 1.265(18) .
F4 C5B 1.343(9) .
F6A C5B 1.25(2) .
F6B C5B 1.369(18) .
F5A C5B 1.249(8) .
F7A C15 1.286(15) .
F7B C15 1.179(18) .
F7B F9 1.22(5) .
F8A C15 1.320(11) .
F8B C15 1.38(5) .
F9 C15 1.418(12) .
F10A C16 1.246(19) .
F10B C16 1.323(13) .
F11 C16 1.400(8) .
F12 C16 1.322(8) .
F14 C21 1.302(7) .
F13 C21 1.361(9) .
F15 C21 1.305(9) .
F16 C20 1.291(8) .
F17 C20 1.338(9) .
F18A C20 1.290(7) .
F18B N6 1.77(3) .
F18B C19 1.78(3) .
N1 C1 1.311(5) .
N1 N2 1.347(5) .
N2 C3 1.338(6) .
N3 C14 1.336(6) .
N3 N4 1.364(5) .
N4 C13 1.329(5) .
N5 C17 1.354(5) .
N5 N6 1.379(5) .
N6 C19 1.340(6) .
C1 C2 1.390(6) .
C1 C5B 1.521(7) .
C2 C3 1.396(7) .
C2 C6 1.486(6) .
C3 C4 1.489(8) .
C6 C11 1.408(9) .
C6 C7 1.448(9) .
C7 C8 1.337(7) .
C8 C9 1.393(9) .
C9 C10 1.305(8) .
C9 C12 1.510(6) .
C10 C11 1.425(8) .
C12 C13 1.372(6) .
C12 C14 1.420(7) .
C13 C16 1.416(7) .
C14 C15 1.452(9) .
C17 C18 1.398(6) .
C17 C21 1.477(7) .
C18 C19 1.371(7) .
C18 C22 1.500(7) .
C19 C20 1.520(8) .
C22 C23 1.362(9) .
C22 C24 1.429(9) .
C23 C23 1.306(10) 9_556
C24 C24 1.388(10) 9_556
