#------------------------------------------------------------------------------
#$Date: 2017-05-18 05:29:14 +0300 (Thu, 18 May 2017) $
#$Revision: 196732 $
#$URL: file:///home/coder/svn-repositories/cod/cif/7/04/29/7042996.cif $
#------------------------------------------------------------------------------
#
# This file is available in the Crystallography Open Database (COD),
# http://www.crystallography.net/
#
# All data on this site have been placed in the public domain by the
# contributors.
#
data_7042996
loop_
_publ_author_name
'Llabres, Pedro'
'Pitarch-Jarque, Javier'
'Ballesteros-Garrido, Rafael'
'Abarca, Bel\'en'
'Ballesteros, Rafael'
'Garc\'ia-Espa\~na, Enrique'
_publ_section_title
;
 Bicyclo[2.2.2]octane-1,4-dicarboxylic acid: Towards Transparent
 Metal-Organic Frameworks.
;
_journal_name_full               'Dalton Trans.'
_journal_paper_doi               10.1039/C7DT00855D
_journal_year                    2017
_chemical_formula_moiety         '0.33(C120 H174 N6 O45 Zn12)'
_chemical_formula_sum            'C45 H69 N3 O16 Zn4'
_chemical_formula_weight         1169.51
_space_group_crystal_system      trigonal
_space_group_IT_number           152
_space_group_name_Hall           'P 31 2"'
_space_group_name_H-M_alt        'P 31 2 1'
_symmetry_space_group_name_Hall  'P 31 2"'
_symmetry_space_group_name_H-M   'P 31 2 1'
_atom_sites_solution_hydrogens   mixed
_audit_creation_date             2017-05-06
_audit_creation_method
;
Olex2 1.2
(compiled 2016.02.19 svn.r3266 for OlexSys, GUI svn.r5155)
;
_audit_update_record
;
2017-05-07 deposited with the CCDC.
2017-05-10 downloaded from the CCDC.
;
_cell_angle_alpha                90
_cell_angle_beta                 90
_cell_angle_gamma                120
_cell_formula_units_Z            3
_cell_length_a                   12.7557(4)
_cell_length_b                   12.7557(4)
_cell_length_c                   30.6370(8)
_cell_measurement_reflns_used    4084
_cell_measurement_temperature    120(1)
_cell_measurement_theta_max      27.5060
_cell_measurement_theta_min      3.2290
_cell_volume                     4317.0(2)
_computing_cell_refinement       'CrysAlisPro 1.171.38.41q (Rigaku OD, 2015)'
_computing_data_collection       'CrysAlisPro 1.171.38.41q (Rigaku OD, 2015)'
_computing_data_reduction        'CrysAlisPro 1.171.38.41q (Rigaku OD, 2015)'
_computing_molecular_graphics    'Olex2 (Dolomanov et al., 2009)'
_computing_publication_material  'Olex2 (Dolomanov et al., 2009)'
_computing_structure_refinement  'ShelXL (Sheldrick, 2015)'
_diffrn_ambient_temperature      120(1)
_diffrn_measured_fraction_theta_full 0.996
_diffrn_measured_fraction_theta_max 0.996
_diffrn_measurement_device       'four-circle diffractometer'
_diffrn_measurement_device_type
'SuperNova, Single source at offset, Sapphire3'
_diffrn_radiation_monochromator  mirror
_diffrn_radiation_probe          x-ray
_diffrn_radiation_type           'Mo K\a'
_diffrn_radiation_wavelength     0.71073
_diffrn_reflns_av_R_equivalents  0.0387
_diffrn_reflns_av_unetI/netI     0.0526
_diffrn_reflns_Laue_measured_fraction_full 0.996
_diffrn_reflns_Laue_measured_fraction_max 0.996
_diffrn_reflns_limit_h_max       14
_diffrn_reflns_limit_h_min       -11
_diffrn_reflns_limit_k_max       15
_diffrn_reflns_limit_k_min       -15
_diffrn_reflns_limit_l_max       34
_diffrn_reflns_limit_l_min       -36
_diffrn_reflns_number            5078
_diffrn_reflns_point_group_measured_fraction_full 0.997
_diffrn_reflns_point_group_measured_fraction_max 0.997
_diffrn_reflns_theta_full        24.999
_diffrn_reflns_theta_max         24.999
_diffrn_reflns_theta_min         3.194
_diffrn_source                   'micro-focus sealed X-ray tube'
_diffrn_source_type              'SuperNova (Mo) X-ray Source'
_exptl_absorpt_coefficient_mu    1.708
_exptl_absorpt_correction_T_max  1.000
_exptl_absorpt_correction_T_min  0.63614
_exptl_absorpt_correction_type   multi-scan
_exptl_absorpt_process_details
;
CrysAlisPro 1.171.38.41q (Rigaku Oxford Diffraction, 2015)
Empirical absorption correction using spherical harmonics,
 implemented in SCALE3 ABSPACK scaling algorithm.
;
_exptl_crystal_colour            colourless
_exptl_crystal_colour_primary    colourless
_exptl_crystal_density_diffrn    1.350
_exptl_crystal_description       hexagonal
_exptl_crystal_F_000             1824
_exptl_crystal_size_max          0.4
_exptl_crystal_size_mid          0.4
_exptl_crystal_size_min          0.2
_refine_diff_density_max         0.652
_refine_diff_density_min         -0.743
_refine_diff_density_rms         0.097
_refine_ls_abs_structure_details
;
 Flack x determined using 1486 quotients [(I+)-(I-)]/[(I+)+(I-)]
 (Parsons, Flack and Wagner, Acta Cryst. B69 (2013) 249-259).
;
_refine_ls_abs_structure_Flack   0.032(13)
_refine_ls_extinction_method     none
_refine_ls_goodness_of_fit_ref   1.064
_refine_ls_hydrogen_treatment    constr
_refine_ls_matrix_type           full
_refine_ls_number_parameters     385
_refine_ls_number_reflns         5078
_refine_ls_number_restraints     323
_refine_ls_restrained_S_all      1.076
_refine_ls_R_factor_all          0.0758
_refine_ls_R_factor_gt           0.0636
_refine_ls_shift/su_max          0.001
_refine_ls_shift/su_mean         0.000
_refine_ls_structure_factor_coef Fsqd
_refine_ls_weighting_details
'w=1/[\s^2^(Fo^2^)+(0.1009P)^2^+3.6330P] where P=(Fo^2^+2Fc^2^)/3'
_refine_ls_weighting_scheme      calc
_refine_ls_wR_factor_gt          0.1646
_refine_ls_wR_factor_ref         0.1745
_reflns_Friedel_coverage         0.752
_reflns_Friedel_fraction_full    0.999
_reflns_Friedel_fraction_max     0.999
_reflns_number_gt                4269
_reflns_number_total             5078
_reflns_threshold_expression     'I > 2\s(I)'
_iucr_refine_instructions_details
;

    tmof2_sq.res created by SHELXL-2014/7

TITL rafa1_a.res in P3(1)21
REM Old TITL rafa1 in P3121 #152
REM SHELXT solution in P3(1)21
REM R1 0.219, Rweak 0.064, Alpha 0.032, Orientation as input
REM Flack x = 0.150 ( 0.013 ) from Parsons' quotients
REM Formula found by SHELXT: C45 O13 Zn4
CELL 0.71073 12.755744 12.755744 30.636959 90 90 120
ZERR 3 0.000439 0.000439 0.000784 0 0 0
LATT -1
SYMM -Y,+X-Y,0.333+Z
SYMM +Y-X,-X,0.667+Z
SYMM +Y,+X,-Z
SYMM -Y+X,-Y,0.667-Z
SYMM -X,-X+Y,0.333-Z
SFAC C H N O Zn
UNIT 135 207 9 48 12
DFIX 1.2 O21S C21S
DFIX 1.4 N21S C21S
DFIX 1.4 N21S C22S N21S C24S
DFIX 1.5 C23S C22S
DFIX 1.45 C25S C24S
DFIX 1.33 N21S C21S N11S C14S
DFIX 1.47 N11S C12S N11S C14S N21S C24S N21S C22S
DFIX 1.53 C25S C24S C23S C22S C13S C12S C15S C14S
SADI C8 C3 C7 C5 C6 C4
SADI C18 C15 C16 C13 C17 C14
SADI N11S C14S N11S C12S
RIGU O4 O3 O1 O2 C0AA C10 C9 C2 C3 C8 C7 C6 C5 C4
RIGU C20 O8 O7 O5 C11 C12 C13 C15 C14 C19 C18 C17 C16
RIGU O21S C21S N21S C24S C22S C23S C25S
RIGU O11S C11S N11S C12S C13S
ISOR 0.01 0.01 C25S
ISOR 0.01 0.05 O7
ISOR 0.01 0.1 C14S
 
L.S. 8 0 26
PLAN  30
TEMP -153.1(10)
BOND $H
MORE -1
CONF
list 4
ABIN
fmap 2
acta 52
OMIT -3 50
OMIT -2 2 4
OMIT 0 2 0
OMIT 0 1 5
REM <olex2.extras>
REM <HklSrc "%.\\tmof2_sq.hkl">
REM </olex2.extras>
 
WGHT    0.100900    3.633000
FVAR      10.01063
ZN1   5    0.608193    0.468797    0.491218    11.00000    0.04797    0.04466 =
         0.03080    0.00173    0.00725    0.00744
ZN2   5    0.707090    0.726368    0.448715    11.00000    0.04462    0.08210 =
         0.02709    0.01282    0.00091    0.00721
O6    4    0.627034    0.627034    0.500000    10.50000    0.03924    0.03924 =
         0.01988   -0.00122    0.00122   -0.00106
O4    4    0.681450    0.449770    0.439092    11.00000    0.08950    0.08340 =
         0.04262    0.00684    0.02644    0.04164
O3    4    0.743313    0.632564    0.407018    11.00000    0.11130    0.07857 =
         0.05610    0.01645    0.02978    0.04356
O5    4    1.349570    1.433746    0.520446    11.00000    0.05033    0.04845 =
         0.08077   -0.01268    0.02036   -0.00311
O1    4    0.848992    0.278985    0.251182    11.00000    0.10818    0.12377 =
         0.05109    0.01900    0.03145    0.07406
O2    4    0.773612    0.373813    0.211873    11.00000    0.08942    0.10367 =
         0.04183   -0.00130    0.00621    0.05310
C0AA  1    0.798659    0.341975    0.248052    11.00000    0.06728    0.07735 =
         0.04892    0.00032    0.00882    0.03229
C10   1    0.719943    0.522487    0.406193    11.00000    0.06360    0.08266 =
         0.04106    0.00667    0.01614    0.02612
C9    1    0.745101    0.473686    0.364643    11.00000    0.09126    0.10705 =
         0.05151   -0.00228    0.02233    0.05015
C11   1    1.347841    1.347841    0.500000    10.50000    0.04744    0.04744 =
         0.07048   -0.01104    0.01104   -0.00568
C2    1    0.768640    0.382277    0.289526    11.00000    0.08107    0.10189 =
         0.05576   -0.00491    0.02446    0.04207
PART -1
O8    4    0.854032    0.868905    0.450303    10.50000    0.04389    0.03647 =
         0.06156    0.01275   -0.00607   -0.00377
PART 0
C12   1    1.229011    1.229011    0.500000    10.50000    0.04892    0.04892 =
         0.09892   -0.01200    0.01200   -0.00068
PART -3
N11S  3    0.798785    0.948552    0.333648    10.50000    0.10009    0.07276 =
         0.06115    0.03441    0.03747    0.03602
PART 0
PART -1
O7    4    0.836105    0.874950    0.519001    10.50000    0.07963    0.06440 =
         0.06605   -0.01162    0.02136   -0.03877
PART 0
C3    1    0.865999    0.509820    0.298308    11.00000    0.12378    0.11991 =
         0.08820   -0.01503    0.03207    0.04816
AFIX  23
H3A   2    0.860427    0.563660    0.276301    11.00000   -1.20000
H3B   2    0.945799    0.515411    0.294810    11.00000   -1.20000
AFIX   0
PART -3
O11S  4    0.789080    0.890130    0.404445    10.50000    0.13347    0.07600 =
         0.05219    0.01695    0.02451    0.05058
PART 0
C8    1    0.858882    0.555215    0.344270    11.00000    0.11847    0.13192 =
         0.09939   -0.02186    0.03050    0.04876
AFIX  23
H8A   2    0.926020    0.561668    0.362455    11.00000   -1.20000
H8B   2    0.867851    0.636738    0.342054    11.00000   -1.20000
AFIX   0
C7    1    0.737245    0.353629    0.371865    11.00000    0.24337    0.15984 =
         0.07759   -0.00073    0.04456    0.12106
AFIX  23
H7A   2    0.655747    0.294439    0.382897    11.00000   -1.20000
H7B   2    0.797600    0.362146    0.393984    11.00000   -1.20000
AFIX   0
C6    1    0.646642    0.444900    0.332071    11.00000    0.13381    0.19294 =
         0.08117   -0.05281   -0.00199    0.09336
AFIX  23
H6A   2    0.651003    0.520858    0.322163    11.00000   -1.20000
H6B   2    0.566815    0.393992    0.346026    11.00000   -1.20000
AFIX   0
C5    1    0.761893    0.307000    0.327894    11.00000    0.21350    0.14423 =
         0.07021    0.00007    0.04917    0.09874
AFIX  23
H5A   2    0.839104    0.306650    0.330352    11.00000   -1.20000
H5B   2    0.696537    0.222570    0.322936    11.00000   -1.20000
AFIX   0
C4    1    0.659541    0.376068    0.291628    11.00000    0.13359    0.23632 =
         0.10349   -0.07377    0.00313    0.10726
AFIX  23
H4A   2    0.595218    0.289973    0.293056    11.00000   -1.20000
H4B   2    0.647097    0.410871    0.264567    11.00000   -1.20000
AFIX   0
PART -1
C13   1    1.117754    1.257318    0.492299    10.50000    0.05068    0.04932 =
         0.11036   -0.01713    0.00257   -0.00236
AFIX   3
H13A  2    1.121414    1.317218    0.512720    10.50000   -1.20000
H13B  2    1.119854    1.285058    0.462670    10.50000   -1.20000
AFIX   0
C15   1    1.224497    1.157892    0.455004    10.50000    0.05780    0.05548 =
         0.10802   -0.02370    0.01277   -0.00451
AFIX   3
H15A  2    1.253927    1.211703    0.429974    10.50000   -1.20000
H15B  2    1.276437    1.123492    0.459334    10.50000   -1.20000
AFIX   0
PART 0
PART -3
C11S  1    0.776575    0.872535    0.367837    10.50000    0.13862    0.09412 =
         0.05825    0.02626    0.03614    0.06335
AFIX  43
H11S  2    0.745070    0.790207    0.359829    10.50000   -1.20000
AFIX   0
PART 0
PART -1
C14   1    1.210366    1.154773    0.534153    10.50000    0.05637    0.06643 =
         0.11429   -0.00091   -0.00355   -0.00403
AFIX   3
H14A  2    1.202296    1.190973    0.560863    10.50000   -1.20000
H14B  2    1.281136    1.145573    0.536933    10.50000   -1.20000
AFIX   0
PART 0
C20   1    0.895494    0.910447    0.487286    10.50000    0.04641    0.05373 =
         0.06193    0.00452    0.00680   -0.01994
PART -1
C19   1    1.013663    1.033391    0.488864    10.50000    0.04379    0.04787 =
         0.09434   -0.00568    0.00199   -0.01100
C18   1    1.091790    1.050650    0.447434    10.50000    0.05813    0.05320 =
         0.10957   -0.01246    0.00669   -0.00752
AFIX   3
H18A  2    1.058780    1.071671    0.422614    10.50000   -1.20000
H18B  2    1.090710    0.975841    0.440594    10.50000   -1.20000
AFIX   0
C17   1    1.098904    1.024000    0.527316    10.50000    0.06375    0.05889 =
         0.11846    0.00312   -0.00744   -0.00751
AFIX   3
H17A  2    1.051234    0.999100    0.553876    10.50000   -1.20000
H17B  2    1.122584    0.964440    0.520476    10.50000   -1.20000
AFIX   0
C16   1    1.003349    1.127911    0.497056    10.50000    0.05489    0.05539 =
         0.13133   -0.01183    0.00438   -0.00417
AFIX   3
H16A  2    0.982769    1.122551    0.527756    10.50000   -1.20000
H16B  2    0.936299    1.124141    0.480776    10.50000   -1.20000
AFIX   0
PART 0
O21S  4    0.673115    0.875263    0.488248    10.50000    0.13451    0.09288 =
         0.07626    0.00494    0.02254    0.06803
C21S  1    0.660066    0.957464    0.473094    10.50000    0.20821    0.12409 =
         0.11956    0.01057    0.01607    0.11687
AFIX  43
H21S  2    0.675879    0.973885    0.442821    10.50000   -1.20000
AFIX   0
C24S  1    0.652591    1.039444    0.540336    10.50000    0.23116    0.16593 =
         0.15216   -0.01335    0.01837    0.12482
PART 1
AFIX  23
H24A  2    0.575711    0.992873    0.556593    10.50000   -1.20000
H24B  2    0.686492    1.125703    0.548213    10.50000   -1.20000
AFIX   0
PART 0
N21S  3    0.625083    1.027266    0.495583    10.50000    0.27625    0.16888 =
         0.16342   -0.02404    0.00314    0.17490
C22S  1    0.643470    1.137500    0.476503    10.50000    0.23953    0.15879 =
         0.16597   -0.01134    0.01558    0.15441
AFIX  23
H22A  2    0.672451    1.145796    0.446034    10.50000   -1.20000
H22B  2    0.702698    1.208549    0.493547    10.50000   -1.20000
AFIX   0
PART -3
C12S  1    0.762372    0.910557    0.288638    10.50000    0.13418    0.10864 =
         0.06452    0.02785    0.02627    0.02661
AFIX  23
H12A  2    0.731309    0.822394    0.286575    10.50000   -1.20000
H12B  2    0.834925    0.951635    0.269775    10.50000   -1.20000
AFIX   0
C13S  1    0.666798    0.936651    0.271030    10.50000    0.14673    0.12736 =
         0.10659    0.05847    0.02160    0.03321
AFIX  33
H13C  2    0.647836    0.908341    0.240781    10.50000   -1.50000
H13D  2    0.593444    0.894495    0.288875    10.50000   -1.50000
H13E  2    0.697271    1.024000    0.272041    10.50000   -1.50000
AFIX   0
PART 0
C23S  1    0.520089    1.124862    0.478191    10.50000    0.22773    0.14966 =
         0.38097    0.03947    0.04467    0.14663
AFIX  33
H23A  2    0.523630    1.197224    0.465631    10.50000   -1.50000
H23B  2    0.463020    1.053412    0.461442    10.50000   -1.50000
H23C  2    0.493042    1.115697    0.508601    10.50000   -1.50000
AFIX   0
PART -3
C14S  1    0.869582    1.072131    0.347142    10.50000    0.27668    0.27629 =
         0.27861    0.00755   -0.00658    0.13812
AFIX  23
H14C  2    0.845723    1.075687    0.377615    10.50000   -1.20000
H14D  2    0.842207    1.118681    0.329315    10.50000   -1.20000
AFIX   0
C15S  1    1.009788    1.143771    0.346062    10.50000    0.12007    0.24608 =
         0.14751    0.04306    0.03726    0.06648
AFIX  33
H15C  2    1.039005    1.226281    0.356691    10.50000   -1.50000
H15D  2    1.041295    1.103490    0.364766    10.50000   -1.50000
H15E  2    1.037749    1.146858    0.316045    10.50000   -1.50000
AFIX   0
PART 0
PART 1
C25S  1    0.737505    1.000599    0.556038    10.50000    0.24477    0.23526 =
         0.24854    0.01415   -0.00110    0.13529
AFIX  33
H25A  2    0.748846    1.013809    0.587607    10.50000   -1.50000
H25B  2    0.704343    0.914423    0.549664    10.50000   -1.50000
H25C  2    0.815597    1.047822    0.541248    10.50000   -1.50000
AFIX   0
HKLF 4
 
REM  rafa1_a.res in P3(1)21
REM R1 =  0.0636 for    4269 Fo > 4sig(Fo)  and  0.0758 for all    5078 data
REM    385 parameters refined using    323 restraints
 
END  
     
WGHT      0.1008      3.6318 

REM Highest difference peak  0.652,  deepest hole -0.743,  1-sigma level  0.097
Q1    1   0.8167  0.8762  0.4733  11.00000  0.05    0.65
Q2    1   0.7582  0.7988  0.4534  11.00000  0.05    0.59
Q3    1   0.4927  1.0327  0.5050  11.00000  0.05    0.59
Q4    1   0.7666  0.4936  0.2802  11.00000  0.05    0.52
Q5    1   0.6374  0.3565  0.3557  11.00000  0.05    0.49
Q6    1   0.6219  0.4688  0.4159  11.00000  0.05    0.47
Q7    1   0.6012  0.4340  0.4663  11.00000  0.05    0.47
Q8    1   0.6377  0.5560  0.4058  11.00000  0.05    0.46
Q9    1   0.5475  0.9671  0.5104  11.00000  0.05    0.43
Q10   1   0.7553  0.5655  0.3245  11.00000  0.05    0.43
Q11   1   0.6766  0.2930  0.3138  11.00000  0.05    0.41
Q12   1   0.7851  1.1783  0.5518  11.00000  0.05    0.38
Q13   1   0.7931  1.2524  0.4995  11.00000  0.05    0.36
Q14   1   0.6577  0.8342  0.5233  11.00000  0.05    0.35
Q15   1   0.7129  1.1052  0.5378  11.00000  0.05    0.35
Q16   1   0.5370  1.1290  0.4613  11.00000  0.05    0.35
Q17   1   0.8819  0.3619  0.2439  11.00000  0.05    0.34
Q18   1   0.8705  0.9329  0.4594  11.00000  0.05    0.33
Q19   1   0.8353  0.4487  0.3697  11.00000  0.05    0.33
Q20   1   0.7195  0.5401  0.4242  11.00000  0.05    0.32
Q21   1   0.6789  0.5549  0.4924  11.00000  0.05    0.31
Q22   1   1.3984  1.5210  0.5164  11.00000  0.05    0.31
Q23   1   0.9300  1.0330  0.5188  11.00000  0.05    0.30
Q24   1   0.6194  0.6983  0.4489  11.00000  0.05    0.29
Q25   1   0.5418  0.8002  0.5126  11.00000  0.05    0.29
Q26   1   0.4628  1.0963  0.4357  11.00000  0.05    0.29
Q27   1   0.6986  0.7220  0.4256  11.00000  0.05    0.28
Q28   1   0.8076  0.7935  0.3982  11.00000  0.05    0.28
Q29   1   0.6768  0.4381  0.4866  11.00000  0.05    0.28
Q30   1   1.2717  1.1948  0.5832  11.00000  0.05    0.27

  REM The information below was added by Olex2.
  REM
  REM R1 = 0.0636 for 4269 Fo > 4sig(Fo) and 0.0758 for all 5078 data
  REM n/a parameters refined using n/a restraints
  REM Highest difference peak 0.65, deepest hole -0.74
  REM Mean Shift 0, Max Shift -0.001.
  
  REM +++ Tabular Listing of Refinement Information +++
  REM R1_all = 0.0758
  REM R1_gt = 0.0636
  REM wR_ref = 0.1745
  REM GOOF = 1.064
  REM Shift_max = -0.001
  REM Shift_mean = 0
  REM Reflections_all = 5078
  REM Reflections_gt = 4269
  REM Parameters = n/a
  REM Hole = -0.74
  REM Peak = 0.65
  REM Flack = 0.032(13)
  
  
;
_cod_data_source_file            c7dt00855d2.cif
_cod_data_source_block           tmof2
_cod_original_cell_volume        4317.1(3)
_cod_database_code               7042996
_shelx_space_group_comment
;
The symmetry employed for this shelxl refinement is uniquely defined
by the following loop, which should always be used as a source of
symmetry information in preference to the above space-group names.
They are only intended as comments.
;
_olex2_refinement_description
;
1. Fixed Uiso
 At 1.2 times of:
  All C(H) groups, All C(H,H) groups
 At 1.5 times of:
  All C(H,H,H) groups
2. Restrained distances
 O21S-C21S
 1.2 with sigma of 0.02
 N21S-C21S
 1.4 with sigma of 0.02
 N21S-C22S = N21S-C24S
 1.4 with sigma of 0.02
 C23S-C22S
 1.5 with sigma of 0.02
 C25S-C24S
 1.45 with sigma of 0.02
 N21S-C21S = N11S-C14S
 1.33 with sigma of 0.02
 N11S-C12S = N11S-C14S = N21S-C24S = N21S-C22S
 1.47 with sigma of 0.02
 C25S-C24S = C23S-C22S = C13S-C12S = C15S-C14S
 1.53 with sigma of 0.02
 C8-C3 \\sim C7-C5 \\sim C6-C4
 with sigma of 0.02
 C18-C15 \\sim C16-C13 \\sim C17-C14
 with sigma of 0.02
 N11S-C14S \\sim N11S-C12S
 with sigma of 0.02
3. Uiso/Uaniso restraints and constraints
Uanis(C25S) \\sim Ueq: with sigma of 0.01 and sigma for terminal atoms of 0.01
Uanis(O7) \\sim Ueq: with sigma of 0.01 and sigma for terminal atoms of 0.05
Uanis(C14S) \\sim Ueq: with sigma of 0.01 and sigma for terminal atoms of 0.1
4. Rigid body (RIGU) restrains
 O4, O3, O1, O2, C0AA, C10, C9, C2, C3, C8, C7, C6, C5, C4
 with sigma for 1-2 distances of 0.004 and sigma for 1-3 distances of 0.004
 C20, O8, O7, O5, C11, C12, C13, C15, C14, C19, C18, C17, C16
 with sigma for 1-2 distances of 0.004 and sigma for 1-3 distances of 0.004
 O21S, C21S, N21S, C24S, C22S, C23S, C25S
 with sigma for 1-2 distances of 0.004 and sigma for 1-3 distances of 0.004
 O11S, C11S, N11S, C12S, C13S
 with sigma for 1-2 distances of 0.004 and sigma for 1-3 distances of 0.004
5. Others
 Fixed Sof: O8(0.5) N11S(0.5) O7(0.5) O11S(0.5) C13(0.5) H13A(0.5) H13B(0.5)
 C15(0.5) H15A(0.5) H15B(0.5) C11S(0.5) H11S(0.5) C14(0.5) H14A(0.5) H14B(0.5)
 C20(0.5) C19(0.5) C18(0.5) H18A(0.5) H18B(0.5) C17(0.5) H17A(0.5) H17B(0.5)
 C16(0.5) H16A(0.5) H16B(0.5) O21S(0.5) C21S(0.5) H21S(0.5) C24S(0.5) H24A(0.5)
 H24B(0.5) N21S(0.5) C22S(0.5) H22A(0.5) H22B(0.5) C12S(0.5) H12A(0.5)
 H12B(0.5) C13S(0.5) H13C(0.5) H13D(0.5) H13E(0.5) C23S(0.5) H23A(0.5)
 H23B(0.5) H23C(0.5) C14S(0.5) H14C(0.5) H14D(0.5) C15S(0.5) H15C(0.5)
 H15D(0.5) H15E(0.5) C25S(0.5) H25A(0.5) H25B(0.5) H25C(0.5)
6.a Riding coordinates:
 C13(H13A,H13B), C15(H15A,H15B), C14(H14A,H14B), C18(H18A,H18B), C17(H17A,
 H17B), C16(H16A,H16B)
6.b Secondary CH2 refined with riding coordinates:
 C3(H3A,H3B), C8(H8A,H8B), C7(H7A,H7B), C6(H6A,H6B), C5(H5A,H5B), C4(H4A,H4B),
 C24S(H24A,H24B), C22S(H22A,H22B), C12S(H12A,H12B), C14S(H14C,H14D)
6.c Me refined with riding coordinates:
 C13S(H13C,H13D,H13E), C23S(H23A,H23B,H23C), C15S(H15C,H15D,H15E), C25S(H25A,
 H25B,H25C)
6.d Aromatic/amide H refined with riding coordinates:
 C11S(H11S), C21S(H21S)
;
_shelx_fab_checksum              17535
_shelx_fab_file
;
   -1    2    0    -44.42    -53.70
   -1    3    0     -0.80      3.97
   -2    4    0     14.78     11.38
    0    3    0     12.58     -0.11
   -1    4    0     -2.61     -7.72
   -2    5    0      3.45      1.81
   -3    6    0     -4.17     -6.30
    0    4    0     -3.54     -0.11
   -1    5    0     -5.04      1.14
   -2    6    0     -1.89      0.21
   -3    7    0      1.03      0.75
   -4    8    0     -0.69      0.64
    0    5    0      4.07     -0.24
   -1    6    0     -0.06     -1.52
   -2    7    0      1.89      1.52
   -3    8    0     -1.85      0.92
   -4    9    0      0.81      0.01
   -5   10    0     -0.94      1.75
    0    6    0      4.23      0.32
   -1    7    0     -0.01     -0.08
   -2    8    0     -3.32     -0.04
   -3    9    0      0.30     -0.75
   -4   10    0      0.99      0.76
   -5   11    0      0.84     -0.41
   -6   12    0      0.52     -1.00
    0    7    0      2.77      0.23
   -1    8    0     -1.02      0.08
   -2    9    0      1.17     -1.91
   -3   10    0     -0.71     -0.34
   -4   11    0     -0.30     -0.54
   -5   12    0     -0.64     -0.13
   -6   13    0      0.86      0.02
   -7   14    0     -0.34     -0.26
    0    8    0     -0.72      0.21
   -1    9    0      1.19     -0.52
   -2   10    0     -0.22      0.34
   -3   11    0     -1.22      0.86
   -4   12    0     -0.21      0.65
   -5   13    0      1.14      0.46
   -6   14    0     -0.06      0.10
   -7   15    0     -0.70     -0.39
    0    9    0     -0.04      0.29
   -1   10    0     -0.10     -0.94
   -2   11    0      0.45     -0.35
   -3   12    0      0.75     -0.31
   -4   13    0     -0.40      0.10
   -5   14    0     -0.45     -0.08
   -6   15    0     -1.17      0.21
    0   10    0     -1.31      0.16
   -1   11    0     -0.27     -1.36
   -2   12    0      1.49      0.17
   -3   13    0     -0.43     -0.61
   -4   14    0     -0.30      0.25
    0   11    0      0.46      0.24
   -1   12    0      0.25      0.38
   -2   13    0     -0.70      0.63
   -3   14    0     -0.49     -1.95
    0   12    0      0.03     -0.19
   -1   13    0     -0.69      2.24
   -2   14    0      0.48      0.01
    0   13    0     -0.53      0.01
   -1    2    1      7.10      4.19
   -2    3    1    -19.86     -2.71
   -2    2    1     -1.25      0.15
    0    2    1    -22.32     37.93
   -1    3    1     -0.31     -0.10
   -2    4    1     -5.22      1.35
   -3    5    1      9.05      1.30
   -3    4    1      0.23      1.75
   -3    3    1      3.14     -0.04
    0    3    1     -0.22      0.37
   -1    4    1      5.13    -10.64
   -2    5    1      1.57     -0.95
   -3    6    1      2.80      1.29
   -4    7    1     -1.29     -0.07
   -4    6    1     -1.84      1.51
   -4    5    1     -0.50     -2.79
   -4    4    1     -0.35     -0.03
    0    4    1     -1.57      3.21
   -1    5    1     -2.49     -2.53
   -2    6    1     -3.32      1.20
   -3    7    1     -0.92     -2.69
   -4    8    1      0.17      0.70
   -5    9    1     -0.45     -2.63
   -5    8    1      1.20      1.51
   -5    7    1      0.25     -1.35
   -5    6    1     -2.08     -2.58
   -5    5    1      1.35      0.02
    0    5    1     -3.66      6.17
   -1    6    1      0.85      0.25
   -2    7    1     -0.07     -0.38
   -3    8    1      0.47      0.46
   -4    9    1     -1.44      0.94
   -5   10    1      0.37      0.80
   -6   11    1     -0.92      0.41
   -6   10    1     -0.53      1.77
   -6    9    1     -1.56     -0.45
   -6    8    1     -1.14      2.05
   -6    7    1      0.55     -3.01
   -6    6    1      0.27     -0.01
    0    6    1     -0.38      0.70
   -1    7    1      3.19     -1.00
   -2    8    1      1.97      0.93
   -3    9    1     -0.65     -0.67
   -4   10    1      1.04     -0.08
   -5   11    1      0.58     -0.35
   -6   12    1     -1.06     -0.45
   -7   13    1      1.11     -0.58
   -7   12    1      0.91     -0.03
   -7   11    1      1.01      0.64
   -7   10    1      1.57      1.25
   -7    9    1      0.05     -1.13
   -7    8    1     -0.42      1.02
   -7    7    1      3.76     -0.05
    0    7    1     -0.82      1.05
   -1    8    1      2.32      1.72
   -2    9    1     -0.66      1.68
   -3   10    1      0.19     -2.35
   -4   11    1     -0.82      0.13
   -5   12    1     -0.59      0.81
   -6   13    1     -0.92     -0.63
   -7   14    1      1.48      0.21
   -8   15    1     -0.04      0.36
   -8   14    1      1.01      0.11
   -8   13    1     -0.05     -0.03
   -8   12    1     -0.67     -0.40
   -8   11    1     -1.07     -1.24
   -8   10    1     -0.07     -0.35
   -8    9    1     -0.45     -0.95
   -8    8    1     -1.27     -0.19
    0    8    1      0.43     -0.73
   -1    9    1     -1.00     -0.01
   -2   10    1      0.90     -0.93
   -3   11    1      0.16     -0.59
   -4   12    1     -0.58      0.62
   -5   13    1      0.40     -1.02
   -6   14    1      0.03     -0.28
   -7   15    1     -0.14      0.11
   -9   15    1     -0.53     -0.41
   -9   14    1      0.86     -0.77
   -9   13    1      0.37      0.48
   -9   12    1     -0.74     -0.13
   -9   11    1     -1.30      1.08
   -9   10    1      0.54      1.83
   -9    9    1      2.06      0.13
    0    9    1     -0.31      0.81
   -1   10    1     -0.35      0.09
   -2   11    1      0.12      0.67
   -3   12    1      0.53      0.67
   -4   13    1     -1.30     -0.50
   -5   14    1     -0.63      0.82
   -6   15    1     -0.74      0.40
  -10   14    1     -1.22      0.55
  -10   13    1      0.22     -0.01
  -10   12    1      0.51     -0.38
  -10   11    1     -0.39     -0.41
  -10   10    1      0.90      0.05
    0   10    1     -0.66      1.04
   -1   11    1     -0.09     -0.24
   -2   12    1      0.78     -0.38
   -3   13    1      2.47     -0.50
   -4   14    1      0.03      0.08
  -11   14    1     -0.49      0.41
  -11   13    1      3.47      0.15
  -11   12    1      0.64     -0.94
  -11   11    1     -0.65     -1.23
    0   11    1     -0.36      0.77
   -1   12    1     -1.32     -1.52
   -2   13    1     -1.39      0.09
   -3   14    1     -0.61      0.24
  -12   14    1      0.34     -0.10
  -12   13    1     -0.02      0.46
  -12   12    1     -2.99      0.09
    0   12    1     -0.24      0.54
   -1   13    1      0.08      0.17
   -2   14    1     -0.82      1.99
  -13   13    1     -1.70      0.08
    0   13    1      0.30     -1.31
   -1    2    2      3.53    -11.54
   -2    3    2      8.00      6.22
   -2    2    2     19.44      0.02
    0    2    2     -6.13    -11.22
   -1    3    2      8.25     15.74
   -2    4    2     -2.60      1.27
   -3    5    2     -0.82     -0.85
   -3    4    2     -5.78      6.95
   -3    3    2     -0.57      0.10
    0    3    2      2.75      5.29
   -1    4    2     -0.84      1.63
   -2    5    2     -0.15     -6.75
   -3    6    2      2.48      0.77
   -4    7    2     -1.43      0.70
   -4    6    2      0.17     -0.14
   -4    5    2     -0.30     -1.11
   -4    4    2     -1.81      0.01
    0    4    2     -3.96     -7.00
   -1    5    2      1.15     -2.03
   -2    6    2     -1.26     -2.05
   -3    7    2      1.95     -0.86
   -4    8    2     -0.57     -1.32
   -5    9    2      0.27      1.04
   -5    8    2      1.77      2.09
   -5    7    2     -1.87      1.06
   -5    6    2      0.56      1.92
   -5    5    2      4.85     -0.03
    0    5    2      1.24      2.63
   -1    6    2     -3.16      5.46
   -2    7    2     -1.93      1.97
   -3    8    2      0.22     -0.73
   -4    9    2     -1.98      0.89
   -5   10    2      0.15      0.11
   -6   11    2      0.70     -0.61
   -6   10    2      0.13     -2.18
   -6    9    2     -0.46     -0.67
   -6    8    2      1.68     -1.35
   -6    7    2     -2.38     -4.28
   -6    6    2      2.38      0.05
    0    6    2     -0.61     -0.98
   -1    7    2     -0.82      0.75
   -2    8    2      0.77      0.00
   -3    9    2      2.67      0.91
   -4   10    2      0.91     -0.73
   -5   11    2      0.71      0.26
   -6   12    2      0.24     -0.30
   -7   13    2     -1.56      0.49
   -7   12    2     -0.12      0.28
   -7   11    2     -0.19      1.70
   -7   10    2     -1.28     -0.49
   -7    9    2     -0.61      1.58
   -7    8    2      0.57     -0.43
   -7    7    2      0.03     -0.02
    0    7    2     -1.66     -2.55
   -1    8    2     -0.31     -0.86
   -2    9    2      0.03      1.26
   -3   10    2      0.05      0.19
   -4   11    2     -0.70     -1.26
   -5   12    2      0.06      1.30
   -6   13    2     -0.80     -0.33
   -7   14    2     -0.54     -1.71
   -8   15    2      1.24     -0.05
   -8   14    2      0.25      0.08
   -8   13    2     -0.63      0.40
   -8   12    2      0.89      1.14
   -8   11    2      0.69      0.61
   -8   10    2      0.67     -0.52
   -8    9    2     -1.04     -0.43
   -8    8    2      1.07     -0.03
    0    8    2     -0.54     -0.95
   -1    9    2      0.71     -0.34
   -2   10    2     -0.14      0.54
   -3   11    2      0.46      0.18
   -4   12    2      0.82     -1.02
   -5   13    2      0.00      0.33
   -6   14    2     -0.55     -1.38
   -7   15    2     -0.26      0.53
   -9   15    2      0.22      1.13
   -9   14    2      0.35     -0.59
   -9   13    2     -0.14      0.56
   -9   12    2      0.08     -0.28
   -9   11    2      0.64     -0.85
   -9   10    2      0.26     -0.37
   -9    9    2     -0.78     -0.44
    0    9    2     -0.51     -1.14
   -1   10    2     -0.70     -0.39
   -2   11    2     -0.91      0.66
   -3   12    2     -0.68      1.30
   -4   13    2      0.21      0.15
   -5   14    2     -1.23     -0.09
   -6   15    2     -0.54      0.85
  -10   14    2      1.19     -0.12
  -10   13    2     -1.51     -1.67
  -10   12    2     -1.34     -0.03
  -10   11    2     -0.58      0.43
  -10   10    2      0.74      0.44
    0   10    2      0.18     -0.22
   -1   11    2      0.69      0.60
   -2   12    2      0.26     -1.07
   -3   13    2      1.33      0.50
   -4   14    2      1.89     -0.01
  -11   14    2      0.03     -0.14
  -11   13    2     -0.04     -0.14
  -11   12    2      0.27      3.82
  -11   11    2      0.38      0.16
    0   11    2     -0.20     -0.14
   -1   12    2     -0.83     -0.03
   -2   13    2     -2.07     -2.88
   -3   14    2     -0.94      0.10
  -12   14    2      3.84      0.26
  -12   13    2      0.64      0.27
  -12   12    2     -0.07     -0.70
    0   12    2      1.07      1.36
   -1   13    2      0.21      1.17
   -2   14    2     -0.25      0.23
  -13   13    2     -3.99     -0.01
    0   13    2      0.13      0.57
   -1    2    3    -24.63    -22.20
   -2    3    3     -1.83     -4.49
   -2    2    3    -14.09     -0.08
    0    2    3    -14.65     -0.10
   -1    3    3      1.89     -6.72
   -2    4    3     13.36      8.60
   -3    5    3      1.15      1.36
   -3    4    3      0.80      2.78
   -3    3    3      1.69     -0.15
    0    3    3     10.66      0.22
   -1    4    3      2.25      0.79
   -2    5    3     -0.19     -1.03
   -3    6    3     -2.49     -2.77
   -4    7    3      0.30     -0.98
   -4    6    3      1.58     -0.18
   -4    5    3     -4.60     -1.12
   -4    4    3     -0.27      0.08
    0    4    3     -2.12     -0.01
   -1    5    3     -5.65     -1.80
   -2    6    3      0.90     -1.73
   -3    7    3      1.51      0.76
   -4    8    3      2.40     -0.03
   -5    9    3      0.16      0.94
   -5    8    3     -3.10     -0.15
   -5    7    3      0.34      0.91
   -5    6    3     -0.96     -1.28
   -5    5    3      0.62     -0.02
    0    5    3     -1.12     -0.11
   -1    6    3     -0.25     -0.52
   -2    7    3     -1.81      0.40
   -3    8    3     -2.02      1.23
   -4    9    3      0.28     -1.15
   -5   10    3     -0.57      1.37
   -6   11    3      0.73     -1.88
   -6   10    3     -0.08      0.83
   -6    9    3      0.80     -1.32
   -6    8    3     -0.96      1.01
   -6    7    3     -0.85      0.62
   -6    6    3      4.68      0.00
    0    6    3      5.42      0.02
   -1    7    3      1.36      1.55
   -2    8    3     -1.46      0.77
   -3    9    3     -0.56      0.35
   -4   10    3      1.10      0.46
   -5   11    3      0.19      0.04
   -6   12    3      0.42     -0.73
   -7   13    3      1.25      0.67
   -7   12    3      0.58     -1.36
   -7   11    3     -0.16      0.43
   -7   10    3     -1.18     -0.06
   -7    9    3      2.22      0.27
   -7    8    3     -1.92      0.23
   -7    7    3      2.28     -0.01
    0    7    3      1.52      0.11
   -1    8    3     -0.08     -0.61
   -2    9    3     -0.48     -2.17
   -3   10    3     -0.81      0.19
   -4   11    3     -0.25     -0.68
   -5   12    3     -1.05      0.04
   -6   13    3      1.22     -0.04
   -7   14    3     -0.87     -1.04
   -8   15    3      0.09     -0.98
   -8   14    3     -0.75      1.24
   -8   13    3      0.51      0.19
   -8   12    3      0.67      0.17
   -8   11    3     -1.81     -0.32
   -8   10    3      0.74      0.08
   -8    9    3      0.32     -0.39
   -8    8    3      0.70      0.15
    0    8    3     -0.36      0.43
   -1    9    3      1.19     -0.15
   -2   10    3      0.17     -0.26
   -3   11    3      0.73      0.91
   -4   12    3     -0.27      0.66
   -5   13    3      0.88      0.54
   -6   14    3     -0.32      0.56
   -7   15    3     -1.78     -0.23
   -9   15    3     -1.07      0.39
   -9   14    3     -1.37     -0.53
   -9   13    3      0.72      1.09
   -9   12    3      0.04     -0.21
   -9   11    3     -0.30      0.06
   -9   10    3     -0.08      0.08
   -9    9    3     -1.58     -0.04
    0    9    3      0.12      0.18
   -1   10    3     -0.50     -1.57
   -2   11    3      0.21     -0.89
   -3   12    3     -0.80      0.34
   -4   13    3     -0.89     -0.32
   -5   14    3      0.42      0.16
   -6   15    3      0.07     -0.46
  -10   14    3      0.37      0.72
  -10   13    3      0.00      0.25
  -10   12    3      2.37     -1.57
  -10   11    3      0.74     -0.56
  -10   10    3      0.48     -0.40
    0   10    3     -0.92      0.11
   -1   11    3      0.30     -0.26
   -2   12    3      1.43      0.67
   -3   13    3     -0.33     -0.78
   -4   14    3      0.00      0.66
  -11   14    3     -0.82     -2.15
  -11   13    3     -0.79      0.43
  -11   12    3     -0.50      0.21
  -11   11    3     -3.20      0.28
    0   11    3     -0.03      0.05
   -1   12    3     -0.28     -0.25
   -2   13    3     -0.59     -0.47
   -3   14    3     -0.54     -1.58
  -12   13    3     -0.08      4.22
  -12   12    3      0.48      0.16
    0   12    3      0.50     -0.23
   -1   13    3     -0.70      1.54
  -13   13    3     -1.72      0.05
    0   13    3      0.57     -0.23
   -1    1    4     60.03     -0.15
    0    1    4      5.77    -10.68
   -1    2    4      1.15      4.07
   -2    3    4    -17.46     -1.33
    0    2    4    -15.66     26.36
   -1    3    4      0.26      5.37
   -2    4    4      2.46      2.77
   -3    5    4      9.67      5.48
   -3    4    4     -4.29      1.68
   -3    3    4      0.80     -0.06
    0    3    4      2.01     -3.98
   -1    4    4      5.20    -11.93
   -2    5    4      0.19     -3.07
   -3    6    4      1.35     -0.42
   -4    7    4     -3.02     -2.06
   -4    6    4      1.62      1.35
   -4    5    4     -4.19     -3.25
   -4    4    4      6.06     -0.04
    0    4    4     -1.43      2.44
   -1    5    4     -1.24      0.33
   -2    6    4     -3.97      2.78
   -3    7    4      0.07      0.06
   -4    8    4      1.52      1.93
   -5    9    4     -0.17      0.99
   -5    8    4      0.08     -0.77
   -5    7    4      0.61      0.97
   -5    6    4     -3.44     -0.39
   -5    5    4      1.61     -0.03
    0    5    4     -2.13      3.43
   -1    6    4     -1.25     -1.14
   -2    7    4     -0.99     -3.10
   -3    8    4      0.41     -2.24
   -4    9    4      0.01     -0.90
   -5   10    4     -0.22      0.13
   -6   11    4      0.54      0.37
   -6   10    4      0.88      2.13
   -6    9    4     -0.63     -1.97
   -6    8    4      2.39      0.74
   -6    7    4     -1.04     -2.88
   -6    6    4      4.50      0.03
    0    6    4     -1.65      2.86
   -1    7    4      1.73      0.30
   -2    8    4      1.99      3.08
   -3    9    4     -1.32      0.38
   -4   10    4      0.11     -0.22
   -5   11    4     -0.78      0.11
   -6   12    4     -0.55      0.29
   -7   13    4      0.88     -0.44
   -7   12    4     -0.11     -1.90
   -7   11    4     -0.04      0.86
   -7   10    4     -0.07     -1.15
   -7    9    4     -0.31     -0.07
   -7    8    4     -1.67      0.42
   -7    7    4     -0.13     -0.05
    0    7    4      0.75     -2.30
   -1    8    4      1.70      0.82
   -2    9    4      1.00      1.19
   -3   10    4     -1.00     -1.13
   -4   11    4      0.16     -0.33
   -5   12    4     -1.00     -0.45
   -6   13    4     -0.70     -0.74
   -7   14    4      1.53     -1.55
   -8   15    4     -0.03     -0.12
   -8   14    4      1.21      1.40
   -8   13    4      0.36     -0.93
   -8   12    4     -0.74      0.51
   -8   11    4     -1.21      0.87
   -8   10    4      1.22      0.27
   -8    9    4     -0.34      1.30
   -8    8    4      0.39     -0.13
    0    8    4      0.04     -0.01
   -1    9    4     -0.79      0.70
   -2   10    4      1.01     -0.30
   -3   11    4     -0.25      0.04
   -4   12    4      1.02      0.99
   -5   13    4     -1.73      0.67
   -6   14    4     -0.14      1.27
   -7   15    4     -0.47      0.27
   -9   14    4      0.18     -0.76
   -9   13    4      0.93     -0.45
   -9   12    4     -1.49     -0.52
   -9   11    4     -0.25      0.02
   -9   10    4      0.55      0.29
   -9    9    4      0.31      0.26
    0    9    4     -0.09     -0.05
   -1   10    4     -0.37     -0.11
   -2   11    4      0.09     -1.21
   -3   12    4      1.15     -0.07
   -4   13    4      0.40     -0.55
   -5   14    4     -0.33     -0.48
  -10   14    4     -0.15      0.54
  -10   13    4      0.74     -0.51
  -10   12    4     -0.04      0.28
  -10   11    4      0.36      0.90
  -10   10    4     -0.45      0.06
    0   10    4     -0.65      0.74
   -1   11    4     -0.63      0.27
   -2   12    4      0.33     -0.21
   -3   13    4     -0.03      0.69
   -4   14    4     -0.40     -0.37
  -11   14    4     -0.27     -0.79
  -11   13    4      2.58      0.01
  -11   12    4     -0.11     -1.04
  -11   11    4      0.40     -0.31
    0   11    4     -0.24      0.37
   -1   12    4      0.24     -0.08
   -2   13    4     -0.34     -0.48
   -3   14    4     -0.01      0.39
  -12   13    4     -0.48      1.10
  -12   12    4     -3.09     -0.11
    0   12    4     -0.55      0.92
   -1   13    4     -0.75     -0.05
  -13   13    4     -0.04      0.05
    0   13    4     -0.26      0.02
   -1    1    5     -1.04      0.00
   -1    2    5     -4.25     -7.09
   -2    3    5     -2.11      0.20
   -2    2    5     13.12     -0.02
    0    2    5      1.24      2.36
   -1    3    5      7.01     13.73
   -2    4    5      5.08      6.52
   -3    5    5     -1.17      3.14
   -3    4    5     -8.10      3.93
   -3    3    5      2.41     -0.01
    0    3    5     -1.62     -3.02
   -1    4    5      1.89     -3.12
   -2    5    5     -0.34    -11.54
   -3    6    5      1.25     -1.62
   -4    7    5      0.71      0.27
   -4    6    5      4.05      2.98
   -4    5    5     -2.67     -1.49
   -4    4    5      4.12      0.06
    0    4    5     -2.01     -3.75
   -1    5    5     -1.28      0.64
   -2    6    5      1.57     -1.17
   -3    7    5     -1.47      0.71
   -4    8    5     -0.32      1.33
   -5    9    5     -1.45      0.48
   -5    8    5     -0.81      0.71
   -5    7    5     -1.35      1.83
   -5    6    5     -2.18     -2.84
   -5    5    5      3.61      0.01
    0    5    5     -0.58     -0.93
   -1    6    5      0.15      4.44
   -2    7    5     -1.66     -0.94
   -3    8    5      0.27     -1.36
   -4    9    5      0.40     -1.54
   -5   10    5      1.50     -0.97
   -6   11    5      0.46      0.29
   -6   10    5      0.33     -0.38
   -6    9    5      0.10     -1.38
   -6    8    5      1.21      1.13
   -6    7    5     -0.86     -0.06
   -6    6    5      3.25      0.01
    0    6    5      0.09      0.11
   -1    7    5     -2.25      2.77
   -2    8    5     -0.75      0.11
   -3    9    5     -0.07      0.89
   -4   10    5     -0.43     -0.69
   -5   11    5      0.15      0.39
   -6   12    5     -0.54      0.43
   -7   13    5     -1.04      0.23
   -7   12    5      0.00     -0.08
   -7   11    5      0.97      1.56
   -7   10    5      0.64     -1.36
   -7    9    5     -0.06      0.14
   -7    8    5     -0.15     -0.52
   -7    7    5      1.23      0.03
    0    7    5     -0.73     -1.15
   -1    8    5      1.42     -1.54
   -2    9    5      0.83      1.11
   -3   10    5      1.09      0.96
   -4   11    5     -0.67     -0.37
   -5   12    5      0.59     -0.04
   -6   13    5     -0.56     -0.60
   -7   14    5      0.00     -1.75
   -8   15    5      1.47     -0.38
   -8   14    5      0.54      0.19
   -8   13    5     -1.39     -0.22
   -8   12    5      0.43      1.48
   -8   11    5      0.43      0.25
   -8   10    5      0.44     -0.74
   -8    9    5     -0.66      0.29
   -8    8    5     -0.59      0.07
    0    8    5     -0.87     -1.63
   -1    9    5      0.25     -0.76
   -2   10    5     -0.01      0.45
   -3   11    5      0.21     -0.02
   -4   12    5     -0.24     -0.02
   -5   13    5     -0.26      0.35
   -6   14    5     -2.64     -0.05
   -7   15    5     -0.46      0.54
   -9   14    5      0.10     -0.86
   -9   13    5     -1.05     -0.11
   -9   12    5      0.35      0.59
   -9   11    5     -0.06     -0.20
   -9   10    5      0.52     -0.22
   -9    9    5     -1.13     -0.29
    0    9    5      0.39     -0.05
   -1   10    5     -0.28     -0.05
   -2   11    5     -0.85      0.05
   -3   12    5      0.03     -0.06
   -4   13    5      1.57      0.77
   -5   14    5      0.64      0.13
  -10   14    5      0.76     -0.70
  -10   13    5     -0.23     -1.00
  -10   12    5     -0.07      0.69
  -10   11    5     -0.65     -0.74
  -10   10    5      0.62      0.23
    0   10    5      0.31      0.29
   -1   11    5     -0.45     -0.19
   -2   12    5     -0.28     -0.78
   -3   13    5      0.20     -0.49
   -4   14    5      0.32     -0.30
  -11   14    5      0.81     -1.14
  -11   13    5     -0.29      1.16
  -11   12    5     -0.19      1.18
  -11   11    5      0.11      0.11
    0   11    5      0.00     -0.02
   -1   12    5     -0.21     -0.16
   -2   13    5      0.19      0.52
   -3   14    5     -0.66     -0.18
  -12   13    5     -0.51      1.29
  -12   12    5      1.37     -0.19
    0   12    5      0.01     -0.63
   -1   13    5     -0.36      0.80
  -13   13    5     -2.18     -0.12
    0   13    5      1.10      1.88
   -1    1    6      8.71      0.00
    0    1    6      2.82     -0.57
   -1    2    6     -7.63     -1.28
   -2    3    6     -5.66     -2.49
   -2    2    6     -4.99      0.10
    0    2    6     -5.75      0.07
   -1    3    6      0.53     -1.59
   -2    4    6     10.90      2.41
   -3    5    6     -1.66      4.11
   -3    4    6      2.36      2.48
   -3    3    6     -7.25     -0.04
    0    3    6      3.58      0.11
   -1    4    6      4.89     -0.03
   -2    5    6     -0.12      1.89
   -3    6    6      2.16     -3.90
   -4    7    6      1.84      0.06
   -4    6    6     -0.69     -1.79
   -4    5    6     -2.79      0.50
   -4    4    6      3.51     -0.01
    0    4    6     -0.41      0.10
   -1    5    6     -6.30     -1.56
   -2    6    6      0.10     -2.50
   -3    7    6      0.99     -0.61
   -4    8    6      1.71     -1.36
   -5    9    6     -0.78      1.30
   -5    8    6     -0.29     -0.86
   -5    7    6     -1.73      0.92
   -5    6    6     -0.37     -3.60
   -5    5    6     -2.26      0.04
    0    5    6     -1.72     -0.18
   -1    6    6     -1.10     -2.01
   -2    7    6     -1.01      3.77
   -3    8    6     -0.34     -1.00
   -4    9    6      1.62      1.21
   -5   10    6     -0.63     -0.56
   -6   11    6      0.68     -0.66
   -6   10    6     -1.73     -0.66
   -6    9    6     -0.21      1.88
   -6    8    6     -0.90      1.16
   -6    7    6      0.51      1.10
   -6    6    6      1.43      0.02
    0    6    6      5.05     -0.15
   -1    7    6     -0.54      1.34
   -2    8    6     -0.77      0.44
   -3    9    6     -1.61     -0.28
   -4   10    6     -0.42     -0.57
   -5   11    6     -0.47     -1.23
   -6   12    6     -0.32      0.43
   -7   13    6      1.22      0.53
   -7   12    6      1.20     -1.25
   -7   11    6      0.63     -0.49
   -7   10    6      0.06     -1.10
   -7    9    6      0.82      0.96
   -7    8    6      0.62     -0.13
   -7    7    6      0.44     -0.04
    0    7    6      2.00      0.17
   -1    8    6     -0.43     -0.25
   -2    9    6      0.80      0.23
   -3   10    6     -1.12      1.36
   -4   11    6      0.94      0.13
   -5   12    6     -0.28     -0.46
   -6   13    6      1.17     -0.12
   -7   14    6     -0.86     -0.54
   -8   14    6     -1.10      1.26
   -8   13    6      0.38      0.67
   -8   12    6      0.49     -0.47
   -8   11    6     -0.63      0.46
   -8   10    6     -0.38     -0.39
   -8    9    6     -0.34      0.64
   -8    8    6     -1.02      0.01
    0    8    6      0.32      0.28
   -1    9    6     -0.15     -0.73
   -2   10    6      0.69     -1.12
   -3   11    6      0.15     -0.18
   -4   12    6     -0.36      0.31
   -5   13    6     -0.01     -0.40
   -6   14    6     -1.12      0.05
   -9   14    6     -1.69      0.36
   -9   13    6      0.77      0.52
   -9   12    6      0.48     -1.02
   -9   11    6     -0.89      1.10
   -9   10    6      0.36     -0.97
   -9    9    6     -0.41      0.26
    0    9    6      0.30      0.04
   -1   10    6     -0.37      0.41
   -2   11    6      1.30     -0.72
   -3   12    6     -1.13      0.69
   -4   13    6     -0.30      1.24
   -5   14    6      0.70      1.40
  -10   14    6     -0.91     -0.20
  -10   13    6      1.72      1.02
  -10   12    6     -0.01     -0.18
  -10   11    6      0.07      0.42
  -10   10    6      2.39     -0.14
    0   10    6     -0.65     -0.20
   -1   11    6      0.11      0.21
   -2   12    6      0.40     -0.22
   -3   13    6     -0.14     -1.12
   -4   14    6      0.46     -0.25
  -11   14    6      0.54     -0.26
  -11   13    6      1.33      0.34
  -11   12    6     -1.33     -2.76
  -11   11    6     -0.68      0.11
    0   11    6     -0.32      0.22
   -1   12    6     -0.57      0.42
   -2   13    6     -0.02     -0.77
   -3   14    6     -1.33      0.09
  -12   13    6      0.50      1.92
  -12   12    6     -1.75      0.01
    0   12    6     -0.50      0.00
   -1   13    6      0.58     -0.23
   -1    1    7      3.00     -0.36
    0    1    7      4.08     -7.43
   -1    2    7      4.56      3.28
   -2    3    7     -1.72      8.20
   -2    2    7      6.07      0.00
    0    2    7     -1.30      2.49
   -1    3    7     -7.01      4.54
   -2    4    7      0.66     -2.67
   -3    5    7      3.38      1.60
   -3    4    7     -1.65     -2.55
   -3    3    7     -7.17      0.11
    0    3    7     -0.61      0.60
   -1    4    7      3.91     -5.26
   -2    5    7      5.06      3.34
   -3    6    7     -1.24      2.18
   -4    7    7      1.26      1.21
   -4    6    7     -2.64      1.79
   -4    5    7      3.11      3.26
   -4    4    7     -2.21     -0.03
    0    4    7      4.53     -8.06
   -1    5    7      0.31     -0.06
   -2    6    7     -4.04     -2.55
   -3    7    7     -0.05     -1.52
   -4    8    7      0.23      0.46
   -5    9    7      1.85      0.80
   -5    8    7      0.53      0.37
   -5    7    7      0.35     -2.46
   -5    6    7     -0.60     -0.54
   -5    5    7      2.94      0.02
    0    5    7     -3.19      6.02
   -1    6    7     -3.21     -0.53
   -2    7    7     -0.66     -1.25
   -3    8    7     -0.34      0.02
   -4    9    7      0.37     -1.50
   -5   10    7      0.70      1.18
   -6   11    7     -0.53     -0.13
   -6   10    7      0.29      0.55
   -6    9    7      0.71     -0.93
   -6    8    7     -0.01     -1.70
   -6    7    7      0.24     -1.45
   -6    6    7     -2.52     -0.03
    0    6    7     -0.38      0.82
   -1    7    7      2.54     -0.68
   -2    8    7     -0.06      2.03
   -3    9    7     -0.10     -0.96
   -4   10    7     -0.37     -0.27
   -5   11    7      0.19      0.19
   -6   12    7     -0.90     -0.46
   -7   13    7      0.52     -0.78
   -7   12    7     -0.61     -0.91
   -7   11    7      0.38      0.29
   -7   10    7     -0.95     -0.30
   -7    9    7      0.20      0.77
   -7    8    7      0.00      1.02
   -7    7    7     -1.13      0.02
    0    7    7      0.27     -0.42
   -1    8    7      0.92      0.11
   -2    9    7     -0.41      0.84
   -3   10    7     -0.57      0.34
   -4   11    7     -0.99      1.13
   -5   12    7      0.14     -0.33
   -6   13    7     -0.81     -0.47
   -7   14    7      1.49     -1.01
   -8   14    7      1.61      0.36
   -8   13    7     -0.07     -1.29
   -8   12    7     -0.97      0.32
   -8   11    7      0.32      0.82
   -8   10    7     -0.56      0.43
   -8    9    7      0.19      1.35
   -8    8    7     -0.02     -0.09
    0    8    7     -0.64      1.10
   -1    9    7      0.56     -0.63
   -2   10    7      0.53      0.79
   -3   11    7      0.30     -0.60
   -4   12    7      0.46      0.21
   -5   13    7     -1.34     -0.02
   -6   14    7      0.02      0.59
   -9   14    7      0.52      0.83
   -9   13    7      0.73     -1.94
   -9   12    7     -0.78      0.67
   -9   11    7      1.16      0.06
   -9   10    7     -1.17     -2.54
   -9    9    7      0.35      0.02
    0    9    7     -0.09      0.53
   -1   10    7      0.18     -0.58
   -2   11    7     -0.85      0.22
   -3   12    7      1.19     -0.71
   -4   13    7     -0.75      1.01
   -5   14    7     -0.10      0.96
  -10   14    7      0.90     -1.55
  -10   13    7      0.44     -1.18
  -10   12    7     -2.35      1.72
  -10   11    7      0.81     -0.22
  -10   10    7     -0.30      0.15
    0   10    7      0.36     -0.66
   -1   11    7     -1.04     -0.91
   -2   12    7      0.87      0.19
   -3   13    7      0.52     -0.36
   -4   14    7      0.43      0.17
  -11   14    7      1.15      0.69
  -11   13    7     -0.24     -0.01
  -11   12    7     -0.48      1.11
  -11   11    7      4.11      0.27
    0   11    7     -0.41      0.97
   -1   12    7     -0.34      0.40
   -2   13    7     -0.57      0.26
   -3   14    7      0.30     -0.62
  -12   13    7     -0.12     -0.93
  -12   12    7     -2.30     -0.07
    0   12    7     -0.06      0.22
   -1   13    7     -1.39     -0.12
   -1    1    8     -2.95      0.11
    0    1    8     -3.06     -4.62
   -1    2    8     -1.09     -7.11
   -2    3    8     -0.36      2.09
   -2    2    8     -0.22     -0.27
    0    2    8     -0.05     -0.14
   -1    3    8      1.11      6.58
   -2    4    8     -2.42      3.22
   -3    5    8     -0.36      0.66
   -3    4    8     -2.06      1.00
   -3    3    8      1.41      0.00
    0    3    8      4.95      8.46
   -1    4    8      1.97     -3.02
   -2    5    8      2.30     -3.74
   -3    6    8      1.37     -1.51
   -4    7    8     -0.73      1.71
   -4    6    8      1.36      1.03
   -4    5    8     -1.20     -1.28
   -4    4    8      0.20      0.05
    0    4    8     -3.64     -6.11
   -1    5    8      1.94     -4.72
   -2    6    8      1.09      0.19
   -3    7    8      0.34     -0.48
   -4    8    8      0.12      1.39
   -5    9    8      0.58     -0.17
   -5    8    8     -3.27      0.80
   -5    7    8      0.34      1.52
   -5    6    8      0.13     -1.14
   -5    5    8     -0.23      0.05
    0    5    8      0.08      0.93
   -1    6    8     -0.66      2.79
   -2    7    8     -1.79     -0.45
   -3    8    8     -0.96     -1.37
   -4    9    8      0.68     -1.92
   -5   10    8     -0.29     -1.65
   -6   11    8      0.28     -0.04
   -6   10    8      0.33      1.36
   -6    9    8     -0.53     -0.27
   -6    8    8     -0.19      0.19
   -6    7    8      0.28      1.67
   -6    6    8      1.44     -0.03
    0    6    8      0.93      2.28
   -1    7    8     -1.11      0.57
   -2    8    8     -0.01      0.09
   -3    9    8     -0.11      0.60
   -4   10    8     -0.66     -0.48
   -5   11    8      0.98      0.63
   -6   12    8     -0.32      1.22
   -7   13    8     -0.12      0.25
   -7   12    8     -0.25      0.29
   -7   11    8      2.34      0.07
   -7   10    8      0.90     -0.29
   -7    9    8      2.69     -1.40
   -7    8    8     -0.70      0.13
   -7    7    8      0.65      0.05
    0    7    8     -0.47     -0.72
   -1    8    8      0.84     -0.82
   -2    9    8      0.73     -0.07
   -3   10    8     -0.35     -0.35
   -4   11    8     -0.84     -0.50
   -5   12    8      0.25      0.00
   -6   13    8     -0.94     -1.16
   -7   14    8     -0.59     -0.65
   -8   14    8      1.26     -0.79
   -8   13    8     -1.98     -0.38
   -8   12    8      0.68      0.99
   -8   11    8     -0.34     -0.77
   -8   10    8     -0.95      0.75
   -8    9    8     -0.57     -0.58
   -8    8    8     -1.01      0.10
    0    8    8     -0.54     -0.78
   -1    9    8     -0.52      1.31
   -2   10    8      0.55      0.27
   -3   11    8      0.57      0.50
   -4   12    8     -1.05      0.53
   -5   13    8      0.73      0.64
   -6   14    8     -2.11      0.44
   -9   14    8     -1.40     -0.36
   -9   13    8     -1.09     -0.13
   -9   12    8      1.25      2.07
   -9   11    8     -0.62     -0.35
   -9   10    8     -0.50      0.58
   -9    9    8      2.81      0.24
    0    9    8      0.10      0.08
   -1   10    8      0.54      0.32
   -2   11    8      0.10     -0.41
   -3   12    8     -0.22     -1.06
   -4   13    8      0.30      0.14
   -5   14    8      0.59      0.87
  -10   14    8      0.84     -2.34
  -10   13    8      1.13      0.77
  -10   12    8      0.96      0.18
  -10   11    8     -0.95     -4.09
  -10   10    8     -0.08     -0.08
    0   10    8     -0.50     -0.76
   -1   11    8      0.08     -0.21
   -2   12    8     -0.68     -0.10
   -3   13    8      1.17     -0.43
   -4   14    8     -0.22     -0.63
  -11   14    8      0.14     -0.41
  -11   13    8     -1.87      1.08
  -11   12    8      0.71      0.20
  -11   11    8     -0.02     -0.13
    0   11    8     -0.35     -0.43
   -1   12    8     -0.21     -0.06
   -2   13    8      0.12      1.35
   -3   14    8      0.24     -0.46
  -12   13    8     -0.35      1.66
  -12   12    8      1.77      0.36
    0   12    8     -0.03      0.05
   -1   13    8      0.29      0.18
    0    0    9      3.48     -0.32
   -1    1    9      4.33     -0.02
    0    1    9      0.03     -0.25
   -1    2    9     -3.35     -2.82
   -2    3    9     -4.24     -1.07
   -2    2    9     -0.32      0.13
    0    2    9     -3.21     -0.22
   -1    3    9      2.19      4.41
   -2    4    9      1.21      4.04
   -3    5    9      2.86      2.96
   -3    4    9     -2.77     -2.08
   -3    3    9      2.98     -0.01
    0    3    9      6.04      0.19
   -1    4    9      3.67      0.25
   -2    5    9      0.86     -0.75
   -3    6    9      0.35     -2.00
   -4    7    9      0.35     -4.55
   -4    6    9     -1.61      0.68
   -4    5    9     -1.87     -0.21
   -4    4    9      1.99     -0.05
    0    4    9     -2.49     -0.19
   -1    5    9     -2.41     -0.55
   -2    6    9     -1.92      0.92
   -3    7    9      2.02      0.46
   -4    8    9      2.71      1.07
   -5    9    9     -0.04      2.16
   -5    8    9     -0.24      1.35
   -5    7    9      0.99     -0.62
   -5    6    9     -3.02     -0.80
   -5    5    9      4.28     -0.01
    0    5    9     -1.37      0.00
   -1    6    9      0.47     -2.22
   -2    7    9     -0.71      0.12
   -3    8    9      0.78     -0.73
   -4    9    9     -0.14     -1.12
   -5   10    9     -0.06     -1.32
   -6   11    9     -1.47     -1.65
   -6   10    9      0.13     -0.53
   -6    9    9     -3.11     -0.34
   -6    8    9      1.60      1.63
   -6    7    9     -0.34     -1.69
   -6    6    9     -0.18      0.10
    0    6    9      0.46     -0.01
   -1    7    9      0.35      2.39
   -2    8    9     -1.17      0.74
   -3    9    9     -0.16      1.39
   -4   10    9     -0.22     -0.16
   -5   11    9     -0.68     -0.36
   -6   12    9      0.42      0.81
   -7   13    9      0.24      1.34
   -7   12    9      0.78     -0.46
   -7   11    9      0.49     -0.25
   -7   10    9     -0.12     -0.08
   -7    9    9     -0.74      0.80
   -7    8    9     -0.33      0.94
   -7    7    9      0.61     -0.12
    0    7    9      0.04     -0.01
   -1    8    9     -0.25     -1.78
   -2    9    9     -0.34     -0.58
   -3   10    9      0.02      0.50
   -4   11    9      0.23     -1.48
   -5   12    9      0.36     -0.47
   -6   13    9      0.53     -1.25
   -7   14    9     -1.13     -1.16
   -8   14    9      0.09      0.78
   -8   13    9     -0.10      0.70
   -8   12    9      1.96     -1.78
   -8   11    9     -0.14      0.47
   -8   10    9      0.59     -0.33
   -8    9    9     -1.12     -0.55
   -8    8    9      0.06     -0.01
    0    8    9     -0.50     -0.03
   -1    9    9     -0.21      0.33
   -2   10    9     -0.81      0.87
   -3   11    9      0.62      0.67
   -4   12    9     -0.81     -0.15
   -5   13    9     -1.33      0.64
   -6   14    9     -0.46      0.17
   -9   14    9     -2.43      0.45
   -9   13    9      0.47     -0.49
   -9   12    9     -0.17      0.22
   -9   11    9     -2.61      1.55
   -9   10    9      0.85     -0.73
   -9    9    9      1.15      0.20
    0    9    9      1.69      0.10
   -1   10    9      0.13      0.34
   -2   11    9      1.01     -0.35
   -3   12    9      0.78      0.86
   -4   13    9      0.40     -0.82
   -5   14    9      0.69      1.09
  -10   14    9     -0.72     -0.16
  -10   13    9      2.76      2.04
  -10   12    9     -1.41     -0.19
  -10   11    9      0.04      0.68
  -10   10    9      4.34      0.57
    0   10    9      0.02     -0.05
   -1   11    9     -0.43     -0.29
   -2   12    9     -1.42      0.23
   -3   13    9     -0.42      0.72
   -4   14    9      0.55     -0.80
  -11   13    9      1.75     -0.93
  -11   12    9     -0.78     -3.56
  -11   11    9     -0.65     -0.09
    0   11    9      0.05      0.13
   -1   12    9     -0.10     -0.16
   -2   13    9      0.21     -0.79
  -12   13    9      0.49     -0.60
  -12   12    9     -2.00     -0.25
    0   12    9     -1.21      0.12
   -1   13    9      0.93     -1.07
   -1    1   10     -1.41     -0.14
    0    1   10      0.11      0.22
   -1    2   10     -0.81      0.28
   -2    3   10     -0.75     -1.08
   -2    2   10      2.86     -0.13
    0    2   10     -0.67      0.89
   -1    3   10      0.52      4.15
   -2    4   10     -0.12      1.18
   -3    5   10      1.11      1.20
   -3    4   10     -3.50     -1.16
   -3    3   10      0.51      0.15
    0    3   10      0.91     -1.72
   -1    4   10      0.74     -1.12
   -2    5   10      2.31     -2.56
   -3    6   10     -2.43      1.57
   -4    7   10      0.53      0.37
   -4    6   10      1.61      3.48
   -4    5   10      0.78     -0.87
   -4    4   10      0.36      0.10
    0    4   10      0.65     -2.22
   -1    5   10      3.29      0.90
   -2    6   10     -1.68      0.28
   -3    7   10     -1.95      0.65
   -4    8   10      0.08      0.59
   -5    9   10      2.04      1.02
   -5    8   10      0.59     -2.01
   -5    7   10     -0.45     -1.24
   -5    6   10     -0.40      0.17
   -5    5   10      3.10     -0.07
    0    5   10     -0.09     -0.06
   -1    6   10     -1.49     -0.14
   -2    7   10      1.20     -2.41
   -3    8   10     -1.46      0.11
   -4    9   10      1.83     -0.95
   -5   10   10      0.95      0.49
   -6   11   10     -0.32     -0.83
   -6   10   10     -0.71      0.23
   -6    9   10      0.71      1.00
   -6    8   10      0.01     -1.42
   -6    7   10     -1.97     -0.76
   -6    6   10     -0.29     -0.07
    0    6   10     -0.70      1.54
   -1    7   10      1.85     -0.24
   -2    8   10      0.06      1.51
   -3    9   10     -0.22     -1.40
   -4   10   10     -0.50      1.22
   -5   11   10      0.28      0.54
   -6   12   10     -0.40     -0.07
   -7   13   10     -0.25     -0.41
   -7   12   10     -1.72     -0.25
   -7   11   10      0.48     -0.50
   -7   10   10     -0.45      0.50
   -7    9   10      1.36      1.24
   -7    8   10      1.30      0.28
   -7    7   10      0.90      0.08
    0    7   10      1.12     -1.70
   -1    8   10     -1.13      0.71
   -2    9   10      0.09     -2.18
   -3   10   10     -0.77      0.43
   -4   11   10     -0.23      0.39
   -5   12   10      0.69      0.17
   -6   13   10      0.14     -0.18
   -7   14   10      0.99     -0.81
   -8   14   10      0.83     -0.11
   -8   13   10     -0.20     -0.85
   -8   12   10      0.35     -0.50
   -8   11   10      1.53      0.92
   -8   10   10     -2.48     -0.60
   -8    9   10     -0.31     -0.63
   -8    8   10     -0.30     -0.07
    0    8   10     -1.51      2.62
   -1    9   10     -0.26     -0.03
   -2   10   10     -0.11      1.53
   -3   11   10     -0.70     -0.01
   -4   12   10      0.35      0.05
   -5   13   10     -1.92     -0.26
   -6   14   10     -0.07     -0.16
   -9   14   10      0.41      1.14
   -9   13   10      0.31     -3.07
   -9   12   10      0.01      1.58
   -9   11   10     -0.13     -1.03
   -9   10   10     -0.78     -2.61
   -9    9   10     -0.64     -0.19
    0    9   10      0.78     -1.23
   -1   10   10      0.80     -0.06
   -2   11   10     -0.42     -0.22
   -3   12   10      0.91      0.08
   -4   13   10     -0.20      1.50
   -5   14   10      0.59      1.01
  -10   14   10      1.55     -1.64
  -10   13   10     -1.00     -0.53
  -10   12   10     -3.05      2.35
  -10   11   10      1.94     -0.86
  -10   10   10      0.02      0.03
    0   10   10      0.54     -0.87
   -1   11   10     -0.79     -0.87
   -2   12   10      0.33     -0.48
   -3   13   10     -1.02     -0.45
   -4   14   10      0.30      0.56
  -11   13   10     -2.45      0.02
  -11   12   10      0.34      3.01
  -11   11   10      3.66      0.60
    0   11   10     -0.19      0.29
   -1   12   10      0.16      1.05
   -2   13   10      0.62      0.55
  -12   13   10     -0.43     -1.62
  -12   12   10      0.07      0.04
    0   12   10     -0.06     -0.24
   -1   13   10     -2.15     -0.42
   -1    1   11     -1.63      0.20
    0    1   11      1.74      3.35
   -1    2   11     -1.77     -0.82
   -2    3   11      0.60     -0.01
   -2    2   11     -1.36     -0.06
    0    2   11     -0.07     -0.21
   -1    3   11     -1.49     -0.52
   -2    4   11     -2.48      2.81
   -3    5   11     -1.73     -3.35
   -3    4   11      2.12      0.39
   -3    3   11      2.35     -0.17
    0    3   11      2.77      4.51
   -1    4   11     -0.21      2.38
   -2    5   11      0.10     -0.18
   -3    6   11      2.54      0.17
   -4    7   11     -1.23     -0.04
   -4    6   11      0.27     -0.40
   -4    5   11     -0.39     -1.79
   -4    4   11     -1.28      0.15
    0    4   11     -0.27     -0.36
   -1    5   11      0.61     -4.25
   -2    6   11      2.98      1.56
   -3    7   11     -1.71     -1.14
   -4    8   11      0.30     -0.32
   -5    9   11     -1.48     -0.24
   -5    8   11     -0.68      1.65
   -5    7   11     -1.21      1.30
   -5    6   11      2.30      1.75
   -5    5   11     -3.42      0.15
    0    5   11     -2.27     -2.96
   -1    6   11      0.44      1.96
   -2    7   11     -2.40     -0.05
   -3    8   11      1.59      1.36
   -4    9   11     -0.42     -0.40
   -5   10   11      0.55      0.51
   -6   11   11      0.14      0.36
   -6   10   11      0.50     -0.12
   -6    9   11      0.38     -0.89
   -6    8   11     -0.95     -0.75
   -6    7   11      1.05      0.20
   -6    6   11      0.62     -0.06
    0    6   11      1.56      2.57
   -1    7   11     -1.17     -0.84
   -2    8   11      2.43     -1.14
   -3    9   11     -0.53     -0.32
   -4   10   11      0.04     -2.81
   -5   11   11     -0.85      0.41
   -6   12   11      0.41     -0.11
   -7   13   11     -0.75      0.79
   -7   12   11     -0.04     -0.01
   -7   11   11     -0.16     -1.21
   -7   10   11      1.41      2.22
   -7    9   11     -0.05     -1.17
   -7    8   11     -0.20      0.79
   -7    7   11     -2.27     -0.07
    0    7   11     -1.55     -2.77
   -1    8   11      0.31     -0.27
   -2    9   11     -1.19      0.23
   -3   10   11      0.31     -0.38
   -4   11   11     -0.45      0.47
   -5   12   11      0.60      0.34
   -6   13   11      0.33      1.03
   -7   14   11     -1.35      0.44
   -8   14   11      0.23     -0.71
   -8   13   11     -0.68      0.90
   -8   12   11      1.19     -0.28
   -8   11   11      0.52      0.92
   -8   10   11     -0.27      0.94
   -8    9   11      2.22     -0.95
   -8    8   11      0.62      0.08
    0    8   11      0.48      0.99
   -1    9   11     -0.96      1.96
   -2   10   11      0.13     -0.64
   -3   11   11     -0.38      0.61
   -4   12   11     -0.34     -1.23
   -5   13   11      0.50      0.35
   -6   14   11     -0.59     -0.40
   -9   14   11     -1.13     -1.47
   -9   13   11     -0.36     -0.06
   -9   12   11      1.94      1.41
   -9   11   11     -2.84     -1.42
   -9   10   11     -0.15      0.04
   -9    9   11      1.10      0.62
    0    9   11      0.27      0.83
   -1   10   11      1.28      0.12
   -2   11   11      0.17      0.23
   -3   12   11     -0.54     -0.62
   -4   13   11     -0.24      0.07
   -5   14   11     -1.38      1.32
  -10   14   11      0.31     -1.78
  -10   13   11      0.58      1.84
  -10   12   11      1.94     -1.51
  -10   11   11     -0.15     -3.22
  -10   10   11     -0.39     -0.19
    0   10   11     -0.36     -0.51
   -1   11   11      0.76     -0.37
   -2   12   11     -0.73     -0.43
   -3   13   11      1.31     -0.25
   -4   14   11      0.31     -0.83
  -11   13   11     -1.73      1.00
  -11   12   11      1.20     -1.01
  -11   11   11     -2.07     -0.28
    0   11   11     -0.16     -0.21
   -1   12   11      0.04      0.00
   -2   13   11     -0.45      0.98
  -12   12   11      0.99      0.39
    0   12   11      0.44      0.83
    0    0   12     -5.30     -0.11
   -1    1   12      0.38     -0.10
    0    1   12      1.72     -0.07
   -1    2   12      1.96     -0.38
   -2    3   12      0.15     -2.09
   -2    2   12     -1.81      0.15
    0    2   12     -3.57     -0.37
   -1    3   12     -0.97      0.63
   -2    4   12     -4.40     -1.35
   -3    5   12     -1.85     -0.07
   -3    4   12      1.67     -1.66
   -3    3   12     -0.82      0.04
    0    3   12      2.32     -0.24
   -1    4   12      4.09      4.57
   -2    5   12      0.19      2.74
   -3    6   12      0.08      0.11
   -4    7   12      1.52      0.30
   -4    6   12     -1.11     -1.97
   -4    5   12      3.07      2.43
   -4    4   12     -0.26     -0.14
    0    4   12      0.99     -0.30
   -1    5   12      0.09     -1.22
   -2    6   12     -1.04     -2.38
   -3    7   12     -0.80     -0.11
   -4    8   12     -0.02     -0.37
   -5    9   12      0.14      0.11
   -5    8   12      0.95     -0.16
   -5    7   12     -0.17     -1.24
   -5    6   12      0.65      0.67
   -5    5   12     -0.89      0.04
    0    5   12     -2.64      0.01
   -1    6   12      0.37     -0.10
   -2    7   12      1.28      2.11
   -3    8   12     -0.49      0.55
   -4    9   12      1.78      1.69
   -5   10   12     -0.51     -0.39
   -6   11   12     -0.93      0.47
   -6   10   12     -0.11     -0.74
   -6    9   12     -1.08      1.00
   -6    8   12      0.16     -0.40
   -6    7   12      0.85      0.21
   -6    6   12     -2.16      0.15
    0    6   12      1.60      0.28
   -1    7   12      0.48      0.16
   -2    8   12      0.02     -0.87
   -3    9   12      0.44     -0.49
   -4   10   12      0.24     -0.39
   -5   11   12     -0.83     -1.24
   -6   12   12      0.24      0.44
   -7   13   12     -0.19     -1.11
   -7   12   12     -0.83     -0.93
   -7   11   12      0.35     -1.67
   -7   10   12     -0.10     -0.55
   -7    9   12     -2.64     -0.23
   -7    8   12      0.66      0.55
   -7    7   12     -1.56      0.04
    0    7   12     -0.84     -0.11
   -1    8   12     -2.24     -1.37
   -2    9   12     -0.55      0.02
   -3   10   12     -0.59      0.66
   -4   11   12      0.31     -0.45
   -5   12   12     -0.69      0.72
   -6   13   12      0.68      0.47
   -7   14   12      0.14     -0.04
   -8   14   12     -0.92      0.95
   -8   13   12     -0.53      0.28
   -8   12   12      1.12     -1.01
   -8   11   12      0.19      1.93
   -8   10   12     -0.15     -0.46
   -8    9   12     -0.11      0.03
   -8    8   12     -0.45     -0.05
    0    8   12      1.13      0.02
   -1    9   12     -0.83     -0.60
   -2   10   12      0.14      0.72
   -3   11   12      0.51     -0.85
   -4   12   12      0.77     -0.65
   -5   13   12     -0.79     -1.19
   -6   14   12      0.59      0.65
   -9   14   12     -0.40      0.39
   -9   13   12      0.86      0.00
   -9   12   12     -0.67      0.58
   -9   11   12     -1.77      0.49
   -9   10   12      2.22     -0.96
   -9    9   12      0.55      0.11
    0    9   12      1.20      0.06
   -1   10   12     -0.28      1.53
   -2   11   12      0.26      0.63
   -3   12   12      0.14      1.39
   -4   13   12     -0.15     -1.23
   -5   14   12     -0.71     -1.25
  -10   13   12      0.92      1.47
  -10   12   12     -0.92     -0.71
  -10   11   12     -0.24      2.26
  -10   10   12      2.53      1.22
    0   10   12      1.40     -0.31
   -1   11   12     -0.44     -0.56
   -2   12   12      0.21      0.60
   -3   13   12     -1.10      1.43
  -11   13   12      2.73     -1.52
  -11   12   12      0.39     -1.82
  -11   11   12     -0.51     -0.11
    0   11   12     -1.15     -0.17
   -1   12   12     -0.26     -0.20
   -2   13   12      0.23     -0.35
  -12   12   12     -2.55     -0.42
    0   12   12     -0.87     -0.16
   -1    1   13     -3.48      0.02
    0    1   13      0.32     -0.11
   -1    2   13      1.22      1.50
   -2    3   13      2.81     -3.93
   -2    2   13      1.64     -0.10
    0    2   13     -0.03      0.47
   -1    3   13     -3.20      0.65
   -2    4   13     -1.85      0.60
   -3    5   13     -2.45     -1.55
   -3    4   13      0.14     -0.33
   -3    3   13      0.15      0.03
    0    3   13      0.62     -1.35
   -1    4   13      1.62      3.76
   -2    5   13      1.23     -1.52
   -3    6   13     -0.33      0.91
   -4    7   13     -0.27     -0.64
   -4    6   13      2.44      0.87
   -4    5   13      1.18     -1.67
   -4    4   13     -1.68      0.14
    0    4   13      0.99     -1.39
   -1    5   13     -0.79     -0.57
   -2    6   13      0.74      0.49
   -3    7   13     -3.32      0.24
   -4    8   13     -0.49      0.04
   -5    9   13      0.82      0.15
   -5    8   13     -0.08     -0.98
   -5    7   13     -0.30      0.01
   -5    6   13      0.51      1.15
   -5    5   13     -1.61     -0.17
    0    5   13      0.15     -0.74
   -1    6   13      1.37      1.36
   -2    7   13      0.87      0.70
   -3    8   13      0.56     -0.20
   -4    9   13      0.17      0.56
   -5   10   13      1.21     -0.45
   -6   11   13     -1.45     -0.11
   -6   10   13      0.07      0.04
   -6    9   13      0.26      0.85
   -6    8   13      0.39     -0.46
   -6    7   13     -0.48      1.02
   -6    6   13     -0.02     -0.06
    0    6   13      1.37     -1.82
   -1    7   13     -0.02     -0.87
   -2    8   13      1.14     -1.32
   -3    9   13     -0.30     -0.46
   -4   10   13      0.14      0.85
   -5   11   13      0.45      0.88
   -6   12   13     -0.84      1.60
   -7   13   13      0.15      0.64
   -7   12   13     -0.76     -0.73
   -7   11   13      1.33     -0.67
   -7   10   13     -0.18      1.44
   -7    9   13      1.69     -0.24
   -7    8   13      0.89     -0.75
   -7    7   13      1.00      0.17
    0    7   13     -0.64      1.35
   -1    8   13      0.05      0.18
   -2    9   13     -0.45     -0.20
   -3   10   13      0.30     -0.71
   -4   11   13     -0.18      1.19
   -5   12   13      0.08     -1.30
   -6   13   13     -0.53      1.17
   -7   14   13      0.58     -0.19
   -8   14   13     -0.32     -0.66
   -8   13   13     -1.30     -1.46
   -8   12   13      1.52     -1.18
   -8   11   13     -0.44      0.58
   -8   10   13     -1.82     -1.16
   -8    9   13     -0.13      0.05
   -8    8   13     -0.42      0.22
    0    8   13     -0.83      1.30
   -1    9   13     -0.38      0.35
   -2   10   13     -0.93     -0.48
   -3   11   13     -0.35      0.90
   -4   12   13      1.19     -0.22
   -5   13   13      1.26      0.04
   -6   14   13     -0.63     -0.59
   -9   13   13      0.94     -0.76
   -9   12   13     -0.63      0.43
   -9   11   13      0.69     -1.70
   -9   10   13     -0.10     -1.84
   -9    9   13     -0.95     -0.09
    0    9   13     -0.27      1.02
   -1   10   13      0.11     -0.62
   -2   11   13     -1.20      0.51
   -3   12   13     -0.55     -1.45
   -4   13   13     -0.03      1.65
  -10   13   13     -2.23      0.04
  -10   12   13     -1.46      0.29
  -10   11   13      1.40      0.76
  -10   10   13     -1.10     -0.17
    0   10   13      0.64     -0.96
   -1   11   13      0.56     -0.27
   -2   12   13     -0.05     -0.56
   -3   13   13     -0.85      1.38
  -11   13   13     -0.46      0.40
  -11   12   13      0.22      4.29
  -11   11   13      1.40      0.80
    0   11   13      0.13      0.11
   -1   12   13      0.02     -0.55
   -2   13   13      1.02      0.65
  -12   12   13      0.56     -0.06
    0   12   13     -0.27      0.60
   -1    1   14     -2.93      0.06
    0    1   14      2.33      4.35
   -1    2   14     -0.85     -1.76
   -2    3   14      0.67      1.11
   -2    2   14     -0.05      0.10
    0    2   14      0.22      0.21
   -1    3   14     -3.67     -1.82
   -2    4   14     -0.21      1.72
   -3    5   14     -0.55     -1.27
   -3    4   14      1.80     -2.56
   -3    3   14      3.67     -0.14
    0    3   14      0.58      1.39
   -1    4   14      0.08     -0.21
   -2    5   14     -0.45      2.51
   -3    6   14      0.11     -4.17
   -4    7   14     -0.83     -0.83
   -4    6   14      1.25      0.25
   -4    5   14     -1.73      0.69
   -4    4   14      1.03     -0.01
    0    4   14      1.10      1.93
   -1    5   14     -2.15      0.78
   -2    6   14      0.05      1.73
   -3    7   14     -0.27      1.24
   -4    8   14     -1.33      0.70
   -5    9   14      0.39      0.88
   -5    8   14     -0.05     -0.94
   -5    7   14      1.75      1.60
   -5    6   14      0.05      0.64
   -5    5   14     -0.73      0.28
    0    5   14      0.14      0.58
   -1    6   14      0.75     -2.03
   -2    7   14      1.02      1.43
   -3    8   14      0.40     -0.19
   -4    9   14     -0.43     -1.01
   -5   10   14     -1.04      0.27
   -6   11   14     -1.29     -1.74
   -6   10   14      0.93     -0.16
   -6    9   14     -0.95     -1.38
   -6    8   14     -0.25     -0.17
   -6    7   14     -1.52     -0.74
   -6    6   14      0.92     -0.08
    0    6   14     -0.15      0.00
   -1    7   14     -0.46     -1.20
   -2    8   14     -0.52      0.59
   -3    9   14      1.19      0.08
   -4   10   14     -0.45     -0.49
   -5   11   14      0.31      0.50
   -6   12   14     -0.54      0.28
   -7   13   14     -0.98      3.44
   -7   12   14     -1.04     -0.92
   -7   11   14      0.27      0.20
   -7   10   14      0.09      1.07
   -7    9   14      0.01     -0.46
   -7    8   14     -0.76      0.54
   -7    7   14     -0.91     -0.03
    0    7   14     -0.45     -0.62
   -1    8   14     -0.54     -0.91
   -2    9   14      0.13     -0.69
   -3   10   14      0.26     -0.36
   -4   11   14      1.04     -0.42
   -5   12   14      1.13      0.65
   -6   13   14      0.75      0.09
   -7   14   14     -0.05      0.93
   -8   13   14      0.66     -0.12
   -8   12   14      2.05     -0.62
   -8   11   14     -0.67      2.23
   -8   10   14      1.27     -0.21
   -8    9   14      1.60     -0.10
   -8    8   14      1.74      0.17
    0    8   14      0.29      0.80
   -1    9   14     -0.17      0.39
   -2   10   14     -1.10     -0.24
   -3   11   14     -0.12      0.59
   -4   12   14     -0.64      0.63
   -5   13   14      0.80      0.06
   -9   13   14      1.34      0.54
   -9   12   14     -0.44     -0.28
   -9   11   14     -0.34     -1.12
   -9   10   14      0.21      0.78
   -9    9   14      0.55      0.48
    0    9   14      0.71      0.96
   -1   10   14      1.00      0.20
   -2   11   14     -0.09     -0.94
   -3   12   14     -0.93     -1.14
   -4   13   14     -0.25     -2.38
  -10   13   14     -0.24      0.60
  -10   12   14      2.84     -2.96
  -10   11   14      0.27     -0.70
  -10   10   14     -1.54     -0.10
    0   10   14      0.73      0.84
   -1   11   14      0.40      0.74
   -2   12   14     -1.37      0.35
   -3   13   14      0.07     -0.08
  -11   13   14     -0.04      0.07
  -11   12   14     -0.07      0.02
  -11   11   14     -3.76     -0.49
    0   11   14     -0.08      0.13
   -1   12   14      1.04     -0.24
   -2   13   14      0.62     -0.67
  -12   12   14     -0.37      0.17
    0   12   14      0.34      0.50
    0    0   15     -6.73      0.14
   -1    1   15      1.88     -0.05
    0    1   15      0.62      0.01
   -1    2   15      3.30      1.58
   -2    3   15     -1.67     -4.10
   -2    2   15     -1.92      0.03
    0    2   15     -1.65     -0.15
   -1    3   15      0.60      0.17
   -2    4   15     -2.90     -1.71
   -3    5   15      0.39      0.84
   -3    4   15      0.30     -0.54
   -3    3   15      0.35      0.17
    0    3   15     -3.09     -0.27
   -1    4   15      1.26      0.30
   -2    5   15     -1.84      0.13
   -3    6   15     -0.51     -1.48
   -4    7   15     -0.41     -0.88
   -4    6   15      1.65      0.04
   -4    5   15      0.60      0.77
   -4    4   15      2.88     -0.17
    0    4   15      1.13      0.11
   -1    5   15      2.00      1.94
   -2    6   15     -0.64      0.17
   -3    7   15     -0.87      1.24
   -4    8   15     -0.62     -0.11
   -5    9   15     -0.16      0.08
   -5    8   15      0.80     -1.16
   -5    7   15      1.10      0.79
   -5    6   15     -1.07     -0.08
   -5    5   15     -0.26      0.02
    0    5   15     -0.62      0.28
   -1    6   15      0.91     -1.89
   -2    7   15      0.56     -0.03
   -3    8   15     -0.01     -0.15
   -4    9   15      0.51      0.46
   -5   10   15      0.07     -0.32
   -6   11   15     -0.54      0.53
   -6   10   15      0.43     -0.06
   -6    9   15     -0.32      0.36
   -6    8   15      0.75      0.50
   -6    7   15     -0.28      0.76
   -6    6   15      0.33      0.36
    0    6   15     -0.32     -0.01
   -1    7   15      0.86      1.61
   -2    8   15     -0.47      0.07
   -3    9   15     -0.21      1.50
   -4   10   15      0.45      0.90
   -5   11   15     -1.67      0.97
   -6   12   15     -0.60      0.60
   -7   13   15     -1.13     -1.59
   -7   12   15     -2.34     -3.50
   -7   11   15      1.05     -0.87
   -7   10   15     -0.83     -1.69
   -7    9   15     -1.25      0.06
   -7    8   15     -0.55     -0.69
   -7    7   15      0.90      0.13
    0    7   15      0.61      0.06
   -1    8   15     -0.55     -1.47
   -2    9   15      0.23     -1.24
   -3   10   15     -0.40     -1.02
   -4   11   15     -0.19     -0.39
   -5   12   15      0.60      0.63
   -6   13   15      2.43      1.34
   -8   13   15     -0.67     -1.11
   -8   12   15     -0.96      1.21
   -8   11   15      0.27      0.85
   -8   10   15     -0.61     -0.96
   -8    9   15     -0.13      0.72
   -8    8   15     -0.65     -0.10
    0    8   15     -1.44      0.19
   -1    9   15     -0.40      0.92
   -2   10   15      0.49     -0.33
   -3   11   15     -0.17     -0.90
   -4   12   15      1.55     -0.43
   -5   13   15     -0.92     -1.27
   -9   13   15      2.10      0.47
   -9   12   15     -1.42      0.64
   -9   11   15      1.37     -0.36
   -9   10   15      0.78     -0.08
   -9    9   15      1.05      0.03
    0    9   15     -0.30      0.19
   -1   10   15     -0.01      0.35
   -2   11   15      1.08     -0.06
   -3   12   15      0.12      0.14
   -4   13   15      0.03     -0.75
  -10   13   15     -0.62     -1.42
  -10   12   15      0.39      0.25
  -10   11   15      0.33      3.04
  -10   10   15     -0.75      0.65
    0   10   15     -0.87     -0.08
   -1   11   15     -0.02      1.28
   -2   12   15      0.15      1.11
   -3   13   15     -1.84      0.81
  -11   12   15      0.30      0.97
  -11   11   15      0.06      0.01
    0   11   15     -0.40     -0.04
   -1   12   15      0.12      0.61
   -1    1   16     -4.19      0.16
    0    1   16      0.44     -0.66
   -1    2   16     -0.09      0.71
   -2    3   16      2.90     -0.57
   -2    2   16      4.04     -0.03
    0    2   16      1.81     -2.72
   -1    3   16     -2.33      0.70
   -2    4   16     -0.51      0.26
   -3    5   16     -0.35     -0.71
   -3    4   16     -0.37     -2.39
   -3    3   16      1.04      0.02
    0    3   16      0.36     -0.70
   -1    4   16     -2.22      1.82
   -2    5   16      0.49      0.26
   -3    6   16     -0.12     -1.13
   -4    7   16      0.91     -0.86
   -4    6   16      0.58     -0.99
   -4    5   16     -0.28     -0.31
   -4    4   16     -1.42      0.18
    0    4   16      0.05     -0.22
   -1    5   16      1.12      0.73
   -2    6   16     -1.14      0.71
   -3    7   16      0.36      0.30
   -4    8   16     -1.94     -0.57
   -5    9   16      0.09     -0.87
   -5    8   16     -0.13     -0.04
   -5    7   16      0.64      1.91
   -5    6   16      0.75      0.71
   -5    5   16     -1.10     -0.11
    0    5   16      1.04     -1.84
   -1    6   16     -0.81      0.28
   -2    7   16      0.58     -1.06
   -3    8   16     -0.57      1.01
   -4    9   16     -0.17      0.16
   -5   10   16      0.86     -0.57
   -6   11   16     -0.16      0.33
   -6   10   16     -1.04     -0.51
   -6    9   16      1.37     -0.26
   -6    8   16     -0.77     -0.63
   -6    7   16     -0.05      0.27
   -6    6   16     -0.67      0.02
    0    6   16     -1.52      1.99
   -1    7   16      1.14     -0.75
   -2    8   16      0.21      0.17
   -3    9   16      0.34     -0.45
   -4   10   16      0.38      0.64
   -5   11   16     -0.42      0.47
   -6   12   16     -4.14      2.35
   -7   13   16     -0.60      1.85
   -7   12   16      1.08      0.38
   -7   11   16      1.57     -0.03
   -7   10   16     -0.14      1.24
   -7    9   16      1.35      0.45
   -7    8   16      0.49     -0.87
   -7    7   16      0.28      0.19
    0    7   16      0.36     -0.93
   -1    8   16      1.27      0.62
   -2    9   16      0.44     -0.60
   -3   10   16      1.30      0.33
   -4   11   16      0.26      1.87
   -5   12   16      0.89     -0.51
   -6   13   16      0.19      1.34
   -8   13   16     -0.75     -3.64
   -8   12   16      0.43     -1.50
   -8   11   16     -0.40     -1.33
   -8   10   16     -0.78      0.28
   -8    9   16      0.21     -0.21
   -8    8   16     -0.05      0.23
    0    8   16     -0.57      1.67
   -1    9   16     -0.93      0.06
   -2   10   16     -0.40      0.27
   -3   11   16     -0.26     -0.19
   -4   12   16      0.18     -1.06
   -5   13   16      3.56     -1.56
   -9   13   16     -1.31      1.29
   -9   12   16     -0.45     -0.48
   -9   11   16      0.89     -0.92
   -9   10   16      0.18      0.17
   -9    9   16     -0.02     -0.16
    0    9   16      0.10     -0.14
   -1   10   16     -1.14     -0.36
   -2   11   16     -1.13      0.03
   -3   12   16     -0.81     -1.38
   -4   13   16      0.21      1.77
  -10   13   16     -1.07     -0.80
  -10   12   16      1.37     -0.11
  -10   11   16     -0.71      0.47
  -10   10   16     -0.92     -0.15
    0   10   16      0.18     -0.07
   -1   11   16     -0.86     -0.41
   -2   12   16     -0.18     -0.27
   -3   13   16      0.14      0.80
  -11   12   16      0.27      3.74
  -11   11   16     -1.60      0.36
    0   11   16      0.26     -0.44
   -1   12   16     -0.72     -0.98
   -1    1   17     -1.79     -0.16
    0    1   17      1.40      2.30
   -1    2   17      0.15     -1.77
   -2    3   17      0.25      0.08
   -2    2   17     -0.93      0.09
    0    2   17      0.07     -0.02
   -1    3   17     -1.79     -2.05
   -2    4   17     -0.87      0.27
   -3    5   17     -0.62     -0.27
   -3    4   17      1.74     -0.79
   -3    3   17      2.28      0.00
    0    3   17     -0.16      0.12
   -1    4   17      0.69     -0.39
   -2    5   17     -0.02      0.73
   -3    6   17      0.22     -0.89
   -4    7   17      0.97     -0.52
   -4    6   17     -0.42     -0.11
   -4    5   17      0.48      1.53
   -4    4   17      0.31      0.02
    0    4   17      1.10      2.11
   -1    5   17     -1.57      0.65
   -2    6   17      0.03      0.04
   -3    7   17     -1.93     -0.76
   -4    8   17     -0.32     -0.55
   -5    9   17     -0.78      0.55
   -5    8   17      1.32      1.25
   -5    7   17      0.87     -0.19
   -5    6   17      0.29      0.50
   -5    5   17     -0.93      0.14
    0    5   17      0.21     -0.20
   -1    6   17      1.12     -0.38
   -2    7   17      0.38      1.36
   -3    8   17      0.35     -0.06
   -4    9   17     -1.23      0.75
   -5   10   17     -0.69      0.17
   -6   11   17     -0.41     -3.14
   -6   10   17      0.12     -0.45
   -6    9   17      0.51     -1.10
   -6    8   17     -1.04      0.51
   -6    7   17      0.60     -0.50
   -6    6   17     -1.91      0.00
    0    6   17     -0.39     -0.74
   -1    7   17     -1.82      1.13
   -2    8   17      0.38     -0.33
   -3    9   17     -0.13      0.06
   -4   10   17     -0.91     -0.85
   -5   11   17      0.68      0.02
   -6   12   17     -1.31     -0.07
   -7   13   17     -3.03      2.52
   -7   12   17     -1.26      0.35
   -7   11   17     -0.34     -0.26
   -7   10   17      0.09     -0.02
   -7    9   17     -0.47     -1.43
   -7    8   17     -0.64      0.29
   -7    7   17     -0.18     -0.02
    0    7   17     -0.50     -0.17
   -1    8   17     -0.63     -0.19
   -2    9   17      0.10      0.66
   -3   10   17      0.53     -0.51
   -4   11   17      2.10      1.30
   -5   12   17      1.36      3.75
   -6   13   17      1.75     -0.35
   -8   13   17      1.18      0.24
   -8   12   17      1.99      0.39
   -8   11   17      0.26      0.42
   -8   10   17      0.40      0.68
   -8    9   17      0.70     -0.33
   -8    8   17      0.07      0.02
    0    8   17     -0.55     -0.85
   -1    9   17      0.56     -0.27
   -2   10   17     -0.35     -1.35
   -3   11   17      1.67     -0.37
   -4   12   17     -1.22      0.05
   -5   13   17     -0.06     -0.66
   -9   13   17     -0.16     -1.00
   -9   12   17     -0.08     -0.78
   -9   11   17      1.40      0.14
   -9   10   17     -0.06      0.94
   -9    9   17      0.91      0.13
    0    9   17      0.40      0.57
   -1   10   17      0.01     -0.43
   -2   11   17     -0.52     -0.15
   -3   12   17     -1.30     -0.18
   -4   13   17     -1.68     -2.82
  -10   12   17      2.33     -1.16
  -10   11   17      0.15      0.46
  -10   10   17     -0.96      0.04
    0   10   17      0.50      1.07
   -1   11   17      0.53      0.67
   -2   12   17     -1.19      0.02
  -11   12   17     -1.30      0.29
  -11   11   17     -3.26     -0.27
    0   11   17      1.14      1.78
   -1   12   17     -0.05      0.65
    0    0   18     -2.24      0.16
   -1    1   18      1.39      0.09
    0    1   18      1.62      0.17
   -1    2   18      1.29     -0.26
   -2    3   18      0.30     -1.56
   -2    2   18     -2.26     -0.20
    0    2   18     -1.09      0.12
   -1    3   18      0.24     -0.58
   -2    4   18     -2.01     -0.61
   -3    5   18      0.66      0.37
   -3    4   18      0.89      0.03
   -3    3   18      0.14      0.13
    0    3   18     -0.61     -0.20
   -1    4   18     -0.38     -0.57
   -2    5   18      0.36      0.20
   -3    6   18      0.63     -0.72
   -4    7   18      0.63     -0.56
   -4    6   18     -0.53     -1.02
   -4    5   18      0.85      0.22
   -4    4   18     -0.46     -0.03
    0    4   18     -1.55      0.14
   -1    5   18      0.82      0.60
   -2    6   18     -1.48     -0.78
   -3    7   18      0.67      0.04
   -4    8   18     -0.48     -1.62
   -5    9   18      0.16     -0.68
   -5    8   18     -0.49      0.00
   -5    7   18     -0.56      0.54
   -5    6   18     -0.37      1.33
   -5    5   18     -1.01     -0.03
    0    5   18      1.26     -0.11
   -1    6   18      0.00     -0.04
   -2    7   18      0.48      0.35
   -3    8   18     -0.62      0.92
   -4    9   18      0.81     -0.67
   -5   10   18     -0.43      0.44
   -6   11   18     -0.19     -0.89
   -6   10   18      0.59      1.08
   -6    9   18     -0.07      0.85
   -6    8   18      1.03      0.91
   -6    7   18      0.85     -0.18
   -6    6   18      0.24      0.15
    0    6   18     -1.31     -0.04
   -1    7   18      0.74     -1.01
   -2    8   18     -0.76      0.41
   -3    9   18      0.10      1.00
   -4   10   18     -1.04      1.34
   -5   11   18     -2.17      1.47
   -6   12   18     -0.30      0.70
   -7   13   18     -0.74     -0.35
   -7   12   18     -2.68     -3.90
   -7   11   18      0.04     -0.47
   -7   10   18     -0.23     -0.75
   -7    9   18     -0.19     -0.05
   -7    8   18     -0.09     -0.06
   -7    7   18      0.02      0.04
    0    7   18      1.08      0.00
   -1    8   18      0.30      0.87
   -2    9   18      0.01     -0.19
   -3   10   18     -0.60      0.12
   -4   11   18     -0.24     -1.09
   -5   12   18      1.43      0.89
   -6   13   18      1.93      1.74
   -8   13   18     -1.21     -0.02
   -8   12   18     -0.32      0.13
   -8   11   18     -0.37     -0.12
   -8   10   18      0.47     -0.81
   -8    9   18     -0.72     -0.35
   -8    8   18      0.35     -0.01
    0    8   18      0.34      0.16
   -1    9   18      0.27     -0.11
   -2   10   18      0.94     -0.81
   -3   11   18     -0.03     -1.57
   -4   12   18      2.74     -0.59
   -5   13   18     -0.59     -0.26
   -9   12   18      0.22     -0.72
   -9   11   18      0.56      0.36
   -9   10   18     -0.24      0.99
   -9    9   18      0.17     -0.07
    0    9   18     -1.77     -0.02
   -1   10   18     -0.07     -0.13
   -2   11   18     -0.01     -0.97
   -3   12   18      0.94     -0.13
  -10   12   18      1.74      0.31
  -10   11   18     -0.01      2.21
  -10   10   18     -0.25     -0.02
    0   10   18     -1.32      0.03
   -1   11   18     -0.34      0.87
   -2   12   18      0.37      1.26
  -11   11   18     -1.01      0.17
    0   11   18     -0.41     -0.07
   -1    1   19     -1.39      0.12
    0    1   19      0.58     -1.52
   -1    2   19      1.28      1.29
   -2    3   19      0.79     -0.43
   -2    2   19      1.83      0.14
    0    2   19      0.44     -0.42
   -1    3   19     -1.46     -0.63
   -2    4   19     -0.11     -0.43
   -3    5   19      0.67      0.00
   -3    4   19      0.30     -0.07
   -3    3   19     -0.16     -0.17
    0    3   19     -0.16      0.33
   -1    4   19      0.20      0.67
   -2    5   19     -0.29      0.66
   -3    6   19      0.11      0.65
   -4    7   19      0.68     -0.64
   -4    6   19      1.12      0.32
   -4    5   19      0.25     -0.91
   -4    4   19     -1.41      0.19
    0    4   19      0.14     -0.09
   -1    5   19     -0.60     -0.30
   -2    6   19     -0.70     -0.71
   -3    7   19      0.41     -0.05
   -4    8   19      0.49      1.13
   -5    9   19      0.36     -0.73
   -5    8   19     -0.05     -0.70
   -5    7   19     -0.69     -0.05
   -5    6   19     -0.18      0.97
   -5    5   19     -0.33     -0.08
    0    5   19      0.00      0.16
   -1    6   19     -0.85     -0.01
   -2    7   19     -0.71     -0.81
   -3    8   19     -1.11     -0.38
   -4    9   19     -0.58     -0.58
   -5   10   19      0.39     -1.75
   -6   11   19     -0.31     -0.34
   -6   10   19      0.28      0.57
   -6    9   19     -0.53     -1.33
   -6    8   19      0.29      0.51
   -6    7   19     -1.19     -0.24
   -6    6   19      0.92      0.00
    0    6   19     -0.71      0.54
   -1    7   19     -0.26      0.64
   -2    8   19      0.30     -0.67
   -3    9   19      0.37      0.64
   -4   10   19      0.42      1.09
   -5   11   19     -1.37      0.90
   -6   12   19     -2.96      3.49
   -7   12   19      0.52     -0.11
   -7   11   19      1.77      0.00
   -7   10   19     -0.33      0.25
   -7    9   19      1.01      0.35
   -7    8   19     -0.36     -1.17
   -7    7   19      0.72      0.06
    0    7   19     -0.52      0.88
   -1    8   19      0.43     -0.27
   -2    9   19      1.26      0.43
   -3   10   19      0.97      0.08
   -4   11   19      0.55      0.82
   -5   12   19      0.61     -0.62
   -8   12   19     -0.22     -1.00
   -8   11   19     -0.04     -0.92
   -8   10   19      0.81      1.22
   -8    9   19     -0.45     -0.15
   -8    8   19      0.55      0.01
    0    8   19      0.28     -0.72
   -1    9   19      0.62      0.89
   -2   10   19      0.00      0.40
   -3   11   19     -0.28      0.67
   -4   12   19     -0.77     -0.19
   -9   12   19     -0.55     -0.35
   -9   11   19      0.67      0.37
   -9   10   19     -0.44      0.15
   -9    9   19      1.13      0.01
    0    9   19     -0.17      0.08
   -1   10   19     -1.67     -0.87
   -2   11   19      0.17     -0.74
   -3   12   19     -0.52     -1.17
  -10   12   19      1.87      0.62
  -10   11   19     -0.87      1.19
  -10   10   19     -0.26     -0.11
    0   10   19     -0.40      0.64
   -1   11   19     -1.66     -0.22
   -2   12   19     -1.23     -0.40
  -11   11   19     -1.85     -0.13
    0   11   19     -0.05      0.16
   -1    1   20     -1.09     -0.30
    0    1   20      0.58      0.31
   -1    2   20      0.69     -1.62
   -2    3   20      0.37      0.31
   -2    2   20     -0.44      0.06
    0    2   20     -0.76     -1.59
   -1    3   20     -0.26     -0.08
   -2    4   20     -0.31     -1.52
   -3    5   20     -0.73      0.60
   -3    4   20     -0.32      0.97
   -3    3   20     -0.13      0.03
    0    3   20      0.33      0.49
   -1    4   20     -0.44      0.47
   -2    5   20      1.53     -1.21
   -3    6   20     -1.89     -0.63
   -4    7   20      0.52      0.16
   -4    6   20      1.50      0.51
   -4    5   20     -0.22      1.19
   -4    4   20      2.02     -0.05
    0    4   20     -0.43     -0.90
   -1    5   20      1.54      0.04
   -2    6   20      0.46     -0.48
   -3    7   20     -0.59     -0.96
   -4    8   20     -0.30      1.59
   -5    9   20     -0.55      1.71
   -5    8   20      0.30      0.13
   -5    7   20      1.49      0.89
   -5    6   20     -0.63     -2.31
   -5    5   20     -1.53      0.06
    0    5   20     -0.06     -0.86
   -1    6   20     -1.24      1.08
   -2    7   20      0.88     -1.05
   -3    8   20     -0.14     -0.87
   -4    9   20     -0.77     -0.96
   -5   10   20      0.25     -0.22
   -6   11   20     -0.27     -3.13
   -6   10   20     -0.02     -0.03
   -6    9   20      0.00     -0.86
   -6    8   20     -0.21      0.88
   -6    7   20     -0.79      0.50
   -6    6   20      0.92      0.02
    0    6   20      0.02     -0.04
   -1    7   20     -0.74      1.43
   -2    8   20     -0.37      1.68
   -3    9   20     -0.57     -0.81
   -4   10   20     -0.76      0.68
   -5   11   20     -0.03      0.71
   -6   12   20     -0.97      0.18
   -7   12   20     -0.97     -0.41
   -7   11   20     -0.30     -0.23
   -7   10   20      0.25     -1.49
   -7    9   20      0.13      0.02
   -7    8   20     -0.62     -0.65
   -7    7   20      1.79      0.03
    0    7   20     -0.26     -0.41
   -1    8   20     -1.31      1.06
   -2    9   20     -0.21     -0.84
   -3   10   20      1.20     -0.51
   -4   11   20      1.13     -0.16
   -5   12   20      1.46      3.16
   -8   12   20      1.45      0.19
   -8   11   20      1.26     -0.19
   -8   10   20     -0.20      0.41
   -8    9   20     -1.35     -0.93
   -8    8   20      1.00     -0.12
    0    8   20      0.13     -0.26
   -1    9   20     -0.05     -0.45
   -2   10   20      0.29      0.90
   -3   11   20      1.26     -0.36
   -4   12   20     -1.51      1.00
   -9   12   20      1.59     -1.45
   -9   11   20      1.24      1.33
   -9   10   20     -0.39     -0.49
   -9    9   20      0.55     -0.07
    0    9   20     -0.50     -0.96
   -1   10   20     -0.12     -0.67
   -2   11   20      0.36     -0.77
   -3   12   20      0.74      0.10
  -10   11   20     -1.08      0.61
  -10   10   20      0.58      0.11
    0   10   20      0.40      0.46
   -1   11   20     -0.79      0.18
    0    0   21      1.85      0.42
   -1    1   21      0.85      0.10
    0    1   21      1.15      0.67
   -1    2   21     -0.27     -1.07
   -2    3   21      0.71     -0.02
   -2    2   21     -0.54     -0.33
    0    2   21     -0.57      0.06
   -1    3   21     -0.29     -1.64
   -2    4   21      1.08      1.71
   -3    5   21      1.40     -0.60
   -3    4   21     -0.08     -0.23
   -3    3   21     -0.14      0.02
    0    3   21      0.67      0.63
   -1    4   21     -1.25      0.17
   -2    5   21      0.21      0.22
   -3    6   21      1.68     -1.93
   -4    7   21     -1.41     -2.30
   -4    6   21     -1.54      0.73
   -4    5   21     -0.89      0.96
   -4    4   21     -0.80      0.07
    0    4   21      0.61     -0.11
   -1    5   21     -1.46     -1.19
   -2    6   21      0.65      1.72
   -3    7   21      0.47     -0.08
   -4    8   21      0.31     -0.06
   -5    9   21     -1.10      0.00
   -5    8   21      0.31      0.04
   -5    7   21      0.21      0.09
   -5    6   21     -0.76      0.52
   -5    5   21      1.82      0.02
    0    5   21     -0.16      0.04
   -1    6   21     -0.80     -1.28
   -2    7   21     -0.59      0.59
   -3    8   21      2.31     -0.12
   -4    9   21      0.51     -0.42
   -5   10   21      0.76     -0.18
   -6   11   21     -0.35      0.05
   -6   10   21      0.05      0.97
   -6    9   21     -0.38      0.14
   -6    8   21      0.05      0.97
   -6    7   21      0.37     -1.23
   -6    6   21     -0.48     -0.07
    0    6   21      0.43     -0.08
   -1    7   21     -0.81     -1.06
   -2    8   21     -0.31      0.39
   -3    9   21     -1.06      0.73
   -4   10   21     -0.32     -0.43
   -5   11   21     -2.26      0.50
   -6   12   21     -0.71      0.42
   -7   12   21     -0.58     -2.23
   -7   11   21     -1.02     -0.68
   -7   10   21      1.10      1.21
   -7    9   21      0.45      0.11
   -7    8   21     -0.04      0.16
   -7    7   21      0.74      0.05
    0    7   21      1.01      0.21
   -1    8   21      0.51     -0.40
   -2    9   21     -0.90      0.74
   -3   10   21     -0.71      0.19
   -4   11   21      0.43     -0.59
   -5   12   21      1.00      0.27
   -8   12   21     -0.64     -2.06
   -8   11   21      0.34     -0.73
   -8   10   21     -0.51      0.74
   -8    9   21      0.42     -1.12
   -8    8   21     -0.20      0.06
    0    8   21      1.00     -0.05
   -1    9   21      0.89      0.58
   -2   10   21     -0.38     -0.23
   -3   11   21     -0.42      0.22
   -4   12   21      2.77     -1.33
   -9   11   21     -0.72      1.38
   -9   10   21     -0.96      0.06
   -9    9   21      1.06     -0.12
    0    9   21      0.61      0.02
   -1   10   21      0.32     -1.23
   -2   11   21     -0.26     -1.34
  -10   11   21     -0.29      0.22
  -10   10   21      0.50     -0.15
    0   10   21     -1.92      0.67
   -1   11   21     -0.72      0.11
   -1    1   22      2.44      0.15
    0    1   22      0.51     -0.80
   -1    2   22      0.77      0.28
   -2    3   22     -0.93      0.16
   -2    2   22      0.48      0.08
    0    2   22     -1.28      0.91
   -1    3   22     -0.05     -0.42
   -2    4   22      0.28     -0.33
   -3    5   22      1.87      1.49
   -3    4   22      0.04     -0.33
   -3    3   22     -0.54     -0.22
    0    3   22     -0.38      1.01
   -1    4   22      0.83     -1.21
   -2    5   22     -0.55      0.02
   -3    6   22      0.90      0.97
   -4    7   22      0.19      0.06
   -4    6   22      1.05      0.30
   -4    5   22      0.53     -0.16
   -4    4   22     -0.94      0.08
    0    4   22     -0.03      0.49
   -1    5   22     -0.36     -0.70
   -2    6   22     -2.15     -0.55
   -3    7   22     -0.53      1.60
   -4    8   22      0.37     -0.27
   -5    9   22      0.24      0.81
   -5    8   22      0.23     -0.74
   -5    7   22     -1.96     -0.70
   -5    6   22      0.16      0.36
   -5    5   22     -0.05      0.08
    0    5   22     -0.27      0.25
   -1    6   22      0.12     -0.64
   -2    7   22     -0.54     -0.89
   -3    8   22      0.92      0.19
   -4    9   22      0.75      0.65
   -5   10   22     -0.42     -0.11
   -6   11   22      0.70      0.00
   -6   10   22      0.16     -1.66
   -6    9   22     -0.21      0.41
   -6    8   22     -0.24     -1.30
   -6    7   22      0.13      0.18
   -6    6   22     -0.05     -0.01
    0    6   22     -0.80      1.28
   -1    7   22     -0.34     -0.09
   -2    8   22     -0.69     -1.45
   -3    9   22      0.75     -0.38
   -4   10   22     -0.67     -0.57
   -5   11   22     -0.17     -0.09
   -6   12   22     -1.12      0.80
   -7   12   22     -1.27      0.20
   -7   11   22      1.07     -0.19
   -7   10   22      0.51     -0.38
   -7    9   22     -1.58     -0.15
   -7    8   22      1.34      0.76
   -7    7   22     -0.60     -0.05
    0    7   22     -0.64      1.11
   -1    8   22     -0.36      0.14
   -2    9   22      0.07      0.08
   -3   10   22      0.00      0.58
   -4   11   22     -0.77      0.54
   -5   12   22      0.01      0.50
   -8   11   22      1.73      1.76
   -8   10   22      0.34     -0.25
   -8    9   22     -0.01     -0.71
   -8    8   22     -0.11     -0.08
    0    8   22     -0.39      0.69
   -1    9   22      0.79      0.28
   -2   10   22      1.34      0.86
   -3   11   22     -0.53      0.30
   -9   11   22     -0.49      2.20
   -9   10   22      0.14     -0.58
   -9    9   22     -0.76      0.18
    0    9   22     -0.19     -0.57
   -1   10   22      0.29     -0.30
   -2   11   22      0.12     -1.10
  -10   10   22      0.97     -0.08
    0   10   22     -0.63      1.11
   -1    1   23      0.97     -0.29
    0    1   23     -0.47     -1.43
   -1    2   23      0.31     -1.14
   -2    3   23     -0.23      0.24
   -2    2   23     -0.24     -0.03
    0    2   23     -0.62     -0.78
   -1    3   23      0.44      0.33
   -2    4   23     -0.68     -0.05
   -3    5   23     -0.50      0.22
   -3    4   23     -0.09      1.96
   -3    3   23      0.54      0.10
    0    3   23     -0.33     -0.11
   -1    4   23      1.03     -0.55
   -2    5   23      0.44     -1.91
   -3    6   23     -0.35     -0.37
   -4    7   23      0.30      2.08
   -4    6   23      0.40     -0.73
   -4    5   23     -0.09     -0.33
   -4    4   23     -1.00     -0.12
    0    4   23     -0.14     -0.66
   -1    5   23      1.07      0.20
   -2    6   23      0.06     -1.79
   -3    7   23     -0.83      0.09
   -4    8   23     -0.40      0.78
   -5    9   23      0.07     -0.54
   -5    8   23     -1.26      1.13
   -5    7   23      0.95     -0.35
   -5    6   23      1.25     -0.44
   -5    5   23     -1.01      0.06
    0    5   23      0.18      0.33
   -1    6   23      0.08      0.78
   -2    7   23      0.84     -0.54
   -3    8   23     -0.39     -0.30
   -4    9   23      1.22      0.10
   -5   10   23     -0.18      0.70
   -6   11   23     -1.22     -0.56
   -6   10   23      0.18      0.40
   -6    9   23      0.46      0.46
   -6    8   23     -0.98     -1.02
   -6    7   23      0.93      0.32
   -6    6   23     -1.40     -0.03
    0    6   23     -0.53     -0.72
   -1    7   23     -0.26      1.09
   -2    8   23      0.28     -1.27
   -3    9   23     -0.61     -0.93
   -4   10   23      1.84     -0.08
   -5   11   23     -0.81      0.36
   -7   11   23      0.37     -1.94
   -7   10   23     -0.27      0.64
   -7    9   23     -0.17     -0.52
   -7    8   23      0.59      0.56
   -7    7   23     -0.47      0.08
    0    7   23      0.19      0.08
   -1    8   23     -1.15      1.76
   -2    9   23     -0.86     -0.37
   -3   10   23     -0.35     -0.16
   -4   11   23     -0.20     -0.18
   -8   11   23      2.10     -0.55
   -8   10   23     -1.07      0.09
   -8    9   23      0.56      0.23
   -8    8   23      0.21     -0.08
    0    8   23     -0.11     -0.22
   -1    9   23     -0.37      0.88
   -2   10   23      0.94      0.07
   -3   11   23      0.69      0.90
   -9   11   23      0.23     -0.04
   -9   10   23     -1.11     -1.79
   -9    9   23      0.29     -0.11
    0    9   23     -0.75     -1.35
   -1   10   23     -0.76      0.02
   -2   11   23      0.43     -0.51
  -10   10   23     -0.48      0.19
    0   10   23      0.01      0.15
    0    0   24      1.01      0.24
   -1    1   24      1.25      0.18
    0    1   24     -0.26     -0.44
   -1    2   24      0.24     -0.17
   -2    3   24      0.11     -0.52
   -2    2   24      0.78     -0.25
    0    2   24     -0.86      0.02
   -1    3   24      0.08      0.12
   -2    4   24      1.06     -0.36
   -3    5   24      0.55      0.37
   -3    4   24     -0.15      0.83
   -3    3   24     -1.56      0.00
    0    3   24      0.24      0.27
   -1    4   24     -0.55      0.17
   -2    5   24      1.83      0.11
   -3    6   24     -0.50     -0.22
   -4    7   24     -0.96     -1.93
   -4    6   24     -1.54     -1.02
   -4    5   24      0.47      1.08
   -4    4   24     -0.24      0.10
    0    4   24     -1.50     -0.13
   -1    5   24     -0.95     -0.87
   -2    6   24      0.58      0.80
   -3    7   24      1.35     -0.65
   -4    8   24      0.22      1.12
   -5    9   24     -0.70      0.16
   -5    8   24     -0.57      1.17
   -5    7   24     -0.25     -1.27
   -5    6   24     -0.12      1.50
   -5    5   24     -0.34     -0.02
    0    5   24     -0.01     -0.24
   -1    6   24     -1.16      0.26
   -2    7   24      0.32      0.98
   -3    8   24      1.32      0.21
   -4    9   24     -0.14      0.22
   -5   10   24      0.28     -0.62
   -6   11   24     -0.43      0.70
   -6   10   24      0.25     -0.25
   -6    9   24     -0.86     -0.17
   -6    8   24      1.17     -0.13
   -6    7   24      0.60     -0.74
   -6    6   24      0.30     -0.05
    0    6   24      0.56      0.08
   -1    7   24     -1.24     -1.71
   -2    8   24      0.18      0.37
   -3    9   24      0.20     -1.67
   -4   10   24      0.29     -0.37
   -5   11   24      1.32     -0.07
   -7   11   24      0.56     -0.36
   -7   10   24      0.92      0.62
   -7    9   24     -0.36     -0.09
   -7    8   24      0.18      0.35
   -7    7   24     -1.51     -0.03
    0    7   24      0.28      0.02
   -1    8   24     -0.59     -0.26
   -2    9   24     -1.06      1.14
   -3   10   24     -1.12     -0.74
   -4   11   24      0.32     -0.52
   -8   11   24      0.00      0.54
   -8   10   24     -0.46      1.36
   -8    9   24     -0.39     -0.69
   -8    8   24      0.67      0.15
    0    8   24      2.71     -0.03
   -1    9   24     -0.13     -0.82
   -2   10   24     -0.22      0.96
   -3   11   24     -0.37      0.36
   -9   10   24      0.07     -0.35
   -9    9   24      1.20     -0.10
    0    9   24      0.72      0.08
   -1   10   24     -0.14     -0.97
   -1    1   25      1.19      0.29
    0    1   25      0.52     -1.14
   -1    2   25     -0.14     -0.26
   -2    3   25      0.44      0.10
   -2    2   25      0.71      0.11
    0    2   25     -0.63      0.08
   -1    3   25      0.05      0.57
   -2    4   25      0.89      0.12
   -3    5   25      0.68     -0.52
   -3    4   25     -0.62      0.11
   -3    3   25     -0.83     -0.08
    0    3   25      0.32     -0.17
   -1    4   25      0.09      0.03
   -2    5   25     -0.07     -0.45
   -3    6   25      0.10      1.44
   -4    7   25     -1.34      0.19
   -4    6   25      2.24      0.96
   -4    5   25      0.54      0.47
   -4    4   25     -0.28     -0.04
    0    4   25      0.34     -0.37
   -1    5   25     -1.16     -1.03
   -2    6   25     -0.17     -0.57
   -3    7   25     -1.19      1.12
   -4    8   25      1.30      0.94
   -5    9   25     -0.65      1.47
   -5    8   25     -0.15     -1.90
   -5    7   25     -1.15     -1.53
   -5    6   25     -0.27     -0.43
   -5    5   25     -0.71      0.08
    0    5   25     -0.78      1.22
   -1    6   25     -0.15     -0.82
   -2    7   25     -0.32     -0.30
   -3    8   25      1.68      0.17
   -4    9   25      0.57      1.15
   -5   10   25     -0.35      0.32
   -6   11   25     -0.27     -1.35
   -6   10   25     -0.31     -0.85
   -6    9   25     -0.28      0.37
   -6    8   25      1.02     -0.13
   -6    7   25     -0.48      1.33
   -6    6   25      0.80      0.01
    0    6   25      0.01     -0.18
   -1    7   25      0.27     -0.08
   -2    8   25     -0.01     -1.31
   -3    9   25      0.41     -0.11
   -4   10   25     -0.30     -0.68
   -5   11   25      0.49     -0.01
   -7   10   25      0.44     -0.86
   -7    9   25     -0.51      0.47
   -7    8   25      0.05     -0.55
   -7    7   25      0.10     -0.05
    0    7   25     -1.07      1.93
   -1    8   25     -0.78     -0.34
   -2    9   25     -0.90     -0.20
   -3   10   25     -0.34     -0.63
   -8   10   25     -0.73      0.20
   -8    9   25     -0.28      0.06
   -8    8   25      0.94     -0.05
    0    8   25     -0.37      0.51
   -1    9   25      1.32      0.58
   -2   10   25      0.49     -0.22
   -9   10   25     -0.85     -1.70
   -9    9   25      0.13      0.12
    0    9   25     -0.91      1.00
   -1   10   25      0.30     -0.31
   -1    1   26      1.25     -0.09
    0    1   26     -0.48     -1.54
   -1    2   26     -0.67     -0.54
   -2    3   26     -0.51      0.63
   -2    2   26      0.43      0.04
    0    2   26     -0.37     -0.25
   -1    3   26     -0.05     -0.78
   -2    4   26      0.10      1.49
   -3    5   26      0.49     -0.30
   -3    4   26      0.06      0.69
   -3    3   26      0.82      0.12
    0    3   26      0.03     -0.08
   -1    4   26      0.25     -1.12
   -2    5   26     -0.49     -0.15
   -3    6   26      0.25     -1.24
   -4    7   26     -1.26      1.53
   -4    6   26      0.44     -0.37
   -4    5   26     -1.08     -0.40
   -4    4   26     -0.50     -0.03
    0    4   26      0.13     -0.04
   -1    5   26      1.11     -1.10
   -2    6   26     -0.07     -0.29
   -3    7   26      0.39      0.63
   -4    8   26     -1.44      0.28
   -5    9   26      0.68      0.08
   -5    8   26     -1.07     -1.03
   -5    7   26      1.40      0.94
   -5    6   26      0.60     -0.34
   -5    5   26      0.73     -0.03
    0    5   26      0.45      0.96
   -1    6   26     -0.95      0.60
   -2    7   26     -0.34     -0.51
   -3    8   26      0.51     -0.57
   -4    9   26      1.86      0.16
   -5   10   26     -0.09      1.31
   -6   10   26     -0.95      0.37
   -6    9   26      0.76      0.06
   -6    8   26     -0.52     -0.92
   -6    7   26     -0.35      0.21
   -6    6   26     -0.23      0.00
    0    6   26      0.44      0.60
   -1    7   26      0.40     -0.46
   -2    8   26      0.14     -0.66
   -3    9   26      1.01     -0.27
   -4   10   26      1.01      0.20
   -7   10   26      0.45      0.89
   -7    9   26      0.91      0.56
   -7    8   26     -0.31     -0.37
   -7    7   26      0.13      0.04
    0    7   26     -0.13     -0.19
   -1    8   26     -0.45      0.64
   -2    9   26     -0.69     -0.59
   -3   10   26     -0.50     -0.25
   -8   10   26     -1.47      0.32
   -8    9   26      0.73      0.01
   -8    8   26     -0.75      0.00
    0    8   26      0.48      0.64
   -1    9   26     -1.03      0.95
   -2   10   26      0.03      0.46
   -9    9   26      1.85     -0.07
    0    9   26     -0.57     -1.02
    0    0   27      1.88     -0.11
   -1    1   27      0.17      0.17
    0    1   27     -0.16     -0.48
   -1    2   27      0.02     -0.39
   -2    3   27     -1.20     -0.35
   -2    2   27      1.43     -0.07
    0    2   27      1.32      0.16
   -1    3   27      0.32     -0.03
   -2    4   27      0.97     -0.93
   -3    5   27     -0.22      1.13
   -3    4   27     -0.96      0.49
   -3    3   27     -0.69     -0.06
    0    3   27     -1.02     -0.08
   -1    4   27      0.53     -0.63
   -2    5   27      0.14     -0.61
   -3    6   27     -0.49      0.26
   -4    7   27     -0.07     -0.98
   -4    6   27     -0.31     -0.77
   -4    5   27     -0.18      0.57
   -4    4   27      1.48      0.13
    0    4   27     -1.06      0.00
   -1    5   27      0.04     -0.37
   -2    6   27      1.18     -0.03
   -3    7   27      0.68      0.53
   -4    8   27     -0.04      0.96
   -5    9   27     -1.17     -0.57
   -5    8   27     -0.53      0.82
   -5    7   27      0.32     -0.59
   -5    6   27     -0.49     -0.21
   -5    5   27      0.41     -0.01
    0    5   27     -1.71      0.16
   -1    6   27      0.04     -0.36
   -2    7   27     -0.65      0.33
   -3    8   27     -0.16      0.09
   -4    9   27     -0.23      0.06
   -5   10   27      0.24      0.34
   -6   10   27      0.55     -0.90
   -6    9   27     -0.02     -1.12
   -6    8   27      0.15      0.50
   -6    7   27      0.48      0.10
   -6    6   27     -0.10      0.01
    0    6   27      0.75      0.16
   -1    7   27     -0.80      0.84
   -2    8   27      0.05     -0.10
   -3    9   27      0.43     -0.82
   -4   10   27      1.15     -0.39
   -7    9   27     -0.64     -0.51
   -7    8   27      0.28      0.99
   -7    7   27      0.05     -0.09
    0    7   27      0.23     -0.03
   -1    8   27     -0.32     -1.20
   -2    9   27      0.41     -0.28
   -8    9   27     -0.46     -0.97
   -8    8   27     -1.03      0.13
    0    8   27      0.73     -0.03
   -1    9   27     -0.50     -0.26
   -1    1   28      1.36      0.05
    0    1   28     -0.63      0.60
   -1    2   28      0.45     -0.67
   -2    3   28      0.12      0.03
   -2    2   28     -0.12      0.17
    0    2   28     -0.05      0.61
   -1    3   28      2.31      1.11
   -2    4   28      0.75      0.18
   -3    5   28      0.27     -0.15
   -3    4   28     -0.44     -0.76
   -3    3   28      0.61      0.05
    0    3   28     -0.44      0.54
   -1    4   28     -0.08     -0.24
   -2    5   28     -0.24     -0.43
   -3    6   28     -0.23      0.62
   -4    7   28     -0.40      0.65
   -4    6   28      0.18     -0.05
   -4    5   28     -0.37      0.32
   -4    4   28     -0.13     -0.03
    0    4   28     -0.82      0.64
   -1    5   28     -0.03      0.08
   -2    6   28      0.44     -1.11
   -3    7   28      0.17      0.45
   -4    8   28      0.14      0.26
   -5    9   28     -0.73      0.52
   -5    8   28      0.23     -0.70
   -5    7   28     -0.09     -0.71
   -5    6   28      0.19      0.01
   -5    5   28      0.26     -0.02
    0    5   28     -0.57      0.87
   -1    6   28     -0.26     -0.94
   -2    7   28      0.37     -1.11
   -3    8   28      0.24      0.67
   -4    9   28      0.04      1.08
   -6    9   28      0.56      0.26
   -6    8   28      0.86     -0.58
   -6    7   28     -0.19      0.58
   -6    6   28     -0.20      0.05
    0    6   28     -0.74      1.41
   -1    7   28      0.29      0.35
   -2    8   28     -0.20      0.71
   -3    9   28      0.03     -0.27
   -7    9   28     -0.14      0.97
   -7    8   28      0.34      0.23
   -7    7   28     -1.45     -0.03
    0    7   28      0.00      0.36
   -1    8   28      0.91      0.05
   -2    9   28     -0.47     -1.35
   -8    8   28      0.93     -0.06
    0    8   28     -0.50      1.00
   -1    1   29     -0.26      0.11
    0    1   29     -0.61     -0.92
   -1    2   29     -1.24      0.74
   -2    3   29      0.26      0.68
   -2    2   29      0.84      0.15
    0    2   29     -1.09     -1.62
   -1    3   29     -0.51      0.56
   -2    4   29      0.63      0.66
   -3    5   29      0.45     -0.15
   -3    4   29     -0.07     -0.46
   -3    3   29      0.60      0.04
    0    3   29     -0.75     -2.66
   -1    4   29     -0.43      0.05
   -2    5   29      0.67      0.67
   -3    6   29     -0.34      0.11
   -4    7   29     -0.33      0.28
   -4    6   29     -0.64     -0.02
   -4    5   29      0.49     -0.45
   -4    4   29     -0.43      0.13
    0    4   29     -0.98     -1.12
   -1    5   29     -0.68      0.44
   -2    6   29      0.54     -0.03
   -3    7   29      0.55     -0.84
   -4    8   29     -0.63     -0.43
   -5    9   29     -0.52     -0.35
   -5    8   29     -0.55     -0.68
   -5    7   29      0.59      0.06
   -5    6   29      0.09      0.65
   -5    5   29      0.44     -0.06
    0    5   29     -0.30     -0.35
   -1    6   29     -1.09      0.31
   -2    7   29     -0.35      0.12
   -3    8   29      0.66     -0.21
   -4    9   29      0.65      0.97
   -6    9   29      0.85     -0.62
   -6    8   29      0.14      0.33
   -6    7   29      0.20      0.68
   -6    6   29     -0.65     -0.09
    0    6   29      0.11     -0.05
   -1    7   29     -1.01      0.25
   -2    8   29      0.48     -0.33
   -3    9   29      0.98      0.37
   -7    8   29     -0.76      0.10
   -7    7   29     -0.16      0.05
    0    7   29      0.60      0.86
   -1    8   29      0.13     -0.07
    0    0   30     -0.05     -0.02
   -1    1   30      0.32      0.02
    0    1   30      1.32     -0.12
   -1    2   30      0.23     -0.25
   -2    3   30     -0.74     -0.47
   -2    2   30     -1.43      0.24
    0    2   30      1.58      0.55
   -1    3   30      0.38     -1.29
   -2    4   30     -0.75     -0.30
   -3    5   30     -1.15     -0.46
   -3    4   30     -0.35      1.22
   -3    3   30      0.26     -0.07
    0    3   30      0.98     -0.26
   -1    4   30      0.28     -1.69
   -2    5   30      0.14      0.10
   -3    6   30      0.34      1.19
   -4    7   30      0.48      0.20
   -4    6   30      0.64     -0.09
   -4    5   30     -0.04     -0.33
   -4    4   30      0.97      0.00
    0    4   30      0.14      0.05
   -1    5   30     -0.22     -1.79
   -2    6   30      0.23     -0.22
   -3    7   30     -0.16      0.03
   -4    8   30     -0.17      0.10
   -5    8   30      0.09     -0.81
   -5    7   30      0.26     -0.05
   -5    6   30     -0.07     -0.24
   -5    5   30     -0.43      0.04
    0    5   30      0.18      1.07
   -1    6   30     -0.04     -0.22
   -2    7   30     -1.13      0.09
   -3    8   30     -1.01      0.88
   -6    8   30      0.70      0.89
   -6    7   30     -0.39      0.49
   -6    6   30     -0.05     -0.03
    0    6   30      0.54      0.16
   -1    7   30      0.20     -0.25
   -2    8   30     -0.17     -0.53
   -7    7   30      0.27     -0.04
    0    7   30     -0.24      0.18
   -1    1   31     -0.39     -0.21
    0    1   31     -0.42      0.26
   -1    2   31      1.10      1.26
   -2    3   31      0.89     -0.08
   -2    2   31      0.22      0.08
    0    2   31      0.24      0.01
   -1    3   31      1.70      0.87
   -2    4   31      1.12     -0.23
   -3    5   31     -0.42     -0.39
   -3    4   31      0.39     -1.08
   -3    3   31     -1.11      0.20
    0    3   31     -0.54      0.53
   -1    4   31      0.58      0.59
   -2    5   31     -0.47      0.16
   -3    6   31      0.37     -0.18
   -4    7   31     -0.31      0.31
   -4    6   31     -0.89     -0.07
   -4    5   31     -0.86      0.57
   -4    4   31      0.15     -0.09
    0    4   31     -1.97      0.65
   -1    5   31      0.37     -0.45
   -2    6   31      0.79     -1.34
   -3    7   31      0.64     -0.47
   -5    7   31      1.39      0.50
   -5    6   31     -0.21      0.10
   -5    5   31      0.93     -0.01
    0    5   31     -1.36      2.26
   -1    6   31      0.70      0.05
   -2    7   31     -0.25      0.00
   -6    7   31     -1.07     -0.36
   -6    6   31     -0.23      0.01
    0    6   31     -0.14      0.68
   -1    7   31      0.59      0.61
   -1    1   32     -1.91      0.21
    0    1   32     -0.34      0.02
   -1    2   32     -0.70      1.21
   -2    3   32      0.23      1.67
   -2    2   32      0.25     -0.06
    0    2   32     -0.34     -0.99
   -1    3   32     -0.75     -0.35
   -2    4   32      0.75     -0.07
   -3    5   32      0.60      0.47
   -3    4   32      0.29     -0.77
   -3    3   32      0.13      0.07
    0    3   32     -0.61     -2.55
   -1    4   32     -0.58     -0.04
   -2    5   32      0.21      0.94
   -3    6   32     -0.76      0.48
   -4    7   32      0.38     -1.33
   -4    6   32      0.18      0.31
   -4    5   32      0.34     -0.54
   -4    4   32      0.19      0.11
    0    4   32     -1.00     -1.46
   -1    5   32     -1.19      1.19
   -2    6   32      0.47     -0.57
   -3    7   32      0.75     -0.09
   -5    7   32     -0.03      0.79
   -5    6   32     -0.87      0.57
   -5    5   32      0.46      0.02
    0    5   32     -0.94     -0.78
   -1    6   32     -1.34      0.92
   -2    7   32      0.50     -0.68
   -6    6   32      0.36     -0.04
    0    6   32     -0.48     -1.40
    0    0   33     -0.17     -0.11
   -1    1   33     -0.50      0.01
    0    1   33      1.06      0.05
   -1    2   33      0.46     -0.15
   -2    3   33     -0.37      0.48
   -2    2   33     -2.15      0.31
    0    2   33      1.52      0.28
   -1    3   33      1.01     -1.08
   -2    4   33     -1.31     -0.34
   -3    5   33     -0.19     -0.34
   -3    4   33     -0.37      0.57
   -3    3   33      0.98      0.03
    0    3   33      0.60     -0.05
   -1    4   33      0.26     -1.80
   -2    5   33      0.02     -0.26
   -3    6   33      0.17      0.46
   -4    6   33      0.71      0.51
   -4    5   33     -0.56     -0.85
   -4    4   33      0.36     -0.11
    0    4   33      0.07      0.07
   -1    5   33      0.00     -1.25
   -2    6   33     -0.42      0.93
   -5    6   33      0.04      0.47
   -5    5   33     -0.16      0.02
    0    5   33      1.04      1.09
   -1    6   33     -0.52     -0.51
   -1    1   34     -1.82     -0.04
    0    1   34     -0.12      0.13
   -1    2   34      0.76      1.14
   -2    3   34      0.99     -0.11
   -2    2   34      0.21     -0.01
    0    2   34      0.41     -0.75
   -1    3   34      0.47      1.03
   -2    4   34      1.21     -0.09
   -3    5   34     -0.85      0.01
   -3    4   34     -0.04     -0.93
   -3    3   34     -0.80      0.28
    0    3   34      0.00     -0.34
   -1    4   34      0.22      0.77
   -2    5   34      0.63     -0.38
   -4    5   34     -0.08      0.50
   -4    4   34      0.60     -0.01
    0    4   34     -1.33     -0.70
   -1    5   34     -0.93      0.25
   -1    1   35     -0.72      0.22
    0    1   35      0.89      2.00
   -1    2   35     -0.32     -0.26
   -2    3   35      0.01      1.17
   -2    2   35     -1.54     -0.09
    0    2   35     -0.20      0.30
   -1    3   35     -0.08     -0.93
   -2    4   35     -0.67      0.69
   -3    4   35      0.60     -0.14
   -3    3   35      0.93      0.02
    0    3   35      0.73     -0.30
   -1    4   35     -0.15     -1.38
    0    0   36     -1.54     -0.14
   -1    1   36      0.17     -0.06
    0    1   36      0.02     -0.25
   -1    2   36      0.50      0.75
   -2    2   36     -1.09      0.20
    0    2   36     -0.16     -0.09
    0    1    0      3.07      0.50
    0    2    0      0.10     -0.35
   -1   14    0      0.27      0.34
    0   14    0     -0.83      0.23
   -5   15    0      0.94      0.52
   -4   15    0      0.36      0.23
   -3   15    0      0.82     -0.09
   -2   15    0      0.91      0.10
   -1    1    1    100.27      0.26
    0    1    1      4.22     -6.99
  -14   14    1     -0.48     -0.09
  -13   14    1     -0.60      2.53
   -1   14    1     -0.36     -0.52
    0   14    1      0.32     -0.59
  -13   15    1      0.36     -0.23
  -12   15    1     -0.02     -2.30
  -11   15    1     -0.08      0.37
  -10   15    1     -0.84     -0.83
   -5   15    1      0.98      0.57
   -4   15    1     -0.43     -0.56
   -3   15    1      0.88      0.18
   -2   15    1      0.02      0.03
   -1    1    2    -14.60     -0.04
    0    1    2    -35.21    -61.77
  -14   14    2     -0.51     -0.04
  -13   14    2      0.10      1.10
   -1   14    2      1.31     -0.38
    0   14    2      0.02      0.29
  -13   15    2      0.22     -0.03
  -12   15    2     -0.30     -0.54
  -11   15    2     -1.19      0.67
  -10   15    2      0.49     -1.24
   -5   15    2      0.24      1.11
   -4   15    2      0.11     -0.45
   -3   15    2     -0.32      1.34
   -2   15    2     -0.23     -0.58
    0    0    3     83.15     -0.19
   -1    1    3     13.11      0.17
    0    1    3      9.47      0.36
  -14   14    3     -1.07     -0.05
  -13   14    3     -0.57      0.03
  -12   14    3      1.64     -0.07
   -2   14    3      0.23      0.77
   -1   14    3      0.36      1.00
    0   14    3     -0.27      0.15
  -13   15    3      1.37      0.25
  -12   15    3      0.46     -0.53
  -11   15    3      0.10      0.31
  -10   15    3     -0.03     -0.57
   -5   15    3      0.58      0.56
   -4   15    3      0.45     -0.32
   -3   15    3     -0.35     -0.23
   -2   15    3      1.06     -0.09
   -2    2    4      8.81      0.15
  -14   14    4     -1.31      0.13
  -13   14    4     -0.37      1.61
  -12   14    4      0.71      1.32
   -2   14    4     -0.44      0.19
   -1   14    4      0.31     -0.08
    0   14    4      0.53     -0.89
  -13   15    4      1.30     -0.01
  -12   15    4     -0.11     -1.64
  -11   15    4     -0.21      0.07
  -10   15    4     -0.61     -0.80
   -9   15    4     -0.63      0.80
   -6   15    4      1.02      1.06
   -5   15    4     -0.67      0.12
   -4   15    4      0.60      0.13
   -3   15    4      0.21      0.25
   -2   15    4      0.33      0.59
    0    1    5    -22.18    -38.96
  -14   14    5     -0.75     -0.06
  -13   14    5     -0.31      0.67
  -12   14    5      1.72      0.38
   -2   14    5     -0.98     -0.28
   -1   14    5     -0.25      0.06
    0   14    5     -0.11     -0.03
  -13   15    5      0.76      0.40
  -12   15    5      0.17     -0.71
  -11   15    5     -0.72      0.07
  -10   15    5     -0.02     -0.42
   -9   15    5      0.05      0.91
   -6   15    5     -0.07      0.97
   -5   15    5      0.38     -0.32
   -4   15    5      0.04      0.76
   -3   15    5      0.38     -0.18
   -2   15    5      0.03     -0.20
    0    0    6     26.07     -0.15
  -13   13    6      0.19      0.06
    0   13    6     -0.02     -0.09
  -14   14    6     -1.64      0.00
  -13   14    6     -0.06      1.87
  -12   14    6     -0.11      0.74
   -2   14    6      0.48      0.76
   -1   14    6      0.69      1.86
    0   14    6     -0.29      0.03
  -13   15    6      0.28     -0.61
  -12   15    6      0.49     -0.41
  -11   15    6     -0.01     -0.70
  -10   15    6     -0.94     -0.60
   -9   15    6      0.27     -0.43
   -8   15    6     -0.24     -0.62
   -7   15    6     -1.67     -0.93
   -6   15    6      0.18      0.59
   -5   15    6      1.63     -1.03
   -4   15    6     -0.33     -0.42
   -3   15    6     -0.21     -0.44
   -2   15    6      0.20     -0.52
  -13   13    7     -1.71     -0.02
    0   13    7      0.22     -0.34
  -14   14    7     -1.00      0.12
  -13   14    7      0.91      1.33
  -12   14    7      1.07      0.01
   -2   14    7      0.95      0.49
   -1   14    7     -0.41     -0.47
    0   14    7      0.44     -0.72
  -13   15    7      0.27     -0.13
  -12   15    7      0.43      0.56
  -11   15    7     -0.33     -0.57
  -10   15    7     -1.08      0.44
   -9   15    7     -0.42      1.61
   -8   15    7     -1.36     -0.27
   -7   15    7     -0.06      0.41
   -6   15    7      0.01      1.00
   -5   15    7      0.34     -0.08
   -4   15    7     -1.65     -0.19
   -3   15    7      0.30      0.49
   -2   15    7      0.10      0.62
  -13   13    8     -1.32     -0.07
    0   13    8      1.05      1.69
  -14   14    8     -0.29      0.01
  -13   14    8      0.15      0.54
  -12   14    8     -0.63      0.23
   -2   14    8     -1.50     -0.35
   -1   14    8     -0.66     -0.03
    0   14    8      0.25      0.51
  -13   15    8      0.28     -0.18
  -12   15    8      0.56     -0.19
  -11   15    8      0.48     -1.40
  -10   15    8     -0.10      0.36
   -9   15    8      0.80      0.55
   -8   15    8      0.43     -0.77
   -7   15    8     -0.23      1.24
   -6   15    8      0.15      0.28
   -5   15    8      0.67      0.58
   -4   15    8      0.36      0.16
   -3   15    8      0.67      0.02
   -2   15    8     -0.16     -0.55
  -13   13    9      0.28      0.15
    0   13    9     -0.66      0.05
  -14   14    9     -0.14      0.03
  -13   14    9      0.15      1.98
  -12   14    9     -0.68      1.07
  -11   14    9      1.67      1.44
   -3   14    9     -0.10      1.46
   -2   14    9      0.40     -0.20
   -1   14    9      0.84      1.68
    0   14    9      0.69      0.01
  -12   15    9     -0.57     -0.36
  -11   15    9      0.19     -1.62
  -10   15    9     -1.15     -0.47
   -9   15    9      0.87     -0.24
   -8   15    9      0.06     -0.39
   -7   15    9     -1.15      0.71
   -6   15    9      0.81      0.24
   -5   15    9      0.31     -0.82
   -4   15    9      0.23     -0.96
   -3   15    9     -0.69     -0.41
  -13   13   10     -2.77     -0.17
    0   13   10      0.01     -0.05
  -13   14   10      0.52     -0.19
  -12   14   10      2.31     -1.29
  -11   14   10      2.05      1.09
   -3   14   10      0.55     -0.33
   -2   14   10      1.17     -0.43
   -1   14   10     -0.82     -0.28
  -12   15   10      0.25      1.12
  -11   15   10     -0.72      0.22
  -10   15   10     -1.10      0.39
   -9   15   10     -0.74      1.27
   -8   15   10     -0.76     -0.31
   -7   15   10     -0.72      0.12
   -6   15   10      0.30      0.86
   -5   15   10      0.14     -0.06
   -4   15   10     -0.89      0.15
   -3   15   10     -0.17     -0.12
  -13   13   11      0.20      0.05
  -12   13   11     -0.12      3.19
   -1   13   11      0.52     -0.36
    0   13   11      1.05      1.92
  -13   14   11      0.24      0.27
  -12   14   11     -1.32     -0.22
  -11   14   11     -0.97     -0.89
   -3   14   11      0.92      0.03
   -2   14   11     -1.28     -0.75
   -1   14   11     -0.42     -0.58
  -12   15   11      0.16      0.37
  -11   15   11      1.38     -0.80
  -10   15   11      0.18      0.76
   -9   15   11      0.15     -0.95
   -8   15   11      1.06      0.47
   -7   15   11      0.29     -0.24
   -6   15   11      0.58      1.01
   -5   15   11      0.63      0.80
   -4   15   11      0.37     -0.17
   -3   15   11      0.52      0.38
  -13   13   12     -0.73      0.11
  -12   13   12     -0.10     -0.88
   -1   13   12      0.55      0.07
    0   13   12     -0.06      0.03
  -13   14   12     -0.10      1.46
  -12   14   12     -0.28     -0.33
  -11   14   12      0.50      1.03
  -10   14   12      0.13     -0.09
   -4   14   12      1.47      0.13
   -3   14   12      0.03      0.26
   -2   14   12      0.55     -0.31
   -1   14   12      0.40      1.20
  -12   15   12     -0.51     -0.05
  -11   15   12      0.58     -0.38
  -10   15   12     -0.66     -1.06
   -9   15   12      0.36      0.25
   -8   15   12     -1.02      0.75
   -7   15   12      0.84     -0.09
   -6   15   12     -0.53      0.79
   -5   15   12      0.51     -0.20
   -4   15   12      0.69     -0.54
   -3   15   12     -0.41     -0.49
  -13   13   13     -2.04     -0.25
  -12   13   13      0.37     -0.41
   -1   13   13     -1.52     -0.73
    0   13   13     -0.28      0.53
  -13   14   13     -0.45     -0.26
  -12   14   13      1.85     -1.27
  -11   14   13      0.06      0.71
  -10   14   13      1.04     -0.16
   -9   14   13     -0.55     -0.39
   -5   14   13      0.06     -0.57
   -4   14   13     -1.49      1.49
   -3   14   13      0.82     -0.17
   -2   14   13     -0.07     -0.65
   -1   14   13     -0.09     -0.59
  -11   15   13      0.40      0.13
  -10   15   13     -0.48      0.12
   -9   15   13     -0.76      0.77
   -8   15   13      0.37     -0.16
   -7   15   13     -0.03      0.06
   -6   15   13     -0.09     -1.06
   -5   15   13      0.52      0.20
   -4   15   13      0.50     -0.36
  -13   13   14      0.96      0.00
  -12   13   14      0.17      3.39
   -1   13   14      0.18      0.04
    0   13   14      0.62      1.39
  -13   14   14      0.17      0.22
  -12   14   14     -0.39      0.45
  -11   14   14     -1.66     -0.70
  -10   14   14     -0.08     -0.06
   -9   14   14     -1.03     -2.27
   -8   14   14     -1.14      0.49
   -6   14   14      0.11      0.23
   -5   14   14     -0.58      0.97
   -4   14   14     -0.58      0.80
   -3   14   14      1.03      1.08
   -2   14   14     -0.77     -1.21
   -1   14   14     -0.24      0.26
  -11   15   14      1.01      0.10
  -10   15   14      0.15     -0.35
   -9   15   14      0.07     -0.20
   -8   15   14      0.88     -0.20
   -7   15   14      0.25     -0.64
   -6   15   14      0.27      0.62
   -5   15   14     -0.51      0.34
   -4   15   14      0.82     -0.09
  -12   12   15     -3.13     -0.35
    0   12   15     -1.13     -0.11
  -13   13   15     -0.75      0.02
  -12   13   15     -0.95     -1.03
  -11   13   15      2.98     -1.58
   -2   13   15      0.92      0.46
   -1   13   15     -0.04      1.22
    0   13   15      0.66      0.01
  -12   14   15      0.55     -0.26
  -11   14   15     -0.10      0.50
  -10   14   15      0.04      0.66
   -9   14   15      1.38      0.57
   -8   14   15     -2.05      2.38
   -7   14   15      1.88      1.01
   -6   14   15     -0.04     -0.33
   -5   14   15     -0.54     -1.72
   -4   14   15      0.47     -0.21
   -3   14   15      0.29     -0.41
   -2   14   15      0.61     -0.56
  -10   15   15      0.03     -1.94
   -9   15   15     -1.00      0.35
   -8   15   15     -0.02      0.63
   -7   15   15     -0.09     -0.22
   -6   15   15     -0.34      0.56
   -5   15   15      0.20      0.05
  -12   12   16      1.53      0.07
    0   12   16      0.11     -0.31
  -13   13   16     -0.94     -0.12
  -12   13   16      0.13      0.55
  -11   13   16      0.36      1.28
   -2   13   16      0.39      1.00
   -1   13   16     -0.31     -0.65
    0   13   16      0.27     -0.53
  -12   14   16      1.02     -0.17
  -11   14   16     -0.53     -0.66
  -10   14   16      0.92      0.84
   -9   14   16     -0.83     -0.34
   -8   14   16     -0.93     -1.79
   -7   14   16      1.44      1.62
   -6   14   16     -1.35     -1.75
   -5   14   16     -0.03      0.25
   -4   14   16     -1.52      1.20
   -3   14   16      0.06      0.69
   -2   14   16     -0.25      0.51
  -10   15   16      0.65      0.32
   -9   15   16     -1.36      0.46
   -8   15   16      1.43      0.35
   -7   15   16      0.33     -0.56
   -6   15   16     -0.58     -0.96
   -5   15   16      0.35     -0.78
  -12   12   17     -1.08     -0.06
    0   12   17      0.55      0.88
  -13   13   17      1.04      0.03
  -12   13   17      0.40      2.03
  -11   13   17      0.62     -0.03
  -10   13   17     -0.12     -0.84
   -3   13   17     -0.20     -1.10
   -2   13   17      0.30     -1.33
   -1   13   17      0.54     -0.51
    0   13   17      0.31      0.41
  -11   14   17     -0.35     -0.29
  -10   14   17     -0.50      0.36
   -9   14   17     -0.11     -1.54
   -8   14   17     -0.04      1.57
   -7   14   17      0.09      1.09
   -6   14   17      2.42     -0.66
   -5   14   17      0.33      1.15
   -4   14   17     -0.14      0.80
   -3   14   17      0.22      1.03
   -8   15   17      0.08      0.19
   -7   15   17     -0.55     -0.50
  -12   12   18     -2.46     -0.18
  -11   12   18      0.05      1.59
   -1   12   18      0.64      2.13
    0   12   18      0.63     -0.07
  -12   13   18     -0.81     -0.57
  -11   13   18      1.42     -0.64
  -10   13   18     -0.12     -0.89
   -9   13   18      1.41      0.23
   -4   13   18     -0.03     -0.41
   -3   13   18     -1.04      0.09
   -2   13   18     -0.16      0.96
   -1   13   18     -0.45      0.77
  -11   14   18      0.23     -0.04
  -10   14   18     -0.19     -0.08
   -9   14   18      0.41      0.51
   -8   14   18     -0.68      1.77
   -7   14   18      1.19      0.17
   -6   14   18     -0.49     -0.02
   -5   14   18     -0.98     -1.83
   -4   14   18     -0.47     -0.35
   -3   14   18      0.79     -0.47
  -12   12   19      0.36      0.09
  -11   12   19     -0.04      1.66
   -1   12   19     -0.85     -0.72
    0   12   19      0.90     -1.66
  -12   13   19     -0.16      1.02
  -11   13   19      0.55      0.44
  -10   13   19      0.25     -1.05
   -9   13   19     -1.40     -0.06
   -8   13   19     -1.87     -2.90
   -7   13   19     -0.96      1.55
   -6   13   19      0.61     -0.04
   -5   13   19      2.50     -1.12
   -4   13   19      1.30      0.15
   -3   13   19      0.04      0.46
   -2   13   19     -0.20      0.98
   -1   13   19      0.71      0.09
  -10   14   19      0.67      0.65
   -9   14   19     -0.28     -0.21
   -8   14   19      0.05     -0.30
   -7   14   19      1.36      0.25
   -6   14   19     -0.24     -0.74
   -5   14   19      0.79      0.06
   -4   14   19     -0.61      0.38
  -11   11   20     -1.27     -0.06
    0   11   20      1.73      2.36
  -12   12   20     -0.50     -0.16
  -11   12   20     -0.68      0.45
  -10   12   20      0.79      0.83
   -2   12   20     -0.91     -0.21
   -1   12   20     -0.13      0.99
    0   12   20      0.95      1.50
  -11   13   20      1.05      0.90
  -10   13   20     -0.51     -0.67
   -9   13   20     -0.78     -0.69
   -8   13   20      0.25      1.14
   -7   13   20     -2.28      2.04
   -6   13   20      1.65      0.03
   -5   13   20     -1.00     -0.07
   -4   13   20     -1.76     -1.56
   -3   13   20     -0.86     -1.53
   -2   13   20     -0.69     -0.85
  -10   14   20     -1.04     -0.38
   -9   14   20      0.27     -1.01
   -8   14   20     -0.31      0.98
   -7   14   20      0.43      0.22
   -6   14   20      1.45     -1.10
   -5   14   20      0.60      0.59
   -4   14   20      0.03     -0.13
  -11   11   21     -0.50      0.19
    0   11   21      0.07      0.04
  -12   12   21     -1.09     -0.04
  -11   12   21     -1.18      0.22
  -10   12   21      1.05      0.60
   -9   12   21      1.97     -1.02
   -3   12   21      1.74      0.04
   -2   12   21     -0.35      0.16
   -1   12   21      0.79      2.22
    0   12   21      0.66      0.08
  -11   13   21      0.23      0.43
  -10   13   21      1.70     -0.71
   -9   13   21     -0.15      0.44
   -8   13   21     -0.66      0.37
   -7   13   21     -0.59      0.14
   -6   13   21      0.73      2.37
   -5   13   21     -0.59      0.29
   -4   13   21      0.47      0.28
   -3   13   21      0.33      0.30
   -2   13   21     -0.52      0.66
   -9   14   21     -0.09      0.93
   -8   14   21      0.09      0.05
   -7   14   21      0.63     -0.02
   -6   14   21     -0.03     -0.52
   -5   14   21     -1.65     -0.79
  -11   11   22     -0.26     -0.15
  -10   11   22     -0.23      0.68
   -1   11   22     -1.94     -0.09
    0   11   22     -0.09      0.15
  -12   12   22     -0.56      0.08
  -11   12   22     -0.12      0.56
  -10   12   22      0.28      1.05
   -9   12   22      0.04     -0.56
   -8   12   22     -1.35     -1.21
   -4   12   22     -0.30      0.43
   -3   12   22     -0.53     -0.31
   -2   12   22     -0.76     -0.39
   -1   12   22      0.14      0.12
    0   12   22      0.86     -1.91
  -10   13   22      0.99     -0.65
   -9   13   22     -0.60     -1.78
   -8   13   22     -0.51     -0.13
   -7   13   22     -0.51      0.32
   -6   13   22      0.63      0.36
   -5   13   22      1.74     -1.00
   -4   13   22      1.16     -0.39
   -3   13   22     -0.33     -0.07
  -11   11   23      0.10     -0.05
  -10   11   23     -0.65      0.49
   -1   11   23     -0.57      0.36
    0   11   23      1.06      1.31
  -11   12   23      0.17      0.62
  -10   12   23      0.00      1.75
   -9   12   23      1.34      0.28
   -8   12   23      0.97     -0.12
   -7   12   23     -0.57     -0.89
   -6   12   23      0.19      0.20
   -5   12   23     -0.63      0.11
   -4   12   23     -0.27      0.68
   -3   12   23      0.64     -0.43
   -2   12   23     -0.23     -0.96
   -1   12   23     -0.06      0.45
  -10   13   23     -0.46     -0.37
   -9   13   23     -0.41     -0.56
   -8   13   23     -0.99      0.76
   -7   13   23      0.25      0.80
   -6   13   23      0.40      0.80
   -5   13   23     -0.37      0.85
   -4   13   23     -0.63      0.23
   -3   13   23     -0.34     -0.64
  -10   10   24      1.24     -0.06
    0   10   24      1.23      0.30
  -11   11   24     -0.87      0.09
  -10   11   24     -1.06     -0.84
   -9   11   24     -0.38      1.03
   -2   11   24     -0.38     -0.22
   -1   11   24     -0.55      0.55
    0   11   24     -0.90      0.20
  -11   12   24     -0.51      0.14
  -10   12   24      0.38      0.04
   -9   12   24      1.56     -0.65
   -8   12   24     -0.40     -1.82
   -7   12   24     -0.92     -0.90
   -6   12   24     -1.61      1.60
   -5   12   24     -0.16     -0.65
   -4   12   24      0.58      0.80
   -3   12   24      1.23     -0.29
   -2   12   24      0.32     -0.27
   -1   12   24     -0.07      0.89
   -9   13   24      0.23      0.42
   -8   13   24     -0.56     -0.90
   -7   13   24      0.27      0.22
   -6   13   24     -0.24      0.08
   -5   13   24      0.18      0.29
   -4   13   24      0.82      0.01
  -10   10   25      0.69     -0.03
    0   10   25     -0.32      0.36
  -11   11   25      1.29     -0.05
  -10   11   25      0.24      0.40
   -9   11   25     -0.20      1.59
   -8   11   25      1.46      1.15
   -7   11   25      0.62     -0.51
   -4   11   25     -1.29     -0.64
   -3   11   25     -0.28      1.04
   -2   11   25      0.15     -0.15
   -1   11   25      0.15      0.25
    0   11   25      0.46     -0.71
  -10   12   25     -0.54      0.71
   -9   12   25      0.48     -0.09
   -8   12   25      0.08     -0.05
   -7   12   25     -0.62      0.31
   -6   12   25      0.33     -0.05
   -5   12   25      0.62      0.14
   -4   12   25     -0.81      0.37
   -3   12   25     -0.09     -0.25
   -2   12   25     -0.73      0.13
   -7   13   25     -1.06      0.81
   -6   13   25      0.41      0.12
  -10   10   26     -1.27      0.10
   -9   10   26     -0.38     -0.71
   -1   10   26     -0.70      0.39
    0   10   26      0.33      0.48
  -10   11   26     -0.56     -0.93
   -9   11   26     -0.45      0.18
   -8   11   26      0.94     -0.39
   -7   11   26      0.48     -1.45
   -6   11   26     -0.83      0.03
   -5   11   26     -0.50      0.29
   -4   11   26     -0.12     -0.96
   -3   11   26      0.20      0.46
   -2   11   26      0.36     -0.67
   -1   11   26     -0.45      0.63
   -9   12   26      0.95      0.86
   -8   12   26      0.13     -0.74
   -7   12   26     -0.03     -0.94
   -6   12   26     -0.28      0.20
   -5   12   26     -1.01     -0.21
   -4   12   26      0.04      0.83
   -3   12   26      0.09     -0.07
   -9    9   27      0.30      0.01
    0    9   27      1.64     -0.07
  -10   10   27      0.99     -0.02
   -9   10   27      0.95      0.41
   -8   10   27     -0.62      0.71
   -7   10   27      1.13      0.73
   -3   10   27     -0.52     -0.59
   -2   10   27     -1.21      0.78
   -1   10   27     -0.51     -0.52
    0   10   27      0.66      0.13
  -10   11   27     -0.41     -0.75
   -9   11   27     -0.51      0.27
   -8   11   27      0.59      0.75
   -7   11   27      0.14     -0.50
   -6   11   27     -0.35      0.94
   -5   11   27      1.03      0.08
   -4   11   27      0.19     -0.45
   -3   11   27     -0.44      0.04
   -2   11   27      0.22      0.04
   -1   11   27     -0.03      0.56
   -8   12   27      0.23     -0.99
   -7   12   27     -0.70     -0.16
   -6   12   27     -0.37      0.55
   -5   12   27     -0.16     -0.36
   -4   12   27     -0.16      0.73
   -9    9   28     -0.81      0.07
   -8    9   28      0.26      0.34
   -1    9   28     -0.19     -0.57
    0    9   28     -0.71      1.30
  -10   10   28      0.54      0.01
   -9   10   28     -0.70     -0.72
   -8   10   28     -0.73     -0.19
   -7   10   28      0.29     -0.02
   -6   10   28     -1.15     -1.14
   -5   10   28     -0.60      0.58
   -4   10   28      0.58     -0.02
   -3   10   28      0.48     -0.60
   -2   10   28      0.29     -0.29
   -1   10   28      0.90      0.59
    0   10   28     -0.09      0.10
   -9   11   28     -0.67      0.29
   -8   11   28      0.97      0.46
   -7   11   28      0.56     -0.72
   -6   11   28     -0.68     -0.41
   -5   11   28      0.72     -0.57
   -4   11   28     -0.91     -0.37
   -3   11   28     -0.73      0.11
   -2   11   28     -0.68      0.56
   -8    8   29     -1.33     -0.01
    0    8   29     -0.38     -0.75
   -9    9   29      1.43     -0.02
   -8    9   29      0.09     -0.46
   -7    9   29      1.28     -0.08
   -2    9   29      0.05      0.72
   -1    9   29     -0.86      0.23
    0    9   29      0.04      0.09
   -9   10   29      0.00      0.08
   -8   10   29     -0.42      0.85
   -7   10   29      0.75      0.24
   -6   10   29     -0.40      0.35
   -5   10   29      0.04      1.07
   -4   10   29      0.34     -0.33
   -3   10   29     -0.24     -0.82
   -2   10   29     -0.71     -0.58
   -1   10   29     -0.83      0.37
   -8   11   29     -0.13      0.30
   -7   11   29     -0.20     -1.10
   -6   11   29     -0.53      0.12
   -5   11   29      0.08      0.56
   -4   11   29      0.11     -0.15
   -3   11   29      0.77     -0.12
   -8    8   30      0.42      0.02
   -7    8   30     -0.48      1.18
   -1    8   30      0.45      0.14
    0    8   30      0.70     -0.04
   -9    9   30     -0.29      0.05
   -8    9   30     -0.75     -0.55
   -7    9   30     -0.20      0.73
   -6    9   30     -0.27     -1.66
   -5    9   30     -0.68     -0.49
   -4    9   30      0.13      0.14
   -3    9   30      0.91     -0.30
   -2    9   30     -0.19     -0.81
   -1    9   30      0.36     -0.39
    0    9   30     -0.30     -0.07
   -9   10   30      0.00     -0.16
   -8   10   30      0.75      0.21
   -7   10   30      0.67     -0.15
   -6   10   30     -0.22     -0.28
   -5   10   30      0.11      0.49
   -4   10   30      0.53      0.12
   -3   10   30      0.00      0.62
   -2   10   30     -0.78      0.02
   -1   10   30     -0.22     -0.04
   -6   11   30     -0.20      0.18
   -5   11   30      0.16     -0.01
   -7    7   31     -0.61      0.04
    0    7   31     -0.53      1.03
   -8    8   31      0.80     -0.02
   -7    8   31     -0.32      0.34
   -6    8   31      1.33      0.29
   -5    8   31      0.88     -0.43
   -4    8   31     -0.81      0.35
   -3    8   31     -0.62      0.02
   -2    8   31      0.36      0.25
   -1    8   31     -0.19     -0.12
    0    8   31      0.15      0.04
   -9    9   31     -0.07      0.00
   -8    9   31     -0.64      0.39
   -7    9   31      0.52      0.81
   -6    9   31      0.11     -0.85
   -5    9   31     -0.67      0.21
   -4    9   31     -0.66      0.40
   -3    9   31      0.13      0.24
   -2    9   31      0.39     -1.08
   -1    9   31      0.45      0.16
    0    9   31     -0.03     -0.12
   -7   10   31      0.18     -0.68
   -6   10   31     -0.62     -0.13
   -5   10   31      0.12     -0.17
   -4   10   31      0.61      0.37
   -3   10   31      0.14     -0.69
   -7    7   32     -0.80      0.06
   -6    7   32     -0.15      0.84
   -1    7   32     -0.27      1.11
    0    7   32     -0.22     -0.44
   -8    8   32     -0.50      0.04
   -7    8   32     -0.62     -0.02
   -6    8   32      1.33      0.48
   -5    8   32     -0.60     -0.70
   -4    8   32      0.18     -0.66
   -3    8   32     -0.31      0.41
   -2    8   32      0.20      0.54
   -1    8   32     -0.04      0.66
    0    8   32     -0.15     -0.37
   -8    9   32      0.10      0.37
   -7    9   32      0.83      0.21
   -6    9   32      0.54     -0.65
   -5    9   32     -0.81      0.37
   -4    9   32      0.04      0.04
   -3    9   32      0.24      0.75
   -2    9   32      0.22     -0.50
   -1    9   32     -1.07      0.14
   -5   10   32     -0.03      0.33
   -6    6   33     -0.29      0.02
    0    6   33      1.13      0.10
   -7    7   33     -0.83     -0.01
   -6    7   33     -0.36      1.03
   -5    7   33      0.73      0.04
   -4    7   33      0.28      0.11
   -3    7   33     -0.76     -0.40
   -2    7   33     -0.33     -0.36
   -1    7   33     -0.70     -0.99
    0    7   33      1.08      0.05
   -8    8   33     -0.53      0.02
   -7    8   33      0.09      1.02
   -6    8   33      0.17      0.14
   -5    8   33      0.55     -1.37
   -4    8   33      0.01      0.58
   -3    8   33     -0.19     -0.25
   -2    8   33      0.36      0.62
   -1    8   33      0.16     -0.22
    0    8   33      0.49      0.02
   -6    9   33     -0.44     -0.53
   -5    9   33     -0.25     -0.56
   -4    9   33     -0.22      0.66
   -3    9   33     -0.25     -0.09
   -5    5   34     -0.42     -0.06
    0    5   34     -0.57      1.18
   -6    6   34     -1.32      0.00
   -5    6   34     -0.35     -0.01
   -4    6   34     -0.10      0.12
   -3    6   34      0.18     -0.70
   -2    6   34      0.78     -0.57
   -1    6   34      0.94      0.93
    0    6   34      0.17      0.00
   -7    7   34     -0.53      0.01
   -6    7   34      0.32      0.96
   -5    7   34      0.93      0.08
   -4    7   34      0.06      0.10
   -3    7   34     -0.36     -0.01
   -2    7   34      0.10      0.40
   -1    7   34      0.11      0.10
    0    7   34     -0.67      0.95
   -7    8   34     -0.08      0.52
   -6    8   34      0.76     -0.32
   -5    8   34      0.64      0.11
   -4    8   34     -1.00     -0.54
   -3    8   34      0.07     -0.12
   -2    8   34     -0.34     -0.58
   -1    8   34      0.36     -0.03
   -4    4   35     -0.23      0.06
    0    4   35     -0.37     -0.41
   -5    5   35     -0.21      0.04
   -4    5   35      0.09     -0.42
   -3    5   35      0.65      0.02
   -2    5   35     -0.19      0.94
   -1    5   35     -1.22     -0.62
    0    5   35      0.42      1.17
   -6    6   35     -0.88      0.04
   -5    6   35      0.35      1.19
   -4    6   35     -0.19      0.10
   -3    6   35      0.46     -0.04
   -2    6   35     -0.86      0.36
   -1    6   35     -0.51      0.12
    0    6   35     -0.03     -0.87
   -7    7   35     -0.79      0.01
   -6    7   35     -0.24      0.26
   -5    7   35      0.18      0.52
   -4    7   35     -0.15     -0.57
   -3    7   35      0.70     -0.49
   -2    7   35      0.76      0.60
   -1    7   35      0.09     -0.32
    0    7   35     -0.08     -0.17
   -5    8   35     -0.11     -0.08
   -4    8   35     -0.22     -0.69
   -3    8   35     -0.22      0.52
   -3    3   36     -0.05     -0.03
   -2    3   36      0.04     -0.19
   -1    3   36      1.03     -0.07
    0    3   36      0.21     -0.10
   -4    4   36      0.12     -0.04
   -3    4   36     -0.08      0.21
   -2    4   36     -0.43     -0.47
   -1    4   36      0.76     -0.31
    0    4   36     -1.12      0.09
   -5    5   36     -0.48     -0.06
   -4    5   36      0.02      0.02
   -3    5   36     -0.55     -0.12
   -2    5   36     -0.02     -0.73
   -1    5   36      0.28     -0.03
    0    5   36      0.09      0.60
   -6    6   36     -0.14      0.04
   -5    6   36     -0.14      0.52
   -4    6   36      0.42     -0.31
   -3    6   36     -0.08      0.58
   -2    6   36     -0.63     -0.04
   -1    6   36      0.32      0.43
    0    6   36      0.20     -0.03
   -5    7   36      0.39      0.13
   -4    7   36      0.67     -0.24
   -3    7   36     -0.21      0.21
   -2    7   36     -0.32     -0.47
    0    0    0      0.00      0.00
# SQUEEZE RESULTS (Version =  71116)
# Note: Data are Listed for all Voids in the P1 Unit Cell
# i.e. Centre of Gravity, Solvent Accessible Volume,
# Recovered number of Electrons in the Void and
# Details about the Squeezed Material
loop_
  _platon_squeeze_void_nr
  _platon_squeeze_void_average_x
  _platon_squeeze_void_average_y
  _platon_squeeze_void_average_z
  _platon_squeeze_void_volume
  _platon_squeeze_void_count_electrons
  _platon_squeeze_void_content
   1 -0.043  0.356  0.440        29         2 ' '
   2  0.000  0.337  0.667       204        41 ' '
   3  0.043  0.400  0.893        29         3 ' '
   4  0.337  1.000  0.333       204        41 ' '
   5  0.356  0.957  0.560        28         2 ' '
   6  0.400  1.043  0.107        29         2 ' '
   7  0.663  0.663  0.000       203        41 ' '
   8  0.600  0.643  0.227        29         3 ' '
   9  0.643  0.600  0.773        29         2 ' '
# Missing Reflections Below sin(th)/lambda = 0.25
loop_
  _platon_missing_refln_index_h
  _platon_missing_refln_index_k
  _platon_missing_refln_index_l
  _platon_missing_refln_theta
    0    1    0     1.843
    0    2    0     3.689
   -1    1    1     1.960
    0    1    1     1.960
   -1    1    2     2.273
    0    1    2     2.273
    0    0    3     1.994
   -1    1    3     2.716
    0    1    3     2.716
   -2    2    4     4.550
    0    1    5     3.803
    0    0    6     3.991
_platon_squeeze_void_probe_radius                  1.20
_platon_squeeze_details
)
TITL rafa1_a.res in P3(1)21
CELL   12.7557   12.7557   30.6370     90.00     90.00    120.00
SPGR P3121
# Solvent Accessible Volume =       783
# Electrons Found in S.A.V. =       136
# Note: Atoms in Void as Cxxx and Qxxx all others
C101 0.989 0.294 0.665 !       1.90 eA-3
C102 0.368 0.066 0.353 !       1.44 eA-3
C103 0.687 0.671 0.029 !       1.44 eA-3
C104 0.328 0.120 0.342 !       1.35 eA-3
C105 0.590 0.594 0.041 !       1.32 eA-3
C106 0.686 0.795 1.001 !       1.32 eA-3
C107 0.372 0.123 0.384 !       1.24 eA-3
C108 0.722 0.767 0.981 !       1.24 eA-3
C109 0.842 0.676 0.983 !       1.20 eA-3
C110 0.042 0.263 0.676 !       1.17 eA-3
C111 0.803 0.170 0.702 !       1.12 eA-3
C112 0.543 0.551 0.006 !       1.12 eA-3
C113 0.547 0.595 0.972 !       1.10 eA-3
C114 0.595 0.678 0.961 !       1.07 eA-3
C115 0.833 0.158 0.688 !       1.05 eA-3
Q116 0.818 0.092 0.631 !       1.04 eA-3
Q117 0.170 0.852 0.384 !       1.01 eA-3
Q118 0.026 0.475 0.854 !       1.01 eA-3
C119 0.957 0.243 0.626 !       1.00 eA-3
C120 0.360 0.950 0.347 !       0.93 eA-3
Q121 0.360 0.208 0.295 !       0.90 eA-3
C122 0.359 0.049 0.271 !       0.89 eA-3
Q123 0.793 0.812 0.072 !       0.86 eA-3
Q124 0.237 0.097 0.297 !       0.85 eA-3
Q125 0.153 0.877 0.295 !       0.82 eA-3
Q126 0.546 0.559 0.212 !       0.79 eA-3
Q127 0.332 0.066 0.601 !       0.79 eA-3
Q128 0.513 0.509 0.040 !       0.78 eA-3
Q129 0.618 0.595 0.211 !       0.76 eA-3
C130 0.855 0.749 0.023 !       0.74 eA-3
C131 0.534 0.606 0.068 !       0.74 eA-3
C132 0.074 0.332 0.712 !       0.73 eA-3
C133 0.449 0.293 0.391 !       0.73 eA-3
C134 0.985 0.403 0.904 !       0.72 eA-3
Q135 0.543 0.035 0.369 !       0.66 eA-3
Q136 0.388 0.146 0.264 !       0.65 eA-3
Q137 0.764 0.815 0.946 !       0.64 eA-3
C138 0.859 0.811 0.001 !       0.64 eA-3
C139 0.425 0.109 0.257 !       0.64 eA-3
Q140 0.395 0.888 0.501 !       0.63 eA-3
Q141 0.073 0.432 0.581 !       0.62 eA-3
Q142 0.924 0.356 0.760 !       0.61 eA-3
Q143 0.561 0.028 0.296 !       0.60 eA-3
C144 0.092 0.421 0.696 !       0.60 eA-3
Q145 0.954 0.206 0.209 !       0.59 eA-3
Q146 0.224 0.906 0.413 !       0.59 eA-3
Q147 0.488 0.535 0.828 !       0.57 eA-3
Q148 0.067 0.185 0.139 !       0.56 eA-3
Q149 0.831 0.391 0.132 !       0.54 eA-3
Q150 0.591 0.924 0.960 !       0.54 eA-3
C151 0.357 0.936 0.547 !       0.53 eA-3
C152 0.188 0.999 0.308 !       0.52 eA-3
Q153 0.623 0.470 0.412 !       0.52 eA-3
C154 0.936 0.734 0.017 !       0.52 eA-3
Q155 0.484 0.765 0.719 !       0.52 eA-3
Q156 0.138 0.453 0.603 !       0.51 eA-3
Q157 0.561 0.903 0.994 !       0.51 eA-3
Q158 0.283 0.636 0.312 !       0.51 eA-3
Q159 0.705 0.387 0.646 !       0.51 eA-3
Q160 0.810 0.233 0.994 !       0.51 eA-3
Q161 0.223 0.499 0.388 !       0.50 eA-3
Q162 0.099 0.761 0.292 !       0.50 eA-3
)
;
_shelx_shelxl_version_number     2014/7
_olex2_submission_special_instructions 'No special instructions were received'
loop_
_space_group_symop_operation_xyz
'x, y, z'
'-y, x-y, z+1/3'
'-x+y, -x, z+2/3'
'y, x, -z'
'x-y, -y, -z+2/3'
'-x, -x+y, -z+1/3'
loop_
_atom_site_label
_atom_site_type_symbol
_atom_site_fract_x
_atom_site_fract_y
_atom_site_fract_z
_atom_site_U_iso_or_equiv
_atom_site_adp_type
_atom_site_occupancy
_atom_site_site_symmetry_order
_atom_site_calc_flag
_atom_site_refinement_flags_posn
_atom_site_refinement_flags_adp
_atom_site_refinement_flags_occupancy
_atom_site_disorder_assembly
_atom_site_disorder_group
Zn1 Zn 0.60819(10) 0.46880(9) 0.49122(3) 0.0481(3) Uani 1 1 d . . . . .
Zn2 Zn 0.70709(10) 0.72637(13) 0.44872(3) 0.0621(4) Uani 1 1 d . . . . .
O6 O 0.6270(6) 0.6270(6) 0.5000 0.042(2) Uani 1 2 d S T P A .
O4 O 0.6815(8) 0.4498(8) 0.4391(2) 0.073(2) Uani 1 1 d . U . . .
O3 O 0.7433(9) 0.6326(8) 0.4070(3) 0.084(3) Uani 1 1 d . U . . .
O5 O 1.3496(7) 1.4337(7) 0.5204(3) 0.072(2) Uani 1 1 d . U . . .
O1 O 0.8490(9) 0.2790(9) 0.2512(3) 0.087(3) Uani 1 1 d . U . . .
O2 O 0.7736(8) 0.3738(8) 0.2119(2) 0.076(2) Uani 1 1 d . U . . .
C0AA C 0.7987(11) 0.3420(11) 0.2481(4) 0.066(3) Uani 1 1 d . U . . .
C10 C 0.7199(10) 0.5225(12) 0.4062(3) 0.067(3) Uani 1 1 d . U . . .
C9 C 0.7451(13) 0.4737(14) 0.3646(4) 0.083(3) Uani 1 1 d . U . . .
C11 C 1.3478(10) 1.3478(10) 0.5000 0.068(4) Uani 1 2 d S TU P . .
C2 C 0.7686(12) 0.3823(14) 0.2895(4) 0.081(3) Uani 1 1 d . U . . .
O8 O 0.8540(12) 0.8689(11) 0.4503(5) 0.058(4) Uani 0.5 1 d . U . A -1
C12 C 1.2290(12) 1.2290(12) 0.5000 0.077(4) Uani 1 2 d S TU P . .
N11S N 0.799(2) 0.949(2) 0.3336(7) 0.081(6) Uani 0.5 1 d D U . A -3
O7 O 0.8361(19) 0.8749(17) 0.5190(6) 0.103(8) Uani 0.5 1 d . U . A -1
C3 C 0.8660(17) 0.5098(17) 0.2983(5) 0.116(6) Uani 1 1 d D U . . .
H3A H 0.8604 0.5637 0.2763 0.140 Uiso 1 1 calc R . . . .
H3B H 0.9458 0.5154 0.2948 0.140 Uiso 1 1 calc R . . . .
O11S O 0.7891(19) 0.8901(16) 0.4044(5) 0.088(5) Uani 0.5 1 d . U . A -3
C8 C 0.8589(17) 0.5552(19) 0.3443(5) 0.123(6) Uani 1 1 d D U . . .
H8A H 0.9260 0.5617 0.3625 0.147 Uiso 1 1 calc R . . . .
H8B H 0.8679 0.6367 0.3421 0.147 Uiso 1 1 calc R . . . .
C7 C 0.737(2) 0.354(2) 0.3719(5) 0.151(7) Uani 1 1 d D U . . .
H7A H 0.6557 0.2944 0.3829 0.182 Uiso 1 1 calc R . . . .
H7B H 0.7976 0.3621 0.3940 0.182 Uiso 1 1 calc R . . . .
C6 C 0.6466(17) 0.445(2) 0.3321(5) 0.131(6) Uani 1 1 d D U . . .
H6A H 0.6510 0.5209 0.3222 0.157 Uiso 1 1 calc R . . . .
H6B H 0.5668 0.3940 0.3460 0.157 Uiso 1 1 calc R . . . .
C5 C 0.762(2) 0.3070(19) 0.3279(5) 0.139(6) Uani 1 1 d D U . . .
H5A H 0.8391 0.3066 0.3304 0.166 Uiso 1 1 calc R . . . .
H5B H 0.6965 0.2226 0.3229 0.166 Uiso 1 1 calc R . . . .
C4 C 0.6595(18) 0.376(2) 0.2916(6) 0.151(7) Uani 1 1 d D U . . .
H4A H 0.5952 0.2900 0.2931 0.181 Uiso 1 1 calc R . . . .
H4B H 0.6471 0.4109 0.2646 0.181 Uiso 1 1 calc R . . . .
C13 C 1.118(2) 1.257(2) 0.4923(10) 0.082(6) Uani 0.5 1 d D U . A -1
H13A H 1.1214 1.3172 0.5127 0.099 Uiso 0.5 1 d R . . A -1
H13B H 1.1199 1.2851 0.4627 0.099 Uiso 0.5 1 d R . . A -1
C15 C 1.224(2) 1.158(2) 0.4550(10) 0.088(7) Uani 0.5 1 d D U . A -1
H15A H 1.2539 1.2117 0.4300 0.106 Uiso 0.5 1 d R . . A -1
H15B H 1.2764 1.1235 0.4593 0.106 Uiso 0.5 1 d R . . A -1
C11S C 0.777(3) 0.873(3) 0.3678(8) 0.095(8) Uani 0.5 1 d . U . A -3
H11S H 0.7451 0.7902 0.3598 0.114 Uiso 0.5 1 calc R . . A -3
C14 C 1.210(2) 1.155(2) 0.5342(11) 0.094(7) Uani 0.5 1 d D U . A -1
H14A H 1.2023 1.1910 0.5609 0.113 Uiso 0.5 1 d R . . A -1
H14B H 1.2811 1.1456 0.5369 0.113 Uiso 0.5 1 d R . . A -1
C20 C 0.895(2) 0.910(2) 0.4873(7) 0.074(7) Uani 0.5 1 d . U . . .
C19 C 1.014(2) 1.033(2) 0.4889(9) 0.077(6) Uani 0.5 1 d . U . A -1
C18 C 1.092(2) 1.051(2) 0.4474(10) 0.089(7) Uani 0.5 1 d D U . A -1
H18A H 1.0588 1.0717 0.4226 0.107 Uiso 0.5 1 d R . . A -1
H18B H 1.0907 0.9758 0.4406 0.107 Uiso 0.5 1 d R . . A -1
C17 C 1.099(3) 1.024(2) 0.5273(12) 0.097(8) Uani 0.5 1 d D U . A -1
H17A H 1.0512 0.9991 0.5539 0.117 Uiso 0.5 1 d R . . A -1
H17B H 1.1226 0.9644 0.5205 0.117 Uiso 0.5 1 d R . . A -1
C16 C 1.003(2) 1.128(2) 0.4971(13) 0.095(8) Uani 0.5 1 d D U . A -1
H16A H 0.9828 1.1226 0.5278 0.114 Uiso 0.5 1 d R . . A -1
H16B H 0.9363 1.1241 0.4808 0.114 Uiso 0.5 1 d R . . A -1
O21S O 0.673(2) 0.8753(18) 0.4882(6) 0.096(6) Uani 0.5 1 d D U . A .
C21S C 0.660(4) 0.957(3) 0.4731(11) 0.136(14) Uani 0.5 1 d D U . . .
H21S H 0.6759 0.9739 0.4428 0.163 Uiso 0.5 1 calc R . . A .
C24S C 0.653(5) 1.039(5) 0.5403(12) 0.172(15) Uani 0.5 1 d D U . . .
H24A H 0.5757 0.9929 0.5566 0.206 Uiso 0.5 1 calc R . . A 1
H24B H 0.6865 1.1257 0.5482 0.206 Uiso 0.5 1 calc R . . A 1
N21S N 0.625(5) 1.027(3) 0.4956(11) 0.175(12) Uani 0.5 1 d D U . A .
C22S C 0.643(4) 1.138(3) 0.4765(15) 0.164(14) Uani 0.5 1 d D U . . .
H22A H 0.6725 1.1458 0.4460 0.196 Uiso 0.5 1 calc R . . A .
H22B H 0.7027 1.2085 0.4935 0.196 Uiso 0.5 1 calc R . . . .
C12S C 0.762(3) 0.911(3) 0.2886(7) 0.118(10) Uani 0.5 1 d D U . A -3
H12A H 0.7313 0.8224 0.2866 0.141 Uiso 0.5 1 calc R . . A -3
H12B H 0.8349 0.9516 0.2698 0.141 Uiso 0.5 1 calc R . . A -3
C13S C 0.667(3) 0.937(4) 0.2710(12) 0.143(13) Uani 0.5 1 d D U . A -3
H13C H 0.6478 0.9083 0.2408 0.214 Uiso 0.5 1 calc R . . A -3
H13D H 0.5934 0.8945 0.2889 0.214 Uiso 0.5 1 calc R . . A -3
H13E H 0.6973 1.0240 0.2720 0.214 Uiso 0.5 1 calc R . . A -3
C23S C 0.520(4) 1.125(5) 0.478(2) 0.23(3) Uani 0.5 1 d D U . A .
H23A H 0.5236 1.1972 0.4656 0.344 Uiso 0.5 1 calc R . . . .
H23B H 0.4630 1.0534 0.4614 0.344 Uiso 0.5 1 calc R . . . .
H23C H 0.4930 1.1157 0.5086 0.344 Uiso 0.5 1 calc R . . . .
C14S C 0.870(5) 1.072(5) 0.347(3) 0.28(5) Uani 0.5 1 d D U . A -3
H14C H 0.8457 1.0757 0.3776 0.333 Uiso 0.5 1 calc R . . A -3
H14D H 0.8422 1.1187 0.3293 0.333 Uiso 0.5 1 calc R . . A -3
C15S C 1.010(4) 1.144(5) 0.3461(16) 0.18(2) Uani 0.5 1 d D . . A -3
H15C H 1.0390 1.2263 0.3567 0.274 Uiso 0.5 1 calc R . . A -3
H15D H 1.0413 1.1035 0.3648 0.274 Uiso 0.5 1 calc R . . A -3
H15E H 1.0377 1.1469 0.3160 0.274 Uiso 0.5 1 calc R . . A -3
C25S C 0.738(6) 1.001(7) 0.556(2) 0.24(2) Uani 0.5 1 d D U . A 1
H25A H 0.7488 1.0138 0.5876 0.354 Uiso 0.5 1 calc R . . A 1
H25B H 0.7043 0.9144 0.5497 0.354 Uiso 0.5 1 calc R . . A 1
H25C H 0.8156 1.0478 0.5412 0.354 Uiso 0.5 1 calc R . . A 1
loop_
_atom_site_aniso_label
_atom_site_aniso_U_11
_atom_site_aniso_U_22
_atom_site_aniso_U_33
_atom_site_aniso_U_23
_atom_site_aniso_U_13
_atom_site_aniso_U_12
Zn1 0.0480(6) 0.0447(6) 0.0308(5) 0.0017(4) 0.0072(5) 0.0074(5)
Zn2 0.0446(6) 0.0821(9) 0.0271(5) 0.0128(6) 0.0009(4) 0.0072(6)
O6 0.039(3) 0.039(3) 0.020(3) -0.0012(18) 0.0012(18) -0.001(3)
O4 0.089(6) 0.083(5) 0.043(4) 0.007(3) 0.026(4) 0.042(5)
O3 0.111(7) 0.079(5) 0.056(5) 0.016(4) 0.030(4) 0.044(5)
O5 0.050(4) 0.048(4) 0.081(5) -0.013(4) 0.020(4) -0.003(3)
O1 0.108(7) 0.124(8) 0.051(4) 0.019(5) 0.031(4) 0.074(6)
O2 0.089(6) 0.104(6) 0.042(4) -0.001(4) 0.006(4) 0.053(5)
C0AA 0.067(7) 0.077(7) 0.049(5) 0.000(4) 0.009(4) 0.032(6)
C10 0.064(6) 0.083(6) 0.041(4) 0.007(4) 0.016(4) 0.026(5)
C9 0.091(8) 0.107(8) 0.052(5) -0.002(5) 0.022(5) 0.050(7)
C11 0.047(4) 0.047(4) 0.070(9) -0.011(4) 0.011(4) -0.006(5)
C2 0.081(7) 0.102(8) 0.056(5) -0.005(5) 0.024(5) 0.042(6)
O8 0.044(7) 0.036(6) 0.062(7) 0.013(5) -0.006(6) -0.004(5)
C12 0.049(5) 0.049(5) 0.099(10) -0.012(4) 0.012(4) -0.001(6)
N11S 0.100(15) 0.073(11) 0.061(8) 0.034(9) 0.037(9) 0.036(10)
O7 0.080(11) 0.064(10) 0.066(8) -0.012(7) 0.021(8) -0.039(10)
C3 0.124(10) 0.120(9) 0.088(8) -0.015(7) 0.032(8) 0.048(8)
O11S 0.133(16) 0.076(10) 0.052(7) 0.017(7) 0.025(8) 0.051(11)
C8 0.118(10) 0.132(11) 0.099(9) -0.022(8) 0.031(7) 0.049(8)
C7 0.24(2) 0.160(11) 0.078(8) -0.001(8) 0.045(10) 0.121(13)
C6 0.134(11) 0.193(16) 0.081(8) -0.053(9) -0.002(7) 0.093(11)
C5 0.213(19) 0.144(12) 0.070(7) 0.000(7) 0.049(8) 0.099(12)
C4 0.134(10) 0.236(18) 0.103(9) -0.074(11) 0.003(8) 0.107(11)
C13 0.051(8) 0.049(9) 0.110(17) -0.017(9) 0.003(9) -0.002(7)
C15 0.058(10) 0.055(10) 0.108(12) -0.024(9) 0.013(8) -0.005(8)
C11S 0.14(2) 0.094(15) 0.058(8) 0.026(8) 0.036(9) 0.063(15)
C14 0.056(11) 0.066(10) 0.114(12) -0.001(8) -0.004(9) -0.004(9)
C20 0.046(9) 0.054(10) 0.062(9) 0.005(7) 0.007(6) -0.020(9)
C19 0.044(8) 0.048(8) 0.094(14) -0.006(7) 0.002(7) -0.011(7)
C18 0.058(10) 0.053(11) 0.110(13) -0.012(9) 0.007(8) -0.008(9)
C17 0.064(11) 0.059(11) 0.118(16) 0.003(9) -0.007(10) -0.008(10)
C16 0.055(10) 0.055(9) 0.13(2) -0.012(9) 0.004(10) -0.004(8)
O21S 0.135(17) 0.093(13) 0.076(11) 0.005(10) 0.023(11) 0.068(13)
C21S 0.21(4) 0.12(2) 0.120(17) 0.011(15) 0.016(19) 0.12(3)
C24S 0.23(3) 0.17(3) 0.152(17) -0.013(17) 0.018(19) 0.12(3)
N21S 0.28(3) 0.17(2) 0.163(18) -0.024(16) 0.003(19) 0.17(2)
C22S 0.24(4) 0.16(2) 0.17(2) -0.011(19) 0.02(3) 0.15(3)
C12S 0.13(2) 0.11(2) 0.065(10) 0.028(11) 0.026(11) 0.027(17)
C13S 0.15(2) 0.13(3) 0.107(19) 0.058(19) 0.022(16) 0.03(2)
C23S 0.23(4) 0.15(4) 0.38(8) 0.04(4) 0.04(3) 0.15(3)
C14S 0.28(5) 0.28(5) 0.28(5) 0.008(14) -0.007(14) 0.14(3)
C15S 0.12(3) 0.25(6) 0.15(4) 0.04(4) 0.04(3) 0.07(4)
C25S 0.24(3) 0.24(3) 0.25(3) 0.014(13) -0.001(12) 0.135(17)
loop_
_atom_type_symbol
_atom_type_description
_atom_type_scat_dispersion_real
_atom_type_scat_dispersion_imag
_atom_type_scat_source
C C 0.0033 0.0016 'International Tables Vol C Tables 4.2.6.8 and 6.1.1.4'
H H 0.0000 0.0000 'International Tables Vol C Tables 4.2.6.8 and 6.1.1.4'
N N 0.0061 0.0033 'International Tables Vol C Tables 4.2.6.8 and 6.1.1.4'
O O 0.0106 0.0060 'International Tables Vol C Tables 4.2.6.8 and 6.1.1.4'
Zn Zn 0.2839 1.4301 'International Tables Vol C Tables 4.2.6.8 and 6.1.1.4'
loop_
_geom_angle_atom_site_label_1
_geom_angle_atom_site_label_2
_geom_angle_atom_site_label_3
_geom_angle
_geom_angle_site_symmetry_1
_geom_angle_site_symmetry_3
Zn1 Zn1 Zn2 61.53(4) 4_556 .
O6 Zn1 Zn1 35.85(19) . 4_556
O6 Zn1 Zn2 36.03(10) . .
O6 Zn1 O5 109.2(3) . 4_446
O6 Zn1 O2 112.0(3) . 2_655
O4 Zn1 Zn1 131.6(3) . 4_556
O4 Zn1 Zn2 79.8(3) . .
O4 Zn1 O6 115.7(3) . .
O4 Zn1 O5 100.4(3) . 4_446
O4 Zn1 O2 118.3(4) . 2_655
O5 Zn1 Zn1 74.4(2) 4_446 4_556
O5 Zn1 Zn2 115.6(3) 4_446 .
O2 Zn1 Zn1 109.9(3) 2_655 4_556
O2 Zn1 Zn2 138.5(3) 2_655 .
O2 Zn1 O5 98.4(4) 2_655 4_446
O6 Zn2 Zn1 35.46(10) . .
O6 Zn2 O3 109.6(3) . .
O6 Zn2 O1 102.9(3) . 5_565
O6 Zn2 O11S 158.6(5) . .
O6 Zn2 O21S 82.4(5) . .
O3 Zn2 Zn1 74.1(2) . .
O3 Zn2 O1 96.7(4) . 5_565
O3 Zn2 O11S 91.8(5) . .
O3 Zn2 O21S 167.8(5) . .
O1 Zn2 Zn1 106.7(3) 5_565 .
O1 Zn2 O11S 73.6(6) 5_565 .
O1 Zn2 O21S 77.8(6) 5_565 .
O8 Zn2 Zn1 134.0(5) . .
O8 Zn2 O6 124.1(5) . .
O8 Zn2 O3 100.7(6) . .
O8 Zn2 O1 119.2(6) . 5_565
O8 Zn2 O21S 73.2(7) . .
O11S Zn2 Zn1 165.9(4) . .
O11S Zn2 O21S 76.2(6) . .
O21S Zn2 Zn1 117.8(5) . .
Zn1 O6 Zn1 108.3(4) 4_556 .
Zn1 O6 Zn2 111.58(5) . 4_556
Zn1 O6 Zn2 108.51(5) . .
Zn1 O6 Zn2 108.51(5) 4_556 4_556
Zn1 O6 Zn2 111.58(5) 4_556 .
Zn2 O6 Zn2 108.4(4) . 4_556
C10 O4 Zn1 126.3(8) . .
C10 O3 Zn2 133.3(7) . .
C11 O5 Zn1 123.7(7) . 4_666
C0AA O1 Zn2 133.7(8) . 5_665
C0AA O2 Zn1 124.0(8) . 3_664
O1 C0AA O2 124.0(11) . .
O1 C0AA C2 117.2(11) . .
O2 C0AA C2 118.9(12) . .
O4 C10 C9 116.3(12) . .
O3 C10 O4 124.7(10) . .
O3 C10 C9 119.0(10) . .
C8 C9 C10 114.2(12) . .
C8 C9 C7 109.3(16) . .
C8 C9 C6 107.9(14) . .
C7 C9 C10 112.0(11) . .
C6 C9 C10 109.6(11) . .
C6 C9 C7 103.2(16) . .
O5 C11 O5 127.0(12) 4_556 .
O5 C11 C12 116.5(6) . .
O5 C11 C12 116.5(6) 4_556 .
C0AA C2 C3 108.1(11) . .
C0AA C2 C5 113.0(13) . .
C5 C2 C3 107.9(15) . .
C4 C2 C0AA 117.0(13) . .
C4 C2 C3 108.9(17) . .
C4 C2 C5 101.4(15) . .
C20 O8 Zn2 116.5(13) . .
C11 C12 C13 108.7(9) . .
C11 C12 C15 107.2(9) . .
C15 C12 C13 101.9(16) . .
C14 C12 C11 116.0(12) . .
C14 C12 C13 113.3(17) . .
C14 C12 C15 108.6(19) . .
C11S N11S C12S 125(2) . .
C11S N11S C14S 111(5) . .
C14S N11S C12S 124(4) . .
C2 C3 H3A 108.9 . .
C2 C3 H3B 108.9 . .
C2 C3 C8 113.5(14) . .
H3A C3 H3B 107.7 . .
C8 C3 H3A 108.9 . .
C8 C3 H3B 108.9 . .
C11S O11S Zn2 117(2) . .
C9 C8 C3 110.6(15) . .
C9 C8 H8A 109.5 . .
C9 C8 H8B 109.5 . .
C3 C8 H8A 109.5 . .
C3 C8 H8B 109.5 . .
H8A C8 H8B 108.1 . .
C9 C7 H7A 109.7 . .
C9 C7 H7B 109.7 . .
C9 C7 C5 109.7(14) . .
H7A C7 H7B 108.2 . .
C5 C7 H7A 109.7 . .
C5 C7 H7B 109.7 . .
C9 C6 H6A 109.5 . .
C9 C6 H6B 109.5 . .
C9 C6 C4 110.6(15) . .
H6A C6 H6B 108.1 . .
C4 C6 H6A 109.5 . .
C4 C6 H6B 109.5 . .
C2 C5 C7 113.0(16) . .
C2 C5 H5A 109.0 . .
C2 C5 H5B 109.0 . .
C7 C5 H5A 109.0 . .
C7 C5 H5B 109.0 . .
H5A C5 H5B 107.8 . .
C2 C4 C6 113.3(16) . .
C2 C4 H4A 108.9 . .
C2 C4 H4B 108.9 . .
C6 C4 H4A 108.9 . .
C6 C4 H4B 108.9 . .
H4A C4 H4B 107.7 . .
C12 C13 H13A 111.9 . .
C12 C13 H13B 110.1 . .
H13A C13 H13B 109.5 . .
C16 C13 C12 102(2) . .
C16 C13 H13A 114.9 . .
C16 C13 H13B 108.2 . .
C12 C15 H15A 112.3 . .
C12 C15 H15B 107.1 . .
H15A C15 H15B 108.5 . .
C18 C15 C12 109.3(19) . .
C18 C15 H15A 111.5 . .
C18 C15 H15B 108.0 . .
N11S C11S H11S 114.3 . .
O11S C11S N11S 131(3) . .
O11S C11S H11S 114.3 . .
C12 C14 H14A 110.1 . .
C12 C14 H14B 107.7 . .
C12 C14 C17 113(3) . .
H14A C14 H14B 108.1 . .
C17 C14 H14A 111.2 . .
C17 C14 H14B 106.6 . .
O8 C20 C19 116.8(19) . .
O7 C20 O8 122.1(19) . .
O7 C20 C19 119(2) . .
C20 C20 O8 146(5) 4_556 .
C20 C20 O7 48(3) 4_556 .
C20 C20 C19 89.1(13) 4_556 .
C20 C19 C18 110(2) . .
C20 C19 C17 107(2) . .
C18 C19 C17 101(3) . .
C16 C19 C20 117(3) . .
C16 C19 C18 112(3) . .
C16 C19 C17 108(2) . .
C15 C18 H18A 107.6 . .
C15 C18 H18B 111.5 . .
C19 C18 C15 110(2) . .
C19 C18 H18A 110.0 . .
C19 C18 H18B 110.1 . .
H18A C18 H18B 107.9 . .
C14 C17 C19 107(3) . .
C14 C17 H17A 108.8 . .
C14 C17 H17B 112.9 . .
C19 C17 H17A 107.2 . .
C19 C17 H17B 112.2 . .
H17A C17 H17B 108.3 . .
C13 C16 H16A 103.9 . .
C13 C16 H16B 109.7 . .
C19 C16 C13 119(3) . .
C19 C16 H16A 105.7 . .
C19 C16 H16B 110.5 . .
H16A C16 H16B 107.1 . .
C21S O21S Zn2 128.4(19) . .
O21S C21S H21S 116.8 . .
O21S C21S N21S 126(3) . .
N21S C21S H21S 116.8 . .
H24A C24S H24B 107.2 . .
N21S C24S H24A 107.9 . .
N21S C24S H24B 107.9 . .
N21S C24S C25S 118(5) . .
C25S C24S H24A 107.9 . .
C25S C24S H24B 107.9 . .
C21S N21S C24S 115(3) . .
C21S N21S C22S 119(3) . .
C24S N21S C22S 112(4) . .
N21S C22S H22A 111.1 . .
N21S C22S H22B 111.1 . .
N21S C22S C23S 103(3) . .
H22A C22S H22B 109.0 . .
C23S C22S H22A 111.1 . .
C23S C22S H22B 111.1 . .
N11S C12S H12A 108.5 . .
N11S C12S H12B 108.5 . .
N11S C12S C13S 115(3) . .
H12A C12S H12B 107.5 . .
C13S C12S H12A 108.5 . .
C13S C12S H12B 108.5 . .
C12S C13S H13C 109.5 . .
C12S C13S H13D 109.5 . .
C12S C13S H13E 109.5 . .
H13C C13S H13D 109.5 . .
H13C C13S H13E 109.5 . .
H13D C13S H13E 109.5 . .
C22S C23S H23A 109.5 . .
C22S C23S H23B 109.5 . .
C22S C23S H23C 109.5 . .
H23A C23S H23B 109.5 . .
H23A C23S H23C 109.5 . .
H23B C23S H23C 109.5 . .
N11S C14S H14C 106.5 . .
N11S C14S H14D 106.5 . .
N11S C14S C15S 123(5) . .
H14C C14S H14D 106.5 . .
C15S C14S H14C 106.5 . .
C15S C14S H14D 106.5 . .
C14S C15S H15C 109.5 . .
C14S C15S H15D 109.5 . .
C14S C15S H15E 109.5 . .
H15C C15S H15D 109.5 . .
H15C C15S H15E 109.5 . .
H15D C15S H15E 109.5 . .
C24S C25S H25A 109.5 . .
C24S C25S H25B 109.5 . .
C24S C25S H25C 109.5 . .
H25A C25S H25B 109.5 . .
H25A C25S H25C 109.5 . .
H25B C25S H25C 109.5 . .
loop_
_geom_bond_atom_site_label_1
_geom_bond_atom_site_label_2
_geom_bond_distance
_geom_bond_site_symmetry_2
Zn1 Zn1 3.126(2) 4_556
Zn1 Zn2 3.1523(17) .
Zn1 O6 1.929(5) .
Zn1 O4 1.926(7) .
Zn1 O5 2.002(7) 4_446
Zn1 O2 1.940(8) 2_655
Zn2 O6 1.955(5) .
Zn2 O3 1.957(9) .
Zn2 O1 1.995(8) 5_565
Zn2 O8 1.848(12) .
Zn2 O11S 2.261(16) .
Zn2 O21S 2.467(18) .
O6 Zn1 1.928(5) 4_556
O6 Zn2 1.955(5) 4_556
O4 C10 1.289(13) .
O3 C10 1.282(15) .
O5 Zn1 2.002(7) 4_666
O5 C11 1.253(9) .
O1 Zn2 1.995(8) 5_665
O1 C0AA 1.258(14) .
O2 Zn1 1.940(8) 3_664
O2 C0AA 1.275(14) .
C0AA C2 1.491(16) .
C10 C9 1.520(15) .
C9 C8 1.44(2) .
C9 C7 1.50(2) .
C9 C6 1.50(2) .
C11 O5 1.253(9) 4_556
C11 C12 1.52(2) .
C2 C3 1.50(2) .
C2 C5 1.49(2) .
C2 C4 1.36(2) .
O8 C20 1.25(3) .
C12 C13 1.65(3) .
C12 C15 1.64(3) .
C12 C14 1.35(3) .
N11S C11S 1.36(3) .
N11S C12S 1.46(2) .
N11S C14S 1.431(18) .
O7 C20 1.17(3) .
C3 H3A 0.9900 .
C3 H3B 0.9900 .
C3 C8 1.542(17) .
O11S C11S 1.14(3) .
C8 H8A 0.9900 .
C8 H8B 0.9900 .
C7 H7A 0.9900 .
C7 H7B 0.9900 .
C7 C5 1.567(17) .
C6 H6A 0.9900 .
C6 H6B 0.9900 .
C6 C4 1.574(17) .
C5 H5A 0.9900 .
C5 H5B 0.9900 .
C4 H4A 0.9900 .
C4 H4B 0.9900 .
C13 H13A 0.9704 .
C13 H13B 0.9698 .
C13 C16 1.57(2) .
C15 H15A 0.9708 .
C15 H15B 0.9694 .
C15 C18 1.57(2) .
C11S H11S 0.9500 .
C14 H14A 0.9700 .
C14 H14B 0.9705 .
C14 C17 1.57(2) .
C20 C20 0.85(5) 4_556
C20 C19 1.54(3) .
C19 C18 1.56(4) .
C19 C17 1.65(5) .
C19 C16 1.30(5) .
C18 H18A 0.9697 .
C18 H18B 0.9703 .
C17 H17A 0.9693 .
C17 H17B 0.9705 .
C16 H16A 0.9697 .
C16 H16B 0.9703 .
O21S C21S 1.23(2) .
C21S H21S 0.9500 .
C21S N21S 1.365(18) .
C24S H24A 0.9900 .
C24S H24B 0.9900 .
C24S N21S 1.405(19) .
C24S C25S 1.479(19) .
N21S C22S 1.430(19) .
C22S H22A 0.9900 .
C22S H22B 0.9900 .
C22S C23S 1.501(19) .
C12S H12A 0.9900 .
C12S H12B 0.9900 .
C12S C13S 1.51(3) .
C13S H13C 0.9800 .
C13S H13D 0.9800 .
C13S H13E 0.9800 .
C23S H23A 0.9800 .
C23S H23B 0.9800 .
C23S H23C 0.9800 .
C14S H14C 0.9900 .
C14S H14D 0.9900 .
C14S C15S 1.55(3) .
C15S H15C 0.9800 .
C15S H15D 0.9800 .
C15S H15E 0.9800 .
C25S H25A 0.9800 .
C25S H25B 0.9800 .
C25S H25C 0.9800 .
loop_
_geom_torsion_atom_site_label_1
_geom_torsion_atom_site_label_2
_geom_torsion_atom_site_label_3
_geom_torsion_atom_site_label_4
_geom_torsion
_geom_torsion_site_symmetry_1
_geom_torsion_site_symmetry_4
Zn1 Zn2 O8 C20 -54(2) . .
Zn1 O4 C10 O3 18.2(18) . .
Zn1 O4 C10 C9 -165.3(8) . .
Zn1 O5 C11 O5 22.5(4) 4_666 4_556
Zn1 O5 C11 C12 -157.5(4) 4_666 .
Zn1 O2 C0AA O1 -26.3(17) 3_664 .
Zn1 O2 C0AA C2 152.9(9) 3_664 .
Zn2 O3 C10 O4 -13(2) . .
Zn2 O3 C10 C9 170.4(9) . .
Zn2 O1 C0AA O2 38.5(19) 5_665 .
Zn2 O1 C0AA C2 -140.7(10) 5_665 .
Zn2 O8 C20 O7 -14(4) . .
Zn2 O8 C20 C20 47(10) . 4_556
Zn2 O8 C20 C19 -176(2) . .
Zn2 O11S C11S N11S 169(3) . .
Zn2 O21S C21S N21S 170(4) . .
O6 Zn2 O8 C20 -9(2) . .
O4 C10 C9 C8 -133.4(15) . .
O4 C10 C9 C7 -8.4(19) . .
O4 C10 C9 C6 105.4(15) . .
O3 Zn2 O8 C20 -132(2) . .
O3 C10 C9 C8 43.3(19) . .
O3 C10 C9 C7 168.3(15) . .
O3 C10 C9 C6 -77.9(17) . .
O5 C11 C12 C13 -137.3(12) 4_556 .
O5 C11 C12 C13 42.7(12) . .
O5 C11 C12 C15 152.1(15) . .
O5 C11 C12 C15 -27.9(15) 4_556 .
O5 C11 C12 C14 -86.4(19) . .
O5 C11 C12 C14 93.6(19) 4_556 .
O1 Zn2 O8 C20 124(2) 5_565 .
O1 C0AA C2 C3 98.7(16) . .
O1 C0AA C2 C5 -20.7(19) . .
O1 C0AA C2 C4 -138.0(18) . .
O2 C0AA C2 C3 -80.6(17) . .
O2 C0AA C2 C5 160.0(15) . .
O2 C0AA C2 C4 43(2) . .
C0AA C2 C3 C8 -169.6(16) . .
C0AA C2 C5 C7 176.9(16) . .
C0AA C2 C4 C6 -167.9(16) . .
C10 C9 C8 C3 -169.0(15) . .
C10 C9 C7 C5 179.1(15) . .
C10 C9 C6 C4 -171.4(16) . .
C9 C7 C5 C2 -8(3) . .
C9 C6 C4 C2 -15(3) . .
C11 C12 C13 C16 -175.6(19) . .
C11 C12 C15 C18 -166(2) . .
C11 C12 C14 C17 -168(2) . .
C2 C3 C8 C9 -13(3) . .
O8 C20 C19 C18 -29(4) . .
O8 C20 C19 C17 -139(3) . .
O8 C20 C19 C16 101(4) . .
C12 C13 C16 C19 -25(4) . .
C12 C15 C18 C19 -10(4) . .
C12 C14 C17 C19 -19(4) . .
O7 C20 C19 C18 168(3) . .
O7 C20 C19 C17 58(4) . .
O7 C20 C19 C16 -62(5) . .
C3 C2 C5 C7 57(2) . .
C3 C2 C4 C6 -45(2) . .
C8 C9 C7 C5 -53(2) . .
C8 C9 C6 C4 64(2) . .
C7 C9 C8 C3 65(2) . .
C7 C9 C6 C4 -52.0(19) . .
C6 C9 C8 C3 -47(2) . .
C6 C9 C7 C5 61(2) . .
C5 C2 C3 C8 -47(2) . .
C5 C2 C4 C6 69(2) . .
C4 C2 C3 C8 62(2) . .
C4 C2 C5 C7 -57(2) . .
C13 C12 C15 C18 -52(3) . .
C13 C12 C14 C17 65(3) . .
C15 C12 C13 C16 72(2) . .
C15 C12 C14 C17 -48(3) . .
C11S N11S C12S C13S 113(4) . .
C11S N11S C14S C15S 91(9) . .
C14 C12 C13 C16 -45(2) . .
C14 C12 C15 C18 68(3) . .
C20 C20 C19 C18 129(5) 4_556 .
C20 C20 C19 C17 19(6) 4_556 .
C20 C20 C19 C16 -101(6) 4_556 .
C20 C19 C18 C15 -165(3) . .
C20 C19 C17 C14 -171(3) . .
C20 C19 C16 C13 -171(3) . .
C18 C19 C17 C14 73(3) . .
C18 C19 C16 C13 -42(4) . .
C17 C19 C18 C15 -52(3) . .
C17 C19 C16 C13 68(4) . .
C16 C19 C18 C15 63(4) . .
C16 C19 C17 C14 -45(3) . .
O21S Zn2 O8 C20 59(2) . .
O21S C21S N21S C24S 26(7) . .
O21S C21S N21S C22S 164(5) . .
C21S N21S C22S C23S 126(5) . .
C24S N21S C22S C23S -95(6) . .
C12S N11S C11S O11S -171(4) . .
C12S N11S C14S C15S -86(9) . .
C14S N11S C11S O11S 13(6) . .
C14S N11S C12S C13S -71(5) . .
C25S C24S N21S C21S 13(8) . .
C25S C24S N21S C22S -127(6) . .
