#------------------------------------------------------------------------------
#$Date: 2017-04-05 05:47:50 +0300 (Wed, 05 Apr 2017) $
#$Revision: 194914 $
#$URL: file:///home/coder/svn-repositories/cod/cif/7/04/26/7042641.cif $
#------------------------------------------------------------------------------
#
# This file is available in the Crystallography Open Database (COD),
# http://www.crystallography.net/
#
# All data on this site have been placed in the public domain by the
# contributors.
#
data_7042641
loop_
_publ_author_name
'Cui, Yu'
'Chen, Zi-Man'
'Jiang, Xuan-Feng'
'Tong, Jin'
'Yu, Shu-Yan'
_publ_section_title
;
 Self-Assembly and Anion sensing of Metal-organic [M6L2] Cages from
 Fluorescent Triphenylamine Tri-pyrazoles with Dipalladium(II,II) Corners
;
_journal_name_full               'Dalton Trans.'
_journal_paper_doi               10.1039/C7DT00179G
_journal_year                    2017
_chemical_formula_moiety         'C63 H53 N13 Pd3, 12(F1.5 P0.25), C2 H3 N'
_chemical_formula_sum            'C65 H56 F18 N14 P3 Pd3'
_chemical_formula_weight         1787.34
_space_group_crystal_system      orthorhombic
_space_group_IT_number           62
_space_group_name_Hall           '-P 2ac 2n'
_space_group_name_H-M_alt        'P n m a'
_symmetry_space_group_name_Hall  '-P 2ac 2n'
_symmetry_space_group_name_H-M   'P n m a'
_atom_sites_solution_hydrogens   mixed
_audit_creation_date             2016-10-07
_audit_creation_method
;
Olex2 1.2-beta
(compiled 2016.09.09 svn.r3337 for OlexSys, GUI svn.r5227)
;
_audit_update_record
;
2017-03-23 deposited with the CCDC.
2017-04-04 downloaded from the CCDC.
;
_cell_angle_alpha                90
_cell_angle_beta                 90
_cell_angle_gamma                90
_cell_formula_units_Z            8
_cell_length_a                   58.295(7)
_cell_length_b                   11.9914(14)
_cell_length_c                   24.911(3)
_cell_measurement_reflns_used    9959
_cell_measurement_temperature    150(2)
_cell_measurement_theta_max      20.736
_cell_measurement_theta_min      2.197
_cell_volume                     17414(4)
_computing_cell_refinement       'SAINT v8.34A (Bruker, 2013)'
_computing_data_collection       'Bruker APEX2'
_computing_data_reduction        'Bruker SAINT'
_computing_molecular_graphics    'Bruker SHELXTL'
_computing_publication_material  'Bruker SHELXTL'
_computing_structure_refinement  'ShelXL (Sheldrick, 2015)'
_computing_structure_solution    'SHELXS-97 (Sheldrick 2008)'
_diffrn_ambient_temperature      150.0
_diffrn_measured_fraction_theta_full 0.991
_diffrn_measured_fraction_theta_max 0.990
_diffrn_measurement_device_type  'CCD area detector'
_diffrn_measurement_method       'phi and omega scans'
_diffrn_radiation_monochromator  graphite
_diffrn_radiation_type           MoK\a
_diffrn_radiation_wavelength     0.71073
_diffrn_reflns_av_R_equivalents  0.1759
_diffrn_reflns_av_unetI/netI     0.1789
_diffrn_reflns_Laue_measured_fraction_full 0.991
_diffrn_reflns_Laue_measured_fraction_max 0.990
_diffrn_reflns_limit_h_max       70
_diffrn_reflns_limit_h_min       -61
_diffrn_reflns_limit_k_max       14
_diffrn_reflns_limit_k_min       -14
_diffrn_reflns_limit_l_max       29
_diffrn_reflns_limit_l_min       -28
_diffrn_reflns_number            92048
_diffrn_reflns_point_group_measured_fraction_full 0.991
_diffrn_reflns_point_group_measured_fraction_max 0.990
_diffrn_reflns_theta_full        25.242
_diffrn_reflns_theta_max         25.350
_diffrn_reflns_theta_min         2.151
_exptl_absorpt_coefficient_mu    0.749
_exptl_absorpt_correction_type   none
_exptl_crystal_colour            yellow
_exptl_crystal_colour_primary    yellow
_exptl_crystal_density_diffrn    1.363
_exptl_crystal_description       Prism
_exptl_crystal_F_000             7112
_exptl_crystal_size_max          0.400
_exptl_crystal_size_mid          0.300
_exptl_crystal_size_min          0.200
_refine_diff_density_max         1.681
_refine_diff_density_min         -1.671
_refine_diff_density_rms         0.161
_refine_ls_extinction_method     none
_refine_ls_goodness_of_fit_ref   1.020
_refine_ls_hydrogen_treatment    constr
_refine_ls_matrix_type           full
_refine_ls_number_parameters     1064
_refine_ls_number_reflns         16623
_refine_ls_number_restraints     1203
_refine_ls_restrained_S_all      1.029
_refine_ls_R_factor_all          0.2202
_refine_ls_R_factor_gt           0.1171
_refine_ls_shift/su_max          0.001
_refine_ls_shift/su_mean         0.000
_refine_ls_structure_factor_coef Fsqd
_refine_ls_weighting_details
'w=1/[\s^2^(Fo^2^)+(0.1358P)^2^+235.8990P] where P=(Fo^2^+2Fc^2^)/3'
_refine_ls_weighting_scheme      calc
_refine_ls_wR_factor_gt          0.2768
_refine_ls_wR_factor_ref         0.3293
_reflns_Friedel_coverage         0.000
_reflns_number_gt                8031
_reflns_number_total             16623
_reflns_threshold_expression     'I > 2\s(I)'
_cod_data_source_file            c7dt00179g2.cif
_cod_data_source_block           w_sq
_cod_database_code               7042641
_shelx_space_group_comment
;
The symmetry employed for this shelxl refinement is uniquely defined
by the following loop, which should always be used as a source of
symmetry information in preference to the above space-group names.
They are only intended as comments.
;
_olex2_refinement_description
;
1. Fixed Uiso
 At 1.2 times of:
  All C(H) groups
 At 1.5 times of:
  All C(H,H,H) groups
2. Restrained distances
 F28-P7
 1.9 with sigma of 0.02
 C64-N14
 1.2 with sigma of 0.02
 C64-C65
 1.5 with sigma of 0.02
3. Uiso/Uaniso restraints and constraints
Uanis(C5) \\sim Ueq, Uanis(C6) \\sim Ueq, Uanis(C8) \\sim Ueq, Uanis(C9) \\sim
Ueq, Uanis(C24) \\sim Ueq, Uanis(C23) \\sim Ueq, Uanis(C27) \\sim Ueq,
Uanis(C26) \\sim Ueq: with sigma of 0.01 and sigma for terminal atoms of 0.01
Uanis(C10) \\sim Ueq, Uanis(N3) \\sim Ueq, Uanis(N4) \\sim Ueq, Uanis(C12)
\\sim Ueq, Uanis(C11) \\sim Ueq, Uanis(C18) \\sim Ueq, Uanis(C13) \\sim Ueq,
Uanis(C14) \\sim Ueq, Uanis(C15) \\sim Ueq: with sigma of 0.01 and sigma for
terminal atoms of 0.01
Uanis(Pd3) \\sim Ueq, Uanis(Pd4) \\sim Ueq: with sigma of 0.01 and sigma for
terminal atoms of 0.01
Uanis(F3) \\sim Ueq, Uanis(P1) \\sim Ueq, Uanis(F4) \\sim Ueq, Uanis(F2) \\sim
Ueq, Uanis(F5) \\sim Ueq, Uanis(F1) \\sim Ueq: with sigma of 0.01 and sigma for
terminal atoms of 0.01
Uanis(F7) \\sim Ueq, Uanis(P2) \\sim Ueq, Uanis(F6) \\sim Ueq, Uanis(F8) \\sim
Ueq, Uanis(F9) \\sim Ueq: with sigma of 0.01 and sigma for terminal atoms of
0.01
4. Rigid body (RIGU) restrains
 All non-hydrogen atoms
 with sigma for 1-2 distances of 0.004 and sigma for 1-3 distances of 0.004
5. Others
 Fixed Sof: P1(0.25) F1(0.25) F2(0.25) F3(0.25) F4(0.25) F5(0.5) P2(0.25)
 F6(0.25) F7(0.5) F8(0.25) F9(0.5) P4(0.375) F15(0.375) F16(0.75) F17(0.75)
 F18(0.375) P5(0.375) F19(0.375) F20(0.375) F21(0.375) F22(0.375) F23(0.75)
 P7(0.25) F28(0.25) F29(0.25) F30(0.25) F31(0.25) F32(0.5) H65A(0.5) H65B(0.5)
 H65C(0.5) H67A(0.5) H67B(0.5) H67C(0.5)
6.a Riding coordinates:
 C65(H65A,H65B,H65C)
6.b Aromatic/amide H refined with riding coordinates:
 C1(H1), C2(H2), C5(H5), C6(H6), C8(H8), C9(H9), C10(H10), C11(H11), C14(H14),
 C15(H15), C17(H17), C18(H18), C19(H19), C20(H20), C23(H23), C24(H24), C26(H26),
  C27(H27), C29(H29), C31(H31), C32(H32), C35(H35), C37(H37), C38(H38),
 C41(H41), C43(H43), C47(H47), C49(H49), C50(H50), C53(H53), C55(H55), C56(H56),
  C58(H58), C59(H59), C61(H61)
6.c Idealised Me refined as rotating group:
 C33(H33A,H33B,H33C), C39(H39A,H39B,H39C), C45(H45A,H45B,H45C), C51(H51A,H51B,
 H51C), C57(H57A,H57B,H57C), C63(H63A,H63B,H63C), C67(H67A,H67B,H67C)
;
_shelx_res_file
;
    w_sq.res created by SHELXL-2014/7

TITL w_a.res in Pnma
REM Old TITL w in Pnma
REM SHELXT solution in Pnma
REM R1 0.376, Rweak 0.105, Alpha 0.136, Orientation as input
REM Formula found by SHELXT: C148 N45 O24 Pd6
CELL 0.71073 58.2952 11.9914 24.9111 90 90 90
ZERR 8 0.0068 0.0014 0.0031 0 0 0
LATT 1
SYMM 0.5-X,-Y,0.5+Z
SYMM -X,0.5+Y,-Z
SYMM 0.5+X,0.5-Y,0.5-Z
SFAC C H F N P Pd
UNIT 520 448 144 112 24 24
DFIX 1.9 F28 P7
DFIX 1.2 C64 N14
DFIX 1.5 C64 C65
RIGU
ISOR 0.01 0.01 C5 C6 C8 C9 C24 C23 C27 C26
ISOR 0.01 0.01 C10 N3 N4 C12 C11 C18 C13 C14 C15
ISOR 0.01 0.01 Pd3 Pd4
ISOR 0.01 0.01 F3 P1 F4 F2 F5 F1
ISOR 0.01 0.01 F7 P2 F6 F8 F9

L.S. 5 0 167
PLAN  40
TEMP -123.15
BOND $H
ABIN
fmap 2
acta
SHEL 999 0.83
OMIT 11 0 1
REM <olex2.extras>
REM <HklSrc "%.\\w_sq.hkl">
REM </olex2.extras>

WGHT    0.135800  235.899002
FVAR       0.07674
PD1   6    0.565789    0.250000    0.659842    10.50000    0.03871    0.08141 =
         0.02363    0.00000    0.00078    0.00000
PD2   6    0.570797    0.250000    0.534166    10.50000    0.02798    0.05420 =
         0.03068    0.00000   -0.00127    0.00000
PD3   6    0.565294    0.250000    0.047231    10.50000    0.02543    0.22104 =
         0.03446    0.00000   -0.00500    0.00000
PD4   6    0.612238    0.250000    0.110767    10.50000    0.02319    0.14512 =
         0.02841    0.00000    0.00082    0.00000
PD5   6    0.801087    0.250000    0.345509    10.50000    0.02107    0.04281 =
         0.04787    0.00000   -0.00024    0.00000
PD6   6    0.753486    0.250000    0.405444    10.50000    0.02535    0.03602 =
         0.03662    0.00000   -0.00288    0.00000
N1    4    0.586419    0.364768    0.627680    11.00000    0.03893    0.07227 =
         0.02763   -0.00792   -0.00291   -0.00796
N2    4    0.590275    0.362057    0.573296    11.00000    0.03156    0.06075 =
         0.03403   -0.00543   -0.00392    0.00058
N3    4    0.569444    0.362978    0.104397    11.00000    0.05226    0.14427 =
         0.05973   -0.00428   -0.00749    0.01664
N4    4    0.589327    0.361898    0.134984    11.00000    0.04629    0.12503 =
         0.05739   -0.00951   -0.00368    0.01378
N5    4    0.778164    0.364231    0.322594    11.00000    0.02116    0.04805 =
         0.04044    0.00613   -0.00114    0.00485
N6    4    0.756859    0.363427    0.346705    11.00000    0.02160    0.03144 =
         0.04195    0.00487   -0.00214    0.00270
N7    4    0.647147    0.486701    0.353371    11.00000    0.03101    0.05058 =
         0.04098    0.00236    0.00207    0.00377
N8    4    0.544023    0.358690    0.693809    11.00000    0.03333    0.07427 =
         0.02360   -0.00218   -0.00842   -0.00419
N9    4    0.549515    0.357722    0.496948    11.00000    0.03663    0.05094 =
         0.02998   -0.00353   -0.00229   -0.00532
N10   4    0.560934    0.358090   -0.012118    11.00000    0.02955    0.17518 =
         0.04373   -0.02214   -0.00566    0.01488
N11   4    0.635262    0.140165    0.081713    11.00000    0.03383    0.09055 =
         0.02559    0.01369   -0.00532   -0.01355
N12   4    0.824648    0.140643    0.371438    11.00000    0.02559    0.03753 =
         0.05312   -0.00341   -0.00252    0.00228
N13   4    0.750392    0.141375    0.466151    11.00000    0.02633    0.03146 =
         0.03981    0.00661   -0.00930   -0.00148
C1    1    0.601345    0.434223    0.648517    11.00000    0.06081    0.10255 =
         0.03883   -0.01455   -0.00327   -0.03147
AFIX  43
H1    2    0.602012    0.452899    0.685545    11.00000   -1.20000
AFIX   0
C2    1    0.615832    0.476482    0.610416    11.00000    0.05399    0.09026 =
         0.05139   -0.00851   -0.00239   -0.02214
AFIX  43
H2    2    0.628382    0.525832    0.615661    11.00000   -1.20000
AFIX   0
C3    1    0.608042    0.430743    0.561820    11.00000    0.03798    0.06894 =
         0.04167   -0.00374   -0.00145   -0.00625
C4    1    0.617018    0.449906    0.506573    11.00000    0.03143    0.04897 =
         0.03807   -0.00318   -0.00352    0.00351
C5    1    0.636454    0.511014    0.497743    11.00000    0.07863    0.10735 =
         0.06498   -0.02022    0.01603   -0.04198
AFIX  43
H5    2    0.643582    0.546026    0.527610    11.00000   -1.20000
AFIX   0
C6    1    0.646064    0.524262    0.448810    11.00000    0.06229    0.08305 =
         0.05676   -0.01677    0.01320   -0.03135
AFIX  43
H6    2    0.659346    0.569532    0.445167    11.00000   -1.20000
AFIX   0
C7    1    0.636994    0.473593    0.404399    11.00000    0.03730    0.04257 =
         0.04432    0.00205    0.00431    0.00045
C8    1    0.617795    0.413102    0.411622    11.00000    0.06862    0.08900 =
         0.05343   -0.00950    0.00553   -0.03471
AFIX  43
H8    2    0.610681    0.379171    0.381448    11.00000   -1.20000
AFIX   0
C9    1    0.607704    0.398477    0.464370    11.00000    0.06653    0.08426 =
         0.05148   -0.00878    0.00055   -0.03159
AFIX  43
H9    2    0.594556    0.352603    0.468843    11.00000   -1.20000
AFIX   0
C10   1    0.554829    0.436269    0.125660    11.00000    0.07113    0.14634 =
         0.08218   -0.01048   -0.00670    0.02400
AFIX  43
H10   2    0.539650    0.449495    0.113330    11.00000   -1.20000
AFIX   0
C11   1    0.565532    0.492016    0.169958    11.00000    0.06957    0.14168 =
         0.09059   -0.01579   -0.01033    0.02821
AFIX  43
H11   2    0.559596    0.551511    0.190961    11.00000   -1.20000
AFIX   0
C12   1    0.586617    0.438868    0.175080    11.00000    0.05681    0.12005 =
         0.06744   -0.01302   -0.00593    0.02036
C13   1    0.603521    0.453521    0.220155    11.00000    0.05105    0.10046 =
         0.06210   -0.00847   -0.00108    0.01927
C14   1    0.598103    0.526139    0.261768    11.00000    0.05572    0.10110 =
         0.06156   -0.01009   -0.00976    0.02468
AFIX  43
H14   2    0.584524    0.569751    0.259785    11.00000   -1.20000
AFIX   0
C15   1    0.612325    0.535502    0.306114    11.00000    0.04891    0.08837 =
         0.05999   -0.00936   -0.00515    0.02152
AFIX  43
H15   2    0.607876    0.579732    0.335991    11.00000   -1.20000
AFIX   0
C16   1    0.633393    0.478786    0.306322    11.00000    0.03524    0.05727 =
         0.04054    0.00310    0.00271    0.00061
C17   1    0.638963    0.414387    0.264333    11.00000    0.04383    0.07241 =
         0.05196   -0.00681   -0.00218    0.01638
AFIX  43
H17   2    0.653284    0.376582    0.264323    11.00000   -1.20000
AFIX   0
C18   1    0.624546    0.401821    0.221574    11.00000    0.05050    0.09892 =
         0.05632   -0.01307   -0.00217    0.02043
AFIX  43
H18   2    0.629141    0.356439    0.192223    11.00000   -1.20000
AFIX   0
C19   1    0.777016    0.429936    0.278505    11.00000    0.02714    0.06164 =
         0.04102    0.01373   -0.00043    0.00266
AFIX  43
H19   2    0.789169    0.443035    0.253894    11.00000   -1.20000
AFIX   0
C20   1    0.755713    0.473803    0.275308    11.00000    0.02953    0.05567 =
         0.04441    0.01975   -0.00200    0.00688
AFIX  43
H20   2    0.750353    0.523887    0.248555    11.00000   -1.20000
AFIX   0
C21   1    0.743050    0.432490    0.318193    11.00000    0.03163    0.04250 =
         0.04203    0.00982   -0.00086    0.00408
C22   1    0.718342    0.450192    0.330997    11.00000    0.03302    0.03386 =
         0.03354    0.00451   -0.00184   -0.00233
C23   1    0.705679    0.521360    0.300777    11.00000    0.04094    0.06891 =
         0.06703    0.03621    0.00845    0.00855
AFIX  43
H23   2    0.713073    0.562500    0.273160    11.00000   -1.20000
AFIX   0
C24   1    0.682302    0.536284    0.308730    11.00000    0.04676    0.08355 =
         0.07430    0.03931    0.01270    0.01182
AFIX  43
H24   2    0.674112    0.587628    0.286910    11.00000   -1.20000
AFIX   0
C25   1    0.671088    0.478480    0.347211    11.00000    0.03306    0.04617 =
         0.03305    0.00067    0.00499    0.00207
C26   1    0.683829    0.411319    0.379365    11.00000    0.04434    0.08534 =
         0.06593    0.03290    0.01159    0.00949
AFIX  43
H26   2    0.676776    0.371955    0.408050    11.00000   -1.20000
AFIX   0
C27   1    0.707113    0.400405    0.370215    11.00000    0.04610    0.08200 =
         0.07035    0.03922    0.00892    0.00773
AFIX  43
H27   2    0.715610    0.353835    0.393804    11.00000   -1.20000
AFIX   0
C28   1    0.526771    0.310440    0.723216    11.00000    0.04615    0.06165 =
         0.03974   -0.00726    0.00723   -0.00225
C29   1    0.509742    0.377158    0.746639    11.00000    0.04741    0.07521 =
         0.08005   -0.01721    0.02308   -0.00310
AFIX  43
H29   2    0.497303    0.343092    0.765026    11.00000   -1.20000
AFIX   0
C30   1    0.510858    0.488047    0.743327    11.00000    0.06048    0.07514 =
         0.08253   -0.01775    0.01314   -0.00304
C31   1    0.529178    0.537577    0.713438    11.00000    0.05190    0.07600 =
         0.06304   -0.01269   -0.00515   -0.00432
AFIX  43
H31   2    0.530402    0.616226    0.709857    11.00000   -1.20000
AFIX   0
C32   1    0.544522    0.469382    0.690714    11.00000    0.05433    0.07251 =
         0.04584   -0.00146   -0.00082   -0.00379
AFIX  43
H32   2    0.556672    0.502459    0.670903    11.00000   -1.20000
AFIX   0
C33   1    0.493511    0.563284    0.769583    11.00000    0.10651    0.08588 =
         0.20560   -0.02537    0.08193    0.00237
AFIX 137
H33A  2    0.498692    0.640845    0.767000    11.00000   -1.50000
H33B  2    0.491850    0.542643    0.807449    11.00000   -1.50000
H33C  2    0.478692    0.555361    0.751400    11.00000   -1.50000
AFIX   0
C34   1    0.532415    0.311275    0.468570    11.00000    0.04240    0.04696 =
         0.04623    0.00164   -0.00743   -0.00338
C35   1    0.516683    0.374442    0.441880    11.00000    0.03826    0.04014 =
         0.05292    0.00276   -0.00889   -0.00473
AFIX  43
H35   2    0.504775    0.338536    0.422409    11.00000   -1.20000
AFIX   0
C36   1    0.517696    0.492929    0.442529    11.00000    0.04663    0.03855 =
         0.05595    0.00217   -0.00706   -0.00131
C37   1    0.535581    0.540075    0.471604    11.00000    0.05291    0.04730 =
         0.05965   -0.00060   -0.00872   -0.00701
AFIX  43
H37   2    0.537512    0.618730    0.472243    11.00000   -1.20000
AFIX   0
C38   1    0.550619    0.471877    0.499713    11.00000    0.04308    0.05146 =
         0.05305   -0.00065   -0.00227   -0.00693
AFIX  43
H38   2    0.562053    0.505362    0.521590    11.00000   -1.20000
AFIX   0
C39   1    0.501924    0.565630    0.412986    11.00000    0.05984    0.05501 =
         0.07233    0.00935   -0.01940    0.00321
AFIX 137
H39A  2    0.507317    0.574119    0.375950    11.00000   -1.50000
H39B  2    0.501348    0.638912    0.430348    11.00000   -1.50000
H39C  2    0.486558    0.532482    0.412902    11.00000   -1.50000
AFIX   0
C40   1    0.561812    0.470552   -0.010302    11.00000    0.03041    0.17177 =
         0.06705   -0.02680   -0.00054    0.01553
C41   1    0.559277    0.535893   -0.055328    11.00000    0.07782    0.15450 =
         0.07359   -0.02887   -0.01673    0.01349
AFIX  43
H41   2    0.559127    0.614620   -0.051079    11.00000   -1.20000
AFIX   0
C42   1    0.557008    0.493730   -0.104963    11.00000    0.08336    0.13689 =
         0.07140   -0.01964   -0.01646    0.01388
C43   1    0.554748    0.377071   -0.106763    11.00000    0.09597    0.13890 =
         0.04526   -0.01843   -0.02053    0.01399
AFIX  43
H43   2    0.551162    0.341982   -0.139908    11.00000   -1.20000
AFIX   0
C44   1    0.557682    0.311166   -0.060560    11.00000    0.03787    0.14716 =
         0.04436   -0.01407   -0.00952    0.01401
C45   1    0.556149    0.565217   -0.156255    11.00000    0.22397    0.13472 =
         0.08493   -0.01116   -0.03816   -0.00452
AFIX 137
H45A  2    0.563719    0.525269   -0.185650    11.00000   -1.50000
H45B  2    0.564054    0.636117   -0.149883    11.00000   -1.50000
H45C  2    0.540126    0.579772   -0.165884    11.00000   -1.50000
AFIX   0
C46   1    0.653821    0.188515    0.057181    11.00000    0.02882    0.07036 =
         0.02152    0.01356   -0.00407   -0.00429
C47   1    0.670897    0.124230    0.035498    11.00000    0.02955    0.06151 =
         0.02541    0.01295    0.00191   -0.01203
AFIX  43
H47   2    0.683420    0.159697    0.018061    11.00000   -1.20000
AFIX   0
C48   1    0.670394    0.010438    0.038285    11.00000    0.04381    0.06158 =
         0.03692    0.01474   -0.00035   -0.01229
C49   1    0.650892   -0.036835    0.063606    11.00000    0.05242    0.07975 =
         0.03241    0.02002   -0.00399   -0.02103
AFIX  43
H49   2    0.649325   -0.115552    0.065857    11.00000   -1.20000
AFIX   0
C50   1    0.634142    0.031847    0.085039    11.00000    0.04689    0.08913 =
         0.04021    0.01583   -0.00426   -0.01989
AFIX  43
H50   2    0.621403   -0.001097    0.102765    11.00000   -1.20000
AFIX   0
C51   1    0.689066   -0.061573    0.016626    11.00000    0.06139    0.06061 =
         0.06460    0.01215    0.00150   -0.00390
AFIX 137
H51A  2    0.695974   -0.025519   -0.014760    11.00000   -1.50000
H51B  2    0.682697   -0.133982    0.006112    11.00000   -1.50000
H51C  2    0.700805   -0.072563    0.044285    11.00000   -1.50000
AFIX   0
C52   1    0.843820    0.189666    0.394571    11.00000    0.02730    0.04990 =
         0.05850   -0.00204   -0.00421    0.00075
C53   1    0.861270    0.122842    0.414458    11.00000    0.02720    0.04564 =
         0.04292   -0.00430    0.00540    0.00369
AFIX  43
H53   2    0.874621    0.156664    0.429058    11.00000   -1.20000
AFIX   0
C54   1    0.859578    0.007373    0.413412    11.00000    0.03011    0.04423 =
         0.05043   -0.00558    0.00301    0.00462
C55   1    0.840746   -0.037135    0.390200    11.00000    0.03532    0.04098 =
         0.05843   -0.00530   -0.00171    0.00579
AFIX  43
H55   2    0.839403   -0.115951    0.387956    11.00000   -1.20000
AFIX   0
C56   1    0.823426    0.028414    0.369678    11.00000    0.03483    0.03706 =
         0.05881   -0.00660   -0.00099    0.00356
AFIX  43
H56   2    0.810379   -0.006112    0.353996    11.00000   -1.20000
AFIX   0
C57   1    0.878539   -0.063648    0.435632    11.00000    0.03509    0.05125 =
         0.08024   -0.00415   -0.00489    0.00867
AFIX 137
H57A  2    0.891016   -0.068405    0.409366    11.00000   -1.50000
H57B  2    0.872663   -0.138616    0.443132    11.00000   -1.50000
H57C  2    0.884317   -0.030288    0.468903    11.00000   -1.50000
AFIX   0
C58   1    0.750586    0.028228    0.463573    11.00000    0.06025    0.03104 =
         0.04175    0.00537   -0.01046   -0.00203
AFIX  43
H58   2    0.753562   -0.006602    0.430036    11.00000   -1.20000
AFIX   0
C59   1    0.746725   -0.036094    0.506712    11.00000    0.10691    0.03595 =
         0.05152    0.01351    0.00390   -0.00394
AFIX  43
H59   2    0.747694   -0.114834    0.503168    11.00000   -1.20000
AFIX   0
C60   1    0.741400    0.008989    0.555929    11.00000    0.15446    0.04551 =
         0.05480    0.01012    0.01700   -0.01266
C61   1    0.741872    0.125589    0.559406    11.00000    0.12047    0.04630 =
         0.05482    0.00788    0.01724   -0.00911
AFIX  43
H61   2    0.739420    0.160853    0.593070    11.00000   -1.20000
AFIX   0
C62   1    0.745722    0.187284    0.515991    11.00000    0.03679    0.04209 =
         0.04408    0.00311   -0.00355   -0.01452
C63   1    0.735700   -0.064029    0.605674    11.00000    0.33583    0.07346 =
         0.06460    0.01514    0.05910   -0.02703
AFIX 137
H63A  2    0.722804   -0.113427    0.597217    11.00000   -1.50000
H63B  2    0.731564   -0.015796    0.635921    11.00000   -1.50000
H63C  2    0.749134   -0.108933    0.615268    11.00000   -1.50000
AFIX   0

P1    5    0.496909    0.250000    0.092191    10.25000    0.16303    0.16297 =
         0.17944    0.00000   -0.00527    0.00000
F1    3    0.508719    0.250000    0.037423    10.25000    0.18652    0.19357 =
         0.19116    0.00000    0.00049    0.00000
F2    3    0.474326    0.250000    0.063177    10.25000    0.17666    0.18112 =
         0.18808    0.00000   -0.00749    0.00000
F3    3    0.483522    0.250000    0.140187    10.25000    0.17814    0.18060 =
         0.18796    0.00000   -0.00148    0.00000
F4    3    0.516064    0.250000    0.124151    10.25000    0.17339    0.17914 =
         0.18524    0.00000   -0.00452    0.00000
F5    3    0.496757    0.374496    0.081897    10.50000    0.17427    0.17614 =
         0.19713    0.00398   -0.00558   -0.00127
P2    5    0.510118    0.750000    0.096956    10.25000    0.09543    0.13370 =
         0.11572    0.00000    0.00114    0.00000
F6    3    0.492914    0.750000    0.044353    10.25000    0.11224    0.13256 =
         0.12352    0.00000   -0.00059    0.00000
F7    3    0.500591    0.848461    0.119677    10.50000    0.15757    0.16737 =
         0.15387   -0.02054   -0.01643    0.02743
F8    3    0.527369    0.750000    0.142726    10.25000    0.11610    0.13542 =
         0.12439    0.00000   -0.00437    0.00000
F9    3    0.523674    0.660805    0.065641    10.50000    0.13581    0.15225 =
         0.14387   -0.01101   -0.00470    0.01482
P3    5    0.395304    0.750000    0.201371    10.50000    0.13064    0.09822 =
         0.05516    0.00000   -0.03701    0.00000
F10   3    0.402892    0.750000    0.139799    10.50000    0.11381    0.09469 =
         0.05893    0.00000   -0.04322    0.00000
F11   3    0.420357    0.750000    0.219345    10.50000    0.14033    0.21086 =
         0.05939    0.00000   -0.05105    0.00000
F12   3    0.387586    0.750000    0.263563    10.50000    0.16539    0.19020 =
         0.07098    0.00000   -0.02745    0.00000
F13   3    0.368931    0.750000    0.182907    10.50000    0.13835    0.21151 =
         0.09100    0.00000   -0.03404    0.00000
F14   3    0.393975    0.620089    0.201692    11.00000    0.22212    0.12399 =
         0.10945    0.01682   -0.01865   -0.00941
P4    5    0.443624    0.250000    0.402080    10.37500    0.08670    0.03871 =
         0.05241    0.00000   -0.01665    0.00000
F15   3    0.441155    0.250000    0.339619    10.37500    0.13338    0.09789 =
         0.06678    0.00000   -0.02368    0.00000
F16   3    0.460040    0.347384    0.402020    10.75000    0.19400    0.14576 =
         0.07966    0.02208   -0.03647   -0.06344
F17   3    0.426783    0.349998    0.399962    10.75000    0.19609    0.10229 =
         0.09897    0.01387   -0.01045    0.04071
F18   3    0.440832    0.250000    0.463898    10.37500    0.21216    0.05846 =
         0.06998    0.00000   -0.00633    0.00000
P5    5    0.450197    0.250000    0.673494    10.37500    0.04965    0.06213 =
         0.11925    0.00000    0.02194    0.00000
F19   3    0.450931    0.250000    0.606602    10.37500    0.09742    0.12813 =
         0.13725    0.00000    0.00948    0.00000
F20   3    0.423107    0.250000    0.673367    10.37500    0.06451    0.08665 =
         0.18113    0.00000    0.01947    0.00000
F21   3    0.450585    0.250000    0.732556    10.37500    0.09206    0.21280 =
         0.13074    0.00000    0.02825    0.00000
F22   3    0.477404    0.250000    0.669828    10.37500    0.06107    0.07926 =
         0.10571    0.00000    0.02080    0.00000
F23   3    0.449460    0.375415    0.664645    10.75000    0.08832    0.09103 =
         0.18742    0.00637    0.04613    0.00774
P6    5    0.292568    0.250000    0.833702    10.50000    0.08802    0.05725 =
         0.05402    0.00000   -0.00211    0.00000
F24   3    0.298628    0.250000    0.771054    10.50000    0.11464    0.07985 =
         0.06416    0.00000    0.00522    0.00000
F25   3    0.273887    0.156829    0.824559    11.00000    0.11848    0.08786 =
         0.09641   -0.00931    0.00318   -0.02759
F26   3    0.287439    0.250000    0.896489    10.50000    0.08957    0.10346 =
         0.06513    0.00000   -0.00816    0.00000
F27   3    0.311157    0.344846    0.841460    11.00000    0.12937    0.10534 =
         0.10952   -0.03141    0.01506   -0.02928
P7    5    0.404867    0.250000    0.957430    10.25000    0.05928    0.04425 =
         0.12733    0.00000   -0.01290    0.00000
F28   3    0.390709    0.250000    0.890463    10.25000    0.11879    0.10752 =
         0.15459    0.00000   -0.01439    0.00000
F29   3    0.378460    0.250000    0.971607    10.25000    0.07969    0.10188 =
         0.16959    0.00000   -0.00770    0.00000
F30   3    0.405455    0.250000    1.011864    10.25000    0.07842    0.09061 =
         0.14518    0.00000   -0.00282    0.00000
F31   3    0.428830    0.250000    0.944477    10.25000    0.08149    0.10287 =
         0.17181    0.00000    0.00307    0.00000
F32   3    0.402372    0.370176    0.962390    10.50000    0.08591    0.08038 =
         0.18527   -0.00262   -0.03630   -0.00164
P8    5    0.717367    0.250000    0.900519    10.50000    0.06607    0.04013 =
         0.06467    0.00000    0.00527    0.00000
F33   3    0.695174    0.250000    0.864154    10.50000    0.10104    0.07195 =
         0.13051    0.00000   -0.03280    0.00000
F34   3    0.707930    0.348894    0.935327    11.00000    0.10826    0.11635 =
         0.14895   -0.06163   -0.00868    0.03598
F35   3    0.741120    0.250000    0.931596    10.50000    0.07992    0.07822 =
         0.11504    0.00000   -0.01329    0.00000
F36   3    0.727638    0.153941    0.864333    11.00000    0.13908    0.08817 =
         0.12586   -0.03633   -0.01231    0.03992
N14   4    0.430879    0.750000    0.620979    10.50000    0.14504    0.16965 =
         0.10011    0.00000    0.02798    0.00000
C64   1    0.433592    0.750000    0.667912    10.50000    0.08684    0.34567 =
         0.10431    0.00000    0.03155    0.00000
C65   1    0.433547    0.750000    0.727209    10.50000    0.16159    0.53944 =
         0.09883    0.00000    0.03011    0.00000
PART -1
AFIX   3
H65A  2    0.417617    0.753600    0.739669    10.50000   -1.50000
H65B  2    0.441997    0.814850    0.740679    10.50000   -1.50000
H65C  2    0.440717    0.681540    0.740619    10.50000   -1.50000
AFIX   0

PART 0
N15   4    0.307997    0.750000    0.507773    10.50000    0.09650    0.16931 =
         0.10449    0.00000   -0.00274    0.00000
C66   1    0.319576    0.750000    0.473715    10.50000    0.07642    0.14751 =
         0.09320    0.00000   -0.01782    0.00000
C67   1    0.338461    0.750000    0.426463    10.50000    0.10422    0.22645 =
         0.12128    0.00000    0.01181    0.00000
PART -1
AFIX 137
H67A  2    0.341398    0.826823    0.414935    10.50000   -1.50000
H67B  2    0.332739    0.706453    0.395985    10.50000   -1.50000
H67C  2    0.352729    0.716725    0.439736    10.50000   -1.50000
AFIX   0
HKLF 4

REM  w_a.res in Pnma
REM R1 =  0.1171 for    8031 Fo > 4sig(Fo)  and  0.2202 for all   16623 data
REM   1064 parameters refined using   1203 restraints

END

WGHT      0.1358    235.9015

REM Highest difference peak  1.681,  deepest hole -1.671,  1-sigma level  0.161
Q1    1   0.4687  0.2500  0.3831  10.50000  0.05    1.68
Q2    1   0.3737  0.2500  0.8623  10.50000  0.05    1.62
Q3    1   0.4657  0.2500  0.4582  10.50000  0.05    1.48
Q4    1   0.4568  0.3508  0.7262  11.00000  0.05    1.40
Q5    1   0.8019  0.2500  0.3022  10.50000  0.05    1.28
Q6    1   0.6870  0.2500  0.9189  10.50000  0.05    1.27
Q7    1   0.4914  0.7500  0.1343  10.50000  0.05    1.23
Q8    1   0.7561  0.2500  0.3613  10.50000  0.05    1.23
Q9    1   0.7162  0.2500  0.9730  10.50000  0.05    1.20
Q10   1   0.4167  0.2500  0.3838  10.50000  0.05    1.15
Q11   1   0.5663  0.2500  0.6193  10.50000  0.05    1.14
Q12   1   0.7593  0.2500  0.2992  10.50000  0.05    1.04
Q13   1   0.5656  0.2500  0.6947  10.50000  0.05    1.04
Q14   1   0.7509  0.2500  0.4433  10.50000  0.05    1.00
Q15   1   0.5670  0.2500  0.5779  10.50000  0.05    0.96
Q16   1   0.5705  0.2500  0.4980  10.50000  0.05    0.91
Q17   1   0.8006  0.2500  0.3849  10.50000  0.05    0.91
Q18   1   0.5670  0.3091  0.0388  11.00000  0.05    0.88
Q19   1   0.4023  0.2500  0.9038  10.50000  0.05    0.86
Q20   1   0.5000  0.5000  0.0000  10.50000  0.05    0.85
Q21   1   0.7051  0.2500  0.3457  10.50000  0.05    0.85
Q22   1   0.6128  0.2702  0.1440  11.00000  0.05    0.83
Q23   1   0.7411  0.2500  0.8463  10.50000  0.05    0.82
Q24   1   0.6248  0.5677  0.4809  11.00000  0.05    0.82
Q25   1   0.4229  0.2500  0.7180  10.50000  0.05    0.81
Q26   1   0.4596  0.7500  0.6811  10.50000  0.05    0.78
Q27   1   0.4180  0.2882  0.8970  11.00000  0.05    0.78
Q28   1   0.4571  0.7083  0.6863  11.00000  0.05    0.77
Q29   1   0.4351  0.3218  0.6386  11.00000  0.05    0.77
Q30   1   0.4508  0.7271  0.6968  11.00000  0.05    0.77
Q31   1   0.5655  0.2846  0.0839  11.00000  0.05    0.76
Q32   1   0.3977  0.3130  0.9976  11.00000  0.05    0.73
Q33   1   0.6350  0.5727  0.4381  11.00000  0.05    0.72
Q34   1   0.5710  0.4258  0.0993  11.00000  0.05    0.70
Q35   1   0.4986  0.4178  0.0328  11.00000  0.05    0.70
Q36   1   0.4284  0.2912  0.4460  11.00000  0.05    0.69
Q37   1   0.4451  0.3918  0.4046  11.00000  0.05    0.68
Q38   1   0.5716  0.2500  0.1119  10.50000  0.05    0.68
Q39   1   0.5117  0.6922  0.0967  11.00000  0.05    0.67
Q40   1   0.5590  0.5057  0.1194  11.00000  0.05    0.66
;
_shelx_res_checksum              26665
_shelx_fab_checksum              93457
_shelx_fab_file
;
    8    0    0   -148.42      0.00
   10    0    0    159.17      0.00
   12    0    0    -59.30      0.00
   14    0    0     66.42      0.00
   16    0    0    -62.35      0.00
   18    0    0    -11.21      0.00
   20    0    0     23.40      0.00
   22    0    0     23.99      0.00
   24    0    0    -14.86      0.00
   26    0    0    -28.13      0.00
   28    0    0     18.77      0.00
   30    0    0     11.51      0.00
   32    0    0     -6.29      0.00
   34    0    0    -15.95      0.00
   36    0    0      9.28      0.00
   38    0    0      3.54      0.00
   40    0    0      4.64      0.00
   42    0    0     -9.32      0.00
   44    0    0      7.81      0.00
   46    0    0     -3.46      0.00
   48    0    0     -4.19      0.00
   50    0    0      6.99      0.00
   52    0    0     -6.33      0.00
   54    0    0     11.51      0.00
   56    0    0    -27.82      0.00
   58    0    0     12.50      0.00
   60    0    0     -0.75      0.00
   62    0    0     10.52      0.00
   64    0    0    -17.16      0.00
   70    0    0     -5.15      0.00
    6    1    0   -280.13      0.00
    8    1    0     43.65      0.00
   10    1    0     19.52      0.00
   12    1    0     40.06      0.00
   14    1    0    -62.40      0.00
   16    1    0     75.07      0.00
   18    1    0    -51.38      0.00
   20    1    0    -55.01      0.00
   22    1    0     82.42      0.00
   24    1    0    -39.09      0.00
   26    1    0     13.64      0.00
   28    1    0    -13.56      0.00
   30    1    0      9.79      0.00
   32    1    0     13.28      0.00
   34    1    0    -12.37      0.00
   36    1    0     15.65      0.00
   38    1    0    -16.51      0.00
   40    1    0     13.71      0.00
   42    1    0     -4.38      0.00
   44    1    0      3.22      0.00
   46    1    0     -0.80      0.00
   48    1    0     -9.39      0.00
   50    1    0      4.52      0.00
   52    1    0      6.63      0.00
   54    1    0      0.61      0.00
   56    1    0     -8.48      0.00
   58    1    0     17.14      0.00
   60    1    0    -25.27      0.00
   62    1    0     24.76      0.00
   64    1    0      3.89      0.00
   66    1    0     -8.28      0.00
   68    1    0      1.83      0.00
    0    2    0   -467.62      0.00
    2    2    0    159.83      0.00
    4    2    0     87.24      0.00
    6    2    0      4.84      0.00
    8    2    0    -77.36      0.00
   10    2    0    -56.39      0.00
   12    2    0     59.05      0.00
   14    2    0    -49.24      0.00
   16    2    0     37.03      0.00
   18    2    0      0.40      0.00
   20    2    0    -24.62      0.00
   22    2    0     -5.42      0.00
   24    2    0     10.81      0.00
   26    2    0     16.08      0.00
   28    2    0    -13.21      0.00
   30    2    0     -9.97      0.00
   32    2    0     14.45      0.00
   34    2    0      1.61      0.00
   36    2    0    -20.20      0.00
   38    2    0     16.96      0.00
   40    2    0    -10.95      0.00
   42    2    0      2.07      0.00
   44    2    0      0.92      0.00
   46    2    0      2.59      0.00
   48    2    0     -0.11      0.00
   50    2    0    -10.10      0.00
   52    2    0      6.58      0.00
   54    2    0     -1.47      0.00
   56    2    0     13.52      0.00
   58    2    0    -15.46      0.00
   60    2    0      0.70      0.00
   62    2    0      8.97      0.00
   64    2    0     -2.25      0.00
   66    2    0     -6.35      0.00
   68    2    0      1.30      0.00
    2    3    0   -192.56      0.00
    4    3    0     94.27      0.00
    6    3    0     39.47      0.00
    8    3    0     -0.60      0.00
   10    3    0    -25.63      0.00
   12    3    0    -10.82      0.00
   14    3    0     45.28      0.00
   16    3    0    -52.26      0.00
   18    3    0     35.22      0.00
   20    3    0     14.85      0.00
   22    3    0    -35.44      0.00
   24    3    0     14.66      0.00
   26    3    0    -15.06      0.00
   28    3    0     16.43      0.00
   30    3    0    -13.53      0.00
   32    3    0     -0.97      0.00
   34    3    0      7.96      0.00
   36    3    0     -6.86      0.00
   38    3    0      5.50      0.00
   40    3    0    -13.52      0.00
   42    3    0     11.65      0.00
   44    3    0     -7.65      0.00
   46    3    0      2.63      0.00
   48    3    0     12.74      0.00
   50    3    0    -11.54      0.00
   52    3    0     -2.27      0.00
   54    3    0     -0.96      0.00
   56    3    0     14.40      0.00
   58    3    0    -26.23      0.00
   60    3    0     14.89      0.00
   62    3    0      2.33      0.00
   64    3    0    -24.03      0.00
   66    3    0     33.27      0.00
   68    3    0    -18.33      0.00
   70    3    0    -15.13      0.00
    0    4    0    206.91      0.00
    2    4    0    -84.24      0.00
    4    4    0    -52.69      0.00
    6    4    0     51.64      0.00
    8    4    0     15.88      0.00
   10    4    0     -2.38      0.00
   12    4    0    -19.68      0.00
   14    4    0     29.00      0.00
   16    4    0     -1.10      0.00
   18    4    0    -23.55      0.00
   20    4    0     13.79      0.00
   22    4    0     13.47      0.00
   24    4    0     -2.20      0.00
   26    4    0    -13.99      0.00
   28    4    0     16.72      0.00
   30    4    0      3.70      0.00
   32    4    0    -26.33      0.00
   34    4    0     27.67      0.00
   36    4    0      1.18      0.00
   38    4    0    -14.25      0.00
   40    4    0     22.02      0.00
   42    4    0     -8.03      0.00
   44    4    0     -7.78      0.00
   46    4    0      8.87      0.00
   48    4    0      1.15      0.00
   50    4    0     -7.88      0.00
   52    4    0     15.57      0.00
   54    4    0     -0.27      0.00
   56    4    0    -10.60      0.00
   58    4    0      8.59      0.00
   60    4    0      8.23      0.00
   62    4    0     -3.03      0.00
   64    4    0    -11.65      0.00
   66    4    0     20.44      0.00
   68    4    0     -2.20      0.00
   70    4    0     -0.27      0.00
    2    5    0     67.20      0.00
    4    5    0     -9.34      0.00
    6    5    0    -43.12      0.00
    8    5    0     15.04      0.00
   10    5    0     21.97      0.00
   12    5    0    -15.12      0.00
   14    5    0    -20.32      0.00
   16    5    0     53.07      0.00
   18    5    0    -18.00      0.00
   20    5    0    -21.35      0.00
   22    5    0     20.30      0.00
   24    5    0      2.18      0.00
   26    5    0     -2.26      0.00
   28    5    0     -2.81      0.00
   30    5    0     15.87      0.00
   32    5    0     -8.67      0.00
   34    5    0     -8.82      0.00
   36    5    0      9.63      0.00
   38    5    0     -5.35      0.00
   40    5    0      0.49      0.00
   42    5    0     -1.70      0.00
   44    5    0      3.69      0.00
   46    5    0      2.87      0.00
   48    5    0     -3.79      0.00
   50    5    0    -13.01      0.00
   52    5    0     11.52      0.00
   54    5    0      9.25      0.00
   56    5    0    -10.11      0.00
   58    5    0      2.79      0.00
   60    5    0     -0.20      0.00
   62    5    0     -1.06      0.00
   64    5    0     12.74      0.00
   66    5    0    -17.47      0.00
   68    5    0     -2.26      0.00
    0    6    0   -101.43      0.00
    2    6    0     38.39      0.00
    4    6    0     35.51      0.00
    6    6    0    -22.26      0.00
    8    6    0     -1.52      0.00
   10    6    0     -2.45      0.00
   12    6    0     13.83      0.00
   14    6    0    -19.55      0.00
   16    6    0      0.20      0.00
   18    6    0     12.51      0.00
   20    6    0      3.12      0.00
   22    6    0    -11.78      0.00
   24    6    0     -7.80      0.00
   26    6    0     14.19      0.00
   28    6    0     -8.87      0.00
   30    6    0    -10.68      0.00
   32    6    0     18.39      0.00
   34    6    0    -13.26      0.00
   36    6    0     -5.54      0.00
   38    6    0     15.59      0.00
   40    6    0    -13.82      0.00
   42    6    0     -4.53      0.00
   44    6    0      1.54      0.00
   46    6    0      9.06      0.00
   48    6    0     -6.39      0.00
   50    6    0      0.52      0.00
   52    6    0    -12.55      0.00
   54    6    0      1.67      0.00
   56    6    0      7.40      0.00
   58    6    0     -8.03      0.00
   60    6    0      2.50      0.00
   62    6    0    -21.30      0.00
   64    6    0     13.90      0.00
   66    6    0      3.49      0.00
    2    7    0    -44.96      0.00
    4    7    0      9.77      0.00
    6    7    0     26.31      0.00
    8    7    0    -10.96      0.00
   10    7    0    -15.12      0.00
   12    7    0      7.07      0.00
   14    7    0     10.41      0.00
   16    7    0    -18.88      0.00
   18    7    0      0.07      0.00
   20    7    0     10.41      0.00
   22    7    0     -6.41      0.00
   24    7    0      0.84      0.00
   26    7    0     -4.99      0.00
   28    7    0      9.48      0.00
   30    7    0     -9.48      0.00
   32    7    0      6.32      0.00
   34    7    0      1.61      0.00
   36    7    0     -0.96      0.00
   38    7    0      2.91      0.00
   40    7    0     -8.65      0.00
   42    7    0     23.28      0.00
   44    7    0    -26.91      0.00
   46    7    0     10.68      0.00
   48    7    0      5.99      0.00
   50    7    0      2.65      0.00
   52    7    0    -10.71      0.00
   54    7    0     -0.07      0.00
   56    7    0     -5.12      0.00
   58    7    0     12.10      0.00
   60    7    0      3.99      0.00
   62    7    0    -12.29      0.00
   64    7    0      1.62      0.00
    0    8    0     61.79      0.00
    2    8    0    -28.01      0.00
    4    8    0    -18.40      0.00
    6    8    0     12.29      0.00
    8    8    0      5.94      0.00
   10    8    0      0.07      0.00
   12    8    0     -9.38      0.00
   14    8    0      5.67      0.00
   16    8    0      1.67      0.00
   18    8    0      0.61      0.00
   20    8    0     -8.68      0.00
   22    8    0     12.19      0.00
   24    8    0     -3.66      0.00
   26    8    0     -0.24      0.00
   28    8    0      3.24      0.00
   30    8    0     -2.92      0.00
   32    8    0      0.78      0.00
   34    8    0    -11.38      0.00
   36    8    0     22.39      0.00
   38    8    0     -5.03      0.00
   40    8    0    -12.38      0.00
   42    8    0      8.49      0.00
   44    8    0     -6.09      0.00
   46    8    0      2.53      0.00
   48    8    0      2.18      0.00
   50    8    0      0.46      0.00
   52    8    0     11.73      0.00
   54    8    0     -8.25      0.00
   56    8    0     -6.00      0.00
   58    8    0     -1.12      0.00
   60    8    0     14.40      0.00
    2    9    0     30.70      0.00
    4    9    0    -14.96      0.00
    6    9    0     -6.34      0.00
    8    9    0      5.12      0.00
   10    9    0     -0.77      0.00
   12    9    0      4.51      0.00
   14    9    0     -7.65      0.00
   16    9    0      2.95      0.00
   18    9    0      6.66      0.00
   20    9    0     -6.74      0.00
   22    9    0     -4.32      0.00
   24    9    0     -0.17      0.00
   26    9    0      4.28      0.00
   28    9    0     -2.95      0.00
   30    9    0     -1.49      0.00
   32    9    0      4.15      0.00
   34    9    0    -13.27      0.00
   36    9    0     -3.86      0.00
   38    9    0      6.42      0.00
   40    9    0     19.32      0.00
   42    9    0    -17.93      0.00
   44    9    0     -3.12      0.00
   46    9    0     -2.19      0.00
   48    9    0      4.33      0.00
   50    9    0     -0.46      0.00
   52    9    0      3.16      0.00
   54    9    0     13.10      0.00
   56    9    0     -7.65      0.00
   58    9    0    -15.69      0.00
    0   10    0    -38.56      0.00
    2   10    0     16.40      0.00
    4   10    0      6.51      0.00
    6   10    0     -2.73      0.00
    8   10    0     -6.08      0.00
   10   10    0      7.05      0.00
   12   10    0     -2.29      0.00
   14   10    0     -4.92      0.00
   16   10    0     -3.78      0.00
   18   10    0      1.74      0.00
   20   10    0      5.21      0.00
   22   10    0     -3.20      0.00
   24   10    0     -3.52      0.00
   26   10    0      1.68      0.00
   28   10    0     -0.76      0.00
   30   10    0      1.64      0.00
   32   10    0      1.05      0.00
   34   10    0      8.99      0.00
   36   10    0    -11.48      0.00
   38   10    0     -7.59      0.00
   40   10    0     15.14      0.00
   42   10    0      9.49      0.00
   44   10    0     -0.28      0.00
   46   10    0    -13.35      0.00
   48   10    0      8.34      0.00
   50   10    0     -3.63      0.00
   52   10    0    -14.94      0.00
   54   10    0     31.68      0.00
    2   11    0    -21.82      0.00
    4   11    0      5.63      0.00
    6   11    0     12.61      0.00
    8   11    0    -15.11      0.00
   10   11    0      1.62      0.00
   12   11    0     11.51      0.00
   14   11    0     -6.45      0.00
   16   11    0      2.11      0.00
   18   11    0     -3.52      0.00
   20   11    0      3.28      0.00
   22   11    0     -6.36      0.00
   24   11    0      7.91      0.00
   26   11    0      4.40      0.00
   28   11    0     -4.00      0.00
   30   11    0      7.53      0.00
   32   11    0     -6.96      0.00
   34   11    0      7.90      0.00
   36   11    0     -2.27      0.00
   38   11    0      4.89      0.00
   40   11    0    -22.30      0.00
   42   11    0     19.36      0.00
   44   11    0     10.66      0.00
   46   11    0    -18.34      0.00
   48   11    0      4.91      0.00
    2   12    0    -16.28      0.00
    4   12    0    -13.95      0.00
    6   12    0     12.45      0.00
    8   12    0      3.65      0.00
   10   12    0     -9.40      0.00
   12   12    0      7.16      0.00
   14   12    0     -3.91      0.00
   16   12    0      6.03      0.00
   18   12    0      3.03      0.00
   20   12    0      1.13      0.00
   22   12    0      6.53      0.00
   24   12    0    -19.17      0.00
   26   12    0      7.54      0.00
   28   12    0      8.26      0.00
   30   12    0    -11.10      0.00
   32   12    0     17.27      0.00
   34   12    0    -20.20      0.00
   36   12    0      7.97      0.00
   38   12    0      6.19      0.00
   40   12    0    -21.39      0.00
   42   12    0      2.79      0.00
    2   13    0      5.13      0.00
    6   13    0    -28.24      0.00
    8   13    0     11.01      0.00
   10   13    0      7.30      0.00
   12   13    0    -11.49      0.00
   14   13    0     16.71      0.00
   16   13    0    -14.57      0.00
   18   13    0     -8.05      0.00
   20   13    0     15.61      0.00
   22   13    0      5.60      0.00
   24   13    0    -13.22      0.00
   26   13    0      4.38      0.00
   28   13    0     -5.17      0.00
   30   13    0    -10.75      0.00
   32   13    0     26.66      0.00
   34   13    0    -29.27      0.00
   36   13    0     18.96      0.00
    0   14    0     -5.70      0.00
    2   14    0     -4.30      0.00
    4   14    0      5.46      0.00
    8   14    0     -3.35      0.00
   12   14    0     -7.76      0.00
   14   14    0     17.09      0.00
   16   14    0      0.17      0.00
   18   14    0    -14.41      0.00
   20   14    0     -2.18      0.00
   22   14    0      4.94      0.00
   24   14    0      2.66      0.00
   26   14    0     -0.12      0.00
    6    0    1    -87.42      0.00
    7    0    1    -19.47      0.00
    8    0    1     81.00      0.00
    9    0    1    -29.37      0.00
   10    0    1   -108.99      0.00
   11    0    1     98.68      0.00
   12    0    1     51.22      0.00
   13    0    1    -80.03      0.00
   14    0    1     50.81      0.00
   15    0    1     59.48      0.00
   16    0    1    -74.73      0.00
   17    0    1    -43.33      0.00
   18    0    1     -7.75      0.00
   19    0    1      5.57      0.00
   20    0    1     24.45      0.00
   21    0    1     32.83      0.00
   22    0    1     11.71      0.00
   23    0    1    -47.21      0.00
   24    0    1    -24.39      0.00
   25    0    1     33.95      0.00
   26    0    1      3.68      0.00
   27    0    1     -9.73      0.00
   28    0    1     13.43      0.00
   29    0    1      0.05      0.00
   30    0    1    -17.28      0.00
   31    0    1     -3.43      0.00
   32    0    1      6.15      0.00
   33    0    1     -3.93      0.00
   34    0    1     22.84      0.00
   35    0    1      6.67      0.00
   36    0    1     -9.73      0.00
   37    0    1     -7.54      0.00
   38    0    1     -3.88      0.00
   39    0    1     10.13      0.00
   40    0    1      5.03      0.00
   41    0    1     -9.66      0.00
   42    0    1     -1.65      0.00
   43    0    1     10.26      0.00
   44    0    1     -3.26      0.00
   45    0    1     -5.41      0.00
   46    0    1      1.26      0.00
   47    0    1     -6.02      0.00
   48    0    1      3.09      0.00
   49    0    1      5.60      0.00
   50    0    1      1.83      0.00
   51    0    1     -0.22      0.00
   52    0    1      1.40      0.00
   53    0    1      5.09      0.00
   54    0    1     -3.97      0.00
   55    0    1     -9.05      0.00
   56    0    1    -11.49      0.00
   57    0    1      0.52      0.00
   58    0    1     22.14      0.00
   59    0    1     -9.11      0.00
   60    0    1     -7.22      0.00
   61    0    1     16.92      0.00
   62    0    1     11.34      0.00
   63    0    1     -6.49      0.00
   64    0    1     -5.12      0.00
   68    0    1      8.99      0.00
   69    0    1      2.37      0.00
   71    0    1     -4.27      0.00
   72    0    1      6.11      0.00
    3    1    1    -53.67      0.00
    4    1    1     61.62      0.00
    5    1    1    -73.54      0.00
    6    1    1    -26.63      0.00
    7    1    1     57.90      0.00
    8    1    1     37.48      0.00
    9    1    1    -79.70      0.00
   10    1    1    -79.90      0.00
   11    1    1     61.24      0.00
   12    1    1    -58.44      0.00
   13    1    1    -22.20      0.00
   14    1    1     98.46      0.00
   15    1    1     13.38      0.00
   16    1    1    -24.73      0.00
   17    1    1    -14.91      0.00
   18    1    1    -42.09      0.00
   19    1    1     -6.23      0.00
   20    1    1     17.19      0.00
   21    1    1     12.67      0.00
   22    1    1      9.60      0.00
   23    1    1     -7.83      0.00
   24    1    1     -1.02      0.00
   25    1    1     -4.74      0.00
   26    1    1      3.41      0.00
   27    1    1      8.78      0.00
   28    1    1     -4.46      0.00
   29    1    1     -0.23      0.00
   30    1    1      1.36      0.00
   31    1    1      4.61      0.00
   32    1    1     -0.31      0.00
   33    1    1     -5.24      0.00
   34    1    1    -10.29      0.00
   35    1    1     -1.51      0.00
   36    1    1      8.65      0.00
   37    1    1     10.85      0.00
   38    1    1      9.03      0.00
   39    1    1    -10.59      0.00
   40    1    1    -11.87      0.00
   41    1    1      4.01      0.00
   42    1    1     -3.22      0.00
   43    1    1      2.94      0.00
   44    1    1      6.93      0.00
   45    1    1      0.50      0.00
   46    1    1     -5.81      0.00
   47    1    1     -6.25      0.00
   48    1    1      0.94      0.00
   49    1    1      0.58      0.00
   50    1    1     -1.14      0.00
   51    1    1      2.52      0.00
   52    1    1     10.72      0.00
   53    1    1     -4.34      0.00
   54    1    1      0.09      0.00
   55    1    1      9.17      0.00
   56    1    1     -8.67      0.00
   57    1    1     -3.96      0.00
   58    1    1      2.86      0.00
   59    1    1     -4.09      0.00
   60    1    1     -3.54      0.00
   61    1    1     -4.50      0.00
   62    1    1     12.83      0.00
   63    1    1     11.09      0.00
   64    1    1      1.23      0.00
   65    1    1      4.03      0.00
   66    1    1     -8.07      0.00
   67    1    1     -9.54      0.00
   69    1    1      4.16      0.00
   70    1    1      5.59      0.00
    1    2    1    -87.11      0.00
    2    2    1     59.86      0.00
    3    2    1    100.86      0.00
    4    2    1    -70.16      0.00
    5    2    1     -9.38      0.00
    6    2    1    -36.46      0.00
    7    2    1    -10.18      0.00
    8    2    1    116.77      0.00
    9    2    1    -52.89      0.00
   10    2    1    -25.72      0.00
   11    2    1     32.33      0.00
   12    2    1    -25.78      0.00
   13    2    1      3.75      0.00
   14    2    1     -8.92      0.00
   15    2    1    -32.75      0.00
   16    2    1     37.18      0.00
   17    2    1     46.58      0.00
   18    2    1     13.53      0.00
   19    2    1    -33.12      0.00
   20    2    1    -33.97      0.00
   21    2    1     -6.78      0.00
   22    2    1     -3.88      0.00
   23    2    1     26.73      0.00
   24    2    1     26.76      0.00
   25    2    1    -19.94      0.00
   26    2    1     -6.64      0.00
   27    2    1      7.48      0.00
   28    2    1    -19.81      0.00
   29    2    1      0.60      0.00
   30    2    1     16.67      0.00
   31    2    1     -2.00      0.00
   32    2    1     -2.07      0.00
   33    2    1      9.39      0.00
   34    2    1    -11.08      0.00
   35    2    1    -13.29      0.00
   36    2    1     -3.58      0.00
   37    2    1      4.72      0.00
   38    2    1      4.58      0.00
   39    2    1      0.26      0.00
   40    2    1      5.46      0.00
   41    2    1      1.69      0.00
   42    2    1     -3.36      0.00
   43    2    1     -3.51      0.00
   44    2    1     -3.61      0.00
   45    2    1      2.33      0.00
   46    2    1     -1.24      0.00
   47    2    1      2.78      0.00
   48    2    1      8.55      0.00
   49    2    1     -7.94      0.00
   50    2    1     -6.45      0.00
   51    2    1      6.58      0.00
   52    2    1     -4.37      0.00
   53    2    1     -4.63      0.00
   54    2    1      7.44      0.00
   55    2    1      4.04      0.00
   56    2    1      8.62      0.00
   57    2    1     -2.50      0.00
   58    2    1    -21.33      0.00
   59    2    1     10.38      0.00
   60    2    1     -1.53      0.00
   61    2    1    -12.50      0.00
   62    2    1      4.92      0.00
   63    2    1     -2.75      0.00
   64    2    1      1.51      0.00
   65    2    1     14.44      0.00
   66    2    1      2.32      0.00
   67    2    1     -5.83      0.00
   68    2    1     -8.17      0.00
    0    3    1      7.04      0.00
    1    3    1   -119.32      0.00
    2    3    1     14.06      0.00
    3    3    1      0.32      0.00
    4    3    1     -2.29      0.00
    5    3    1     56.00      0.00
    6    3    1     38.84      0.00
    7    3    1    -14.01      0.00
    8    3    1    -43.76      0.00
    9    3    1      1.58      0.00
   10    3    1     23.41      0.00
   11    3    1    -18.89      0.00
   12    3    1     45.27      0.00
   13    3    1     11.43      0.00
   14    3    1    -52.63      0.00
   15    3    1     -0.24      0.00
   16    3    1     16.69      0.00
   17    3    1     -0.31      0.00
   18    3    1     25.87      0.00
   19    3    1     12.37      0.00
   20    3    1    -14.97      0.00
   21    3    1    -14.06      0.00
   22    3    1     -6.08      0.00
   23    3    1      2.95      0.00
   24    3    1      5.47      0.00
   25    3    1     -0.38      0.00
   26    3    1      4.07      0.00
   27    3    1     -1.83      0.00
   28    3    1      0.07      0.00
   29    3    1      0.05      0.00
   30    3    1     -8.25      0.00
   31    3    1     -6.01      0.00
   32    3    1      6.76      0.00
   33    3    1     12.59      0.00
   34    3    1     13.58      0.00
   35    3    1     -6.26      0.00
   36    3    1    -14.05      0.00
   37    3    1     -5.36      0.00
   38    3    1      0.50      0.00
   39    3    1      5.65      0.00
   40    3    1      9.31      0.00
   41    3    1     -4.16      0.00
   42    3    1      2.21      0.00
   43    3    1      1.73      0.00
   44    3    1     -5.26      0.00
   45    3    1      3.04      0.00
   46    3    1      0.64      0.00
   47    3    1     -1.23      0.00
   48    3    1      4.50      0.00
   49    3    1     -1.78      0.00
   50    3    1     -3.18      0.00
   51    3    1      2.36      0.00
   52    3    1      0.15      0.00
   53    3    1     -0.67      0.00
   54    3    1      0.31      0.00
   55    3    1      0.20      0.00
   56    3    1      5.54      0.00
   57    3    1      0.51      0.00
   58    3    1      2.02      0.00
   59    3    1     -7.42      0.00
   60    3    1     -6.00      0.00
   61    3    1     13.28      0.00
   62    3    1      1.53      0.00
   63    3    1    -10.74      0.00
   64    3    1      0.72      0.00
   65    3    1     -0.65      0.00
   66    3    1      2.44      0.00
   67    3    1     11.18      0.00
   68    3    1      7.42      0.00
   69    3    1    -10.78      0.00
    1    4    1     39.88      0.00
    2    4    1    -23.12      0.00
    3    4    1    -55.75      0.00
    4    4    1     11.14      0.00
    5    4    1     14.07      0.00
    6    4    1     11.01      0.00
    7    4    1      8.83      0.00
    8    4    1    -11.28      0.00
    9    4    1     12.36      0.00
   10    4    1      0.16      0.00
   11    4    1     -2.69      0.00
   12    4    1     -0.06      0.00
   13    4    1    -19.15      0.00
   14    4    1      8.77      0.00
   15    4    1     30.88      0.00
   16    4    1    -11.30      0.00
   17    4    1    -25.89      0.00
   18    4    1     -0.05      0.00
   19    4    1      7.72      0.00
   20    4    1     11.62      0.00
   21    4    1     10.87      0.00
   22    4    1      7.31      0.00
   23    4    1    -10.92      0.00
   24    4    1    -15.52      0.00
   25    4    1      9.38      0.00
   26    4    1     -1.49      0.00
   27    4    1     -6.38      0.00
   28    4    1     27.95      0.00
   29    4    1      4.42      0.00
   30    4    1    -12.09      0.00
   31    4    1     -5.65      0.00
   32    4    1    -17.65      0.00
   33    4    1      0.81      0.00
   34    4    1     17.55      0.00
   35    4    1      8.82      0.00
   36    4    1     11.32      0.00
   37    4    1     -7.96      0.00
   38    4    1    -24.02      0.00
   39    4    1      7.12      0.00
   40    4    1     10.03      0.00
   41    4    1     -3.92      0.00
   42    4    1      4.59      0.00
   43    4    1     -2.26      0.00
   44    4    1     -8.03      0.00
   45    4    1      7.53      0.00
   46    4    1      5.42      0.00
   47    4    1     -2.33      0.00
   48    4    1     -5.75      0.00
   49    4    1     -4.17      0.00
   50    4    1      5.80      0.00
   51    4    1      2.25      0.00
   52    4    1     -8.56      0.00
   53    4    1      4.08      0.00
   54    4    1     12.24      0.00
   55    4    1     -3.88      0.00
   56    4    1     -2.34      0.00
   57    4    1     10.47      0.00
   58    4    1     -5.22      0.00
   59    4    1     -9.34      0.00
   60    4    1      3.65      0.00
   61    4    1      1.95      0.00
   62    4    1      5.21      0.00
   63    4    1      0.98      0.00
   64    4    1     -2.83      0.00
   65    4    1     -2.73      0.00
   66    4    1      2.35      0.00
   67    4    1      9.05      0.00
   68    4    1     -7.97      0.00
    0    5    1     -4.95      0.00
    1    5    1     48.70      0.00
    2    5    1      3.67      0.00
    3    5    1     -6.22      0.00
    4    5    1     -6.72      0.00
    5    5    1    -10.72      0.00
    6    5    1     -7.89      0.00
    7    5    1      1.97      0.00
    8    5    1     15.10      0.00
    9    5    1     -5.81      0.00
   10    5    1     -4.57      0.00
   11    5    1     17.66      0.00
   12    5    1    -12.68      0.00
   13    5    1    -15.84      0.00
   14    5    1      6.64      0.00
   15    5    1     10.10      0.00
   16    5    1      7.33      0.00
   17    5    1      4.71      0.00
   18    5    1    -17.33      0.00
   19    5    1    -10.90      0.00
   20    5    1      1.71      0.00
   21    5    1      8.22      0.00
   22    5    1     14.16      0.00
   23    5    1     -6.84      0.00
   24    5    1     -8.30      0.00
   25    5    1      9.23      0.00
   26    5    1    -12.45      0.00
   27    5    1     -1.91      0.00
   28    5    1      7.47      0.00
   29    5    1     -3.51      0.00
   30    5    1     -1.80      0.00
   31    5    1     10.76      0.00
   32    5    1      7.22      0.00
   33    5    1    -13.99      0.00
   34    5    1    -21.49      0.00
   35    5    1      6.33      0.00
   36    5    1      9.92      0.00
   37    5    1      3.25      0.00
   38    5    1      2.99      0.00
   39    5    1     -7.15      0.00
   40    5    1     -9.14      0.00
   41    5    1      3.17      0.00
   42    5    1      2.68      0.00
   43    5    1      0.38      0.00
   44    5    1     -0.11      0.00
   46    5    1     -9.03      0.00
   47    5    1      5.91      0.00
   48    5    1     12.85      0.00
   49    5    1     -1.18      0.00
   50    5    1     -6.76      0.00
   51    5    1     -7.43      0.00
   52    5    1    -12.21      0.00
   53    5    1      4.15      0.00
   54    5    1      5.18      0.00
   55    5    1     -1.25      0.00
   56    5    1     10.04      0.00
   57    5    1      1.40      0.00
   58    5    1    -11.66      0.00
   59    5    1      7.14      0.00
   60    5    1     -6.48      0.00
   61    5    1     -5.64      0.00
   62    5    1     -2.43      0.00
   63    5    1     -1.29      0.00
   64    5    1     -1.49      0.00
   65    5    1     -2.85      0.00
   66    5    1      7.69      0.00
   67    5    1      1.16      0.00
   68    5    1     -5.68      0.00
    1    6    1    -17.18      0.00
    2    6    1     10.92      0.00
    3    6    1     24.52      0.00
    4    6    1     -7.04      0.00
    5    6    1     -5.65      0.00
    6    6    1    -12.90      0.00
    7    6    1      2.24      0.00
    8    6    1      7.43      0.00
    9    6    1     -6.47      0.00
   10    6    1     10.15      0.00
   11    6    1     -1.15      0.00
   12    6    1    -11.51      0.00
   13    6    1      6.80      0.00
   14    6    1     -8.95      0.00
   15    6    1     -6.09      0.00
   16    6    1     17.87      0.00
   17    6    1      4.27      0.00
   18    6    1    -16.78      0.00
   19    6    1      1.25      0.00
   20    6    1     -4.64      0.00
   21    6    1     -4.88      0.00
   22    6    1      5.03      0.00
   23    6    1     -0.86      0.00
   24    6    1      0.99      0.00
   25    6    1      4.37      0.00
   26    6    1      6.91      0.00
   27    6    1     -4.44      0.00
   28    6    1    -19.03      0.00
   29    6    1     -0.45      0.00
   30    6    1      6.42      0.00
   31    6    1      3.36      0.00
   32    6    1     12.81      0.00
   33    6    1     -2.45      0.00
   34    6    1    -10.61      0.00
   35    6    1     -3.27      0.00
   36    6    1     -4.69      0.00
   37    6    1      4.91      0.00
   38    6    1     12.95      0.00
   39    6    1     -2.60      0.00
   40    6    1     -6.91      0.00
   41    6    1     -0.15      0.00
   42    6    1      7.70      0.00
   43    6    1     -5.16      0.00
   44    6    1     -2.78      0.00
   45    6    1      5.06      0.00
   46    6    1     -5.98      0.00
   47    6    1     -2.70      0.00
   48    6    1      7.16      0.00
   49    6    1      3.16      0.00
   50    6    1     -0.92      0.00
   51    6    1     -2.25      0.00
   52    6    1      1.55      0.00
   53    6    1     -3.53      0.00
   54    6    1    -10.35      0.00
   55    6    1      0.39      0.00
   56    6    1      9.15      0.00
   57    6    1     -4.84      0.00
   58    6    1     -5.40      0.00
   59    6    1      5.60      0.00
   60    6    1      6.94      0.00
   61    6    1     -2.45      0.00
   62    6    1      1.40      0.00
   63    6    1     -3.19      0.00
   64    6    1    -17.19      0.00
   65    6    1      4.31      0.00
   66    6    1     12.15      0.00
    0    7    1     -6.58      0.00
    1    7    1    -25.68      0.00
    2    7    1      3.72      0.00
    3    7    1     -0.75      0.00
    4    7    1     -1.12      0.00
    5    7    1      8.44      0.00
    6    7    1      4.69      0.00
    7    7    1     -0.22      0.00
    8    7    1    -15.38      0.00
    9    7    1      4.89      0.00
   10    7    1      6.92      0.00
   11    7    1    -13.96      0.00
   12    7    1      7.25      0.00
   13    7    1      5.62      0.00
   14    7    1     -6.88      0.00
   15    7    1     -1.31      0.00
   16    7    1     -2.95      0.00
   17    7    1      1.04      0.00
   18    7    1     12.57      0.00
   19    7    1      2.71      0.00
   20    7    1     -4.18      0.00
   21    7    1     -6.10      0.00
   22    7    1    -11.70      0.00
   23    7    1      3.97      0.00
   24    7    1     10.79      0.00
   25    7    1     -5.38      0.00
   26    7    1      4.71      0.00
   27    7    1      4.38      0.00
   28    7    1     -1.14      0.00
   29    7    1      1.08      0.00
   30    7    1     -6.46      0.00
   31    7    1     -4.59      0.00
   32    7    1      5.83      0.00
   33    7    1      3.92      0.00
   34    7    1      4.73      0.00
   35    7    1      0.12      0.00
   36    7    1     -3.29      0.00
   37    7    1     -2.99      0.00
   38    7    1      0.38      0.00
   39    7    1      4.44      0.00
   40    7    1     -5.82      0.00
   41    7    1     -1.49      0.00
   42    7    1      7.84      0.00
   43    7    1     -0.01      0.00
   44    7    1      3.56      0.00
   45    7    1     -3.29      0.00
   46    7    1     -1.90      0.00
   47    7    1      2.77      0.00
   48    7    1     -6.16      0.00
   49    7    1      2.58      0.00
   50    7    1      8.11      0.00
   51    7    1     -2.22      0.00
   52    7    1     -3.70      0.00
   53    7    1     -2.02      0.00
   54    7    1     11.67      0.00
   55    7    1     -0.20      0.00
   56    7    1     -8.34      0.00
   57    7    1      1.64      0.00
   58    7    1      3.53      0.00
   59    7    1     -1.54      0.00
   60    7    1      5.65      0.00
   61    7    1      3.47      0.00
   62    7    1     -5.17      0.00
   63    7    1     -3.02      0.00
   64    7    1     12.66      0.00
    1    8    1     10.26      0.00
    2    8    1      2.20      0.00
    3    8    1    -12.30      0.00
    4    8    1     -7.76      0.00
    5    8    1     -3.57      0.00
    6    8    1     11.92      0.00
    7    8    1      0.35      0.00
    8    8    1     -4.42      0.00
    9    8    1      8.59      0.00
   10    8    1     -5.01      0.00
   11    8    1      0.59      0.00
   12    8    1      8.32      0.00
   13    8    1    -10.31      0.00
   14    8    1     -1.77      0.00
   15    8    1      5.47      0.00
   16    8    1     -1.02      0.00
   17    8    1      0.59      0.00
   18    8    1      0.14      0.00
   19    8    1     -4.64      0.00
   20    8    1     -0.05      0.00
   21    8    1      8.61      0.00
   22    8    1      4.25      0.00
   23    8    1     -5.53      0.00
   24    8    1     -7.45      0.00
   25    8    1      0.44      0.00
   26    8    1     -0.54      0.00
   27    8    1      1.39      0.00
   28    8    1      8.70      0.00
   29    8    1     -0.76      0.00
   30    8    1     -8.39      0.00
   31    8    1      1.70      0.00
   32    8    1     -3.28      0.00
   33    8    1     -5.23      0.00
   34    8    1      0.73      0.00
   35    8    1      7.02      0.00
   36    8    1      0.80      0.00
   37    8    1     -3.98      0.00
   38    8    1      1.82      0.00
   39    8    1     -0.03      0.00
   40    8    1     -0.45      0.00
   41    8    1      3.42      0.00
   42    8    1    -11.04      0.00
   43    8    1     -1.11      0.00
   44    8    1      9.33      0.00
   45    8    1     -4.84      0.00
   46    8    1     -0.80      0.00
   47    8    1      3.32      0.00
   48    8    1     -4.01      0.00
   49    8    1      0.08      0.00
   50    8    1      8.06      0.00
   51    8    1      7.85      0.00
   52    8    1    -12.19      0.00
   53    8    1     -7.25      0.00
   54    8    1      7.37      0.00
   55    8    1     -0.41      0.00
   56    8    1      4.58      0.00
   57    8    1      4.15      0.00
   58    8    1     -0.17      0.00
   59    8    1     -5.14      0.00
   60    8    1     -8.91      0.00
   61    8    1      8.66      0.00
    0    9    1     21.25      0.00
    1    9    1     13.84      0.00
    2    9    1     -9.69      0.00
    3    9    1      6.79      0.00
    4    9    1     -3.53      0.00
    5    9    1     -5.18      0.00
    6    9    1     -1.38      0.00
    7    9    1     -5.92      0.00
    8    9    1      8.04      0.00
    9    9    1      1.55      0.00
   10    9    1     -3.37      0.00
   11    9    1      3.80      0.00
   12    9    1    -12.07      0.00
   13    9    1      0.17      0.00
   14    9    1     15.30      0.00
   15    9    1     -3.34      0.00
   16    9    1     -1.38      0.00
   17    9    1      2.93      0.00
   18    9    1    -11.23      0.00
   19    9    1      1.48      0.00
   20    9    1      4.61      0.00
   21    9    1     -3.47      0.00
   22    9    1      4.04      0.00
   23    9    1     -2.38      0.00
   24    9    1     -6.56      0.00
   25    9    1      4.70      0.00
   26    9    1     -3.16      0.00
   27    9    1     -2.32      0.00
   28    9    1     10.38      0.00
   29    9    1     -1.51      0.00
   30    9    1     -1.44      0.00
   31    9    1      4.49      0.00
   32    9    1     -2.32      0.00
   33    9    1     -4.27      0.00
   34    9    1     -3.78      0.00
   35    9    1     -2.45      0.00
   36    9    1      3.09      0.00
   37    9    1      3.43      0.00
   38    9    1      3.70      0.00
   39    9    1      0.21      0.00
   40    9    1     -1.46      0.00
   41    9    1     -1.76      0.00
   42    9    1     -1.88      0.00
   43    9    1      3.53      0.00
   44    9    1     11.47      0.00
   45    9    1     -0.40      0.00
   46    9    1     -7.67      0.00
   47    9    1     -3.61      0.00
   48    9    1     -3.19      0.00
   49    9    1     -0.71      0.00
   50    9    1      2.13      0.00
   51    9    1      4.37      0.00
   52    9    1      4.05      0.00
   53    9    1      5.41      0.00
   54    9    1     -9.13      0.00
   55    9    1     -6.62      0.00
   56    9    1      4.36      0.00
   57    9    1      0.72      0.00
   58    9    1      5.30      0.00
    1   10    1    -11.12      0.00
    2   10    1      0.66      0.00
    3   10    1     12.35      0.00
    4   10    1     16.35      0.00
    5   10    1      0.73      0.00
    6   10    1    -26.27      0.00
    7   10    1      1.87      0.00
    8   10    1     13.09      0.00
    9   10    1     -4.55      0.00
   10   10    1      3.79      0.00
   11   10    1      1.77      0.00
   12   10    1    -11.68      0.00
   13   10    1     -2.20      0.00
   14   10    1      7.91      0.00
   15   10    1     -0.91      0.00
   16   10    1      1.50      0.00
   17   10    1      0.14      0.00
   18   10    1      2.05      0.00
   19   10    1      0.27      0.00
   20   10    1     -5.34      0.00
   21   10    1      4.50      0.00
   22   10    1      3.08      0.00
   23   10    1     -5.45      0.00
   24   10    1      2.04      0.00
   25   10    1      0.65      0.00
   26   10    1      3.68      0.00
   27   10    1     -1.42      0.00
   28   10    1     -8.08      0.00
   29   10    1     -0.16      0.00
   30   10    1      8.45      0.00
   31   10    1      4.75      0.00
   32   10    1     15.18      0.00
   33   10    1     -2.72      0.00
   34   10    1    -22.13      0.00
   35   10    1      0.75      0.00
   36   10    1      8.05      0.00
   37   10    1     -0.97      0.00
   38   10    1      9.22      0.00
   39   10    1      0.19      0.00
   40   10    1    -12.94      0.00
   41   10    1      4.07      0.00
   42   10    1      6.18      0.00
   43   10    1     -3.71      0.00
   44   10    1      0.05      0.00
   45   10    1      2.54      0.00
   46   10    1     -1.31      0.00
   47   10    1     -0.20      0.00
   48   10    1      9.83      0.00
   49   10    1      1.36      0.00
   50   10    1     -5.65      0.00
   51   10    1     -6.84      0.00
   52   10    1    -16.02      0.00
   53   10    1      7.03      0.00
   54   10    1      9.89      0.00
    0   11    1    -26.60      0.00
    1   11    1     -8.99      0.00
    2   11    1     10.89      0.00
    3   11    1     -3.26      0.00
    4   11    1     10.51      0.00
    5   11    1      2.52      0.00
    6   11    1     -2.26      0.00
    7   11    1     -0.10      0.00
    8   11    1    -11.39      0.00
    9   11    1      0.71      0.00
   10   11    1     12.57      0.00
   11   11    1      1.72      0.00
   12   11    1     -4.45      0.00
   13   11    1     -3.71      0.00
   14   11    1     -2.42      0.00
   15   11    1      3.74      0.00
   16   11    1      4.26      0.00
   17   11    1     -4.15      0.00
   18   11    1      4.78      0.00
   19   11    1     -4.09      0.00
   20   11    1      6.89      0.00
   21   11    1      9.47      0.00
   22   11    1     -9.81      0.00
   23   11    1     -4.73      0.00
   24   11    1     -9.06      0.00
   25   11    1      2.79      0.00
   26   11    1     19.39      0.00
   27   11    1     -2.80      0.00
   28   11    1    -11.07      0.00
   29   11    1      2.94      0.00
   30   11    1     -6.17      0.00
   31   11    1     -1.73      0.00
   32   11    1     15.00      0.00
   33   11    1     -1.96      0.00
   34   11    1     -7.33      0.00
   35   11    1     11.18      0.00
   36   11    1     -0.42      0.00
   37   11    1    -16.18      0.00
   38   11    1    -10.51      0.00
   39   11    1     10.22      0.00
   40   11    1      8.46      0.00
   41   11    1     -2.12      0.00
   42   11    1     -5.01      0.00
   43   11    1     -1.10      0.00
   44   11    1     -1.40      0.00
   45   11    1      3.82      0.00
   46   11    1     -9.21      0.00
   47   11    1     -9.80      0.00
   48   11    1     10.49      0.00
   49   11    1      6.83      0.00
    1   12    1      1.84      0.00
    2   12    1      5.38      0.00
    3   12    1     -1.45      0.00
    4   12    1    -10.52      0.00
    5   12    1     -5.06      0.00
    6   12    1     12.35      0.00
    7   12    1     11.00      0.00
    8   12    1     -1.29      0.00
    9   12    1     -9.57      0.00
   10   12    1     -5.49      0.00
   11   12    1     -0.24      0.00
   12   12    1      6.36      0.00
   13   12    1      8.91      0.00
   14   12    1     -4.75      0.00
   15   12    1     -6.58      0.00
   16   12    1     -3.45      0.00
   17   12    1      6.18      0.00
   18   12    1     -4.23      0.00
   19   12    1     -5.30      0.00
   20   12    1     13.80      0.00
   21   12    1      3.12      0.00
   22   12    1      3.91      0.00
   23   12    1      0.32      0.00
   24   12    1    -16.83      0.00
   25   12    1      2.21      0.00
   26   12    1      4.60      0.00
   27   12    1     -2.27      0.00
   28   12    1     -5.11      0.00
   29   12    1     -1.36      0.00
   30   12    1      1.29      0.00
   31   12    1      5.63      0.00
   32   12    1     -4.72      0.00
   33   12    1     -7.03      0.00
   34   12    1     11.15      0.00
   35   12    1      6.17      0.00
   36   12    1     -8.19      0.00
   37   12    1     -4.12      0.00
   38   12    1     -2.85      0.00
   39   12    1     -1.61      0.00
   40   12    1     12.65      0.00
   41   12    1      0.70      0.00
   42   12    1    -17.53      0.00
   43   12    1     -2.20      0.00
    1   13    1     -9.98      0.00
    2   13    1    -11.71      0.00
    3   13    1      0.54      0.00
    4   13    1      1.73      0.00
    5   13    1      0.80      0.00
    6   13    1      3.95      0.00
    7   13    1     -0.61      0.00
    8   13    1      1.72      0.00
    9   13    1      9.07      0.00
   10   13    1     -9.00      0.00
   11   13    1     -8.17      0.00
   12   13    1      5.57      0.00
   13   13    1      0.33      0.00
   14   13    1     -1.36      0.00
   15   13    1      4.31      0.00
   16   13    1      2.76      0.00
   17   13    1     -1.92      0.00
   18   13    1    -11.45      0.00
   19   13    1      3.11      0.00
   20   13    1     -7.65      0.00
   21   13    1     -5.98      0.00
   22   13    1     17.16      0.00
   23   13    1      3.37      0.00
   24   13    1      0.75      0.00
   25   13    1      3.13      0.00
   26   13    1     -8.34      0.00
   27   13    1     -2.57      0.00
   28   13    1      3.84      0.00
   29   13    1     -3.86      0.00
   30   13    1     -6.51      0.00
   31   13    1      4.53      0.00
   32   13    1      4.05      0.00
   33   13    1     -1.15      0.00
   34   13    1      5.47      0.00
   35   13    1     -2.98      0.00
   36   13    1     -9.19      0.00
    2   14    1      9.70      0.00
    3   14    1     -6.44      0.00
    4   14    1     -9.76      0.00
    6   14    1    -11.46      0.00
    8   14    1     24.34      0.00
   10   14    1     -7.74      0.00
   11   14    1      2.30      0.00
   12   14    1    -11.32      0.00
   13   14    1     -6.63      0.00
   14   14    1      7.67      0.00
   15   14    1      1.54      0.00
   16   14    1      3.89      0.00
   17   14    1     -0.31      0.00
   18   14    1      5.53      0.00
   19   14    1      2.89      0.00
   20   14    1    -16.83      0.00
   21   14    1     -6.54      0.00
   22   14    1      5.87      0.00
   23   14    1      0.50      0.00
   24   14    1      5.41      0.00
   25   14    1      5.05      0.00
   26   14    1      0.39      0.00
    4    0    2    181.13      0.00
    5    0    2   -119.95      0.00
    6    0    2   -141.75      0.00
    7    0    2    197.20      0.00
    8    0    2    -81.42      0.00
    9    0    2    -68.44      0.00
   10    0    2    127.30      0.00
   11    0    2    -26.32      0.00
   12    0    2    -69.14      0.00
   13    0    2     15.30      0.00
   14    0    2    -29.12      0.00
   15    0    2    -17.44      0.00
   16    0    2     37.71      0.00
   17    0    2    -31.50      0.00
   18    0    2    -23.85      0.00
   19    0    2     54.89      0.00
   20    0    2     27.14      0.00
   21    0    2    -31.29      0.00
   22    0    2    -31.33      0.00
   23    0    2      3.05      0.00
   24    0    2      5.83      0.00
   25    0    2      2.74      0.00
   26    0    2     35.85      0.00
   27    0    2     -3.80      0.00
   28    0    2    -29.17      0.00
   29    0    2      9.79      0.00
   30    0    2     -4.54      0.00
   31    0    2    -15.32      0.00
   32    0    2      1.71      0.00
   33    0    2     23.12      0.00
   34    0    2      9.50      0.00
   35    0    2     -9.84      0.00
   36    0    2     -0.29      0.00
   37    0    2      0.95      0.00
   38    0    2    -10.58      0.00
   39    0    2      5.60      0.00
   40    0    2      2.64      0.00
   41    0    2     -4.52      0.00
   42    0    2      6.90      0.00
   43    0    2      2.20      0.00
   44    0    2     -5.92      0.00
   45    0    2     -7.60      0.00
   46    0    2     -5.74      0.00
   47    0    2     12.56      0.00
   48    0    2      7.90      0.00
   49    0    2     -9.92      0.00
   50    0    2     -1.69      0.00
   51    0    2      3.54      0.00
   52    0    2      2.39      0.00
   53    0    2     -4.08      0.00
   54    0    2     -0.49      0.00
   55    0    2      3.26      0.00
   56    0    2      6.72      0.00
   57    0    2     -4.46      0.00
   58    0    2    -11.29      0.00
   59    0    2      6.61      0.00
   60    0    2      3.87      0.00
   61    0    2      1.93      0.00
   62    0    2      2.33      0.00
   63    0    2      0.00      0.00
   64    0    2     11.06      0.00
   65    0    2     -3.32      0.00
   67    0    2      2.32      0.00
   68    0    2     10.91      0.00
   69    0    2      3.45      0.00
   70    0    2     -6.58      0.00
   71    0    2      0.80      0.00
    1    1    2     29.89      0.00
    2    1    2    -10.29      0.00
    3    1    2    -88.24      0.00
    4    1    2   -154.31      0.00
    5    1    2     85.77      0.00
    6    1    2    217.66      0.00
    7    1    2   -161.80      0.00
    8    1    2    -71.45      0.00
    9    1    2     93.41      0.00
   10    1    2    -34.78      0.00
   11    1    2    -11.36      0.00
   12    1    2     56.85      0.00
   13    1    2     -9.96      0.00
   14    1    2     -7.45      0.00
   15    1    2    -10.27      0.00
   16    1    2     -5.26      0.00
   17    1    2    -14.10      0.00
   18    1    2    -15.62      0.00
   19    1    2     15.33      0.00
   20    1    2     40.44      0.00
   21    1    2    -18.27      0.00
   22    1    2    -24.95      0.00
   23    1    2     29.33      0.00
   24    1    2     -9.92      0.00
   25    1    2    -16.70      0.00
   26    1    2     20.72      0.00
   27    1    2     -0.95      0.00
   28    1    2      0.73      0.00
   29    1    2     13.01      0.00
   30    1    2    -10.56      0.00
   31    1    2     -8.96      0.00
   32    1    2     -1.76      0.00
   33    1    2     -1.45      0.00
   34    1    2     -4.48      0.00
   35    1    2      8.18      0.00
   36    1    2      3.68      0.00
   37    1    2     -2.08      0.00
   38    1    2      0.15      0.00
   39    1    2     -8.33      0.00
   40    1    2     -1.65      0.00
   41    1    2     13.59      0.00
   42    1    2     -3.04      0.00
   43    1    2     -9.95      0.00
   44    1    2      8.93      0.00
   45    1    2     -1.55      0.00
   46    1    2     -9.77      0.00
   47    1    2      2.07      0.00
   48    1    2      1.41      0.00
   49    1    2      7.03      0.00
   50    1    2      7.14      0.00
   51    1    2     -5.83      0.00
   52    1    2    -13.62      0.00
   53    1    2      3.48      0.00
   54    1    2      8.64      0.00
   55    1    2      2.58      0.00
   56    1    2      2.95      0.00
   57    1    2    -12.70      0.00
   58    1    2    -10.83      0.00
   59    1    2     21.96      0.00
   60    1    2     -0.89      0.00
   61    1    2    -15.88      0.00
   62    1    2     -5.43      0.00
   63    1    2     10.51      0.00
   64    1    2      3.22      0.00
   65    1    2      3.66      0.00
   66    1    2      4.18      0.00
   67    1    2     -7.16      0.00
   68    1    2     -4.43      0.00
   69    1    2     -1.09      0.00
   70    1    2    -13.87      0.00
   71    1    2      3.40      0.00
   72    1    2     11.03      0.00
    0    2    2     93.86      0.00
    1    2    2      5.20      0.00
    2    2    2    -33.46      0.00
    3    2    2     13.10      0.00
    4    2    2     16.15      0.00
    5    2    2      3.34      0.00
    6    2    2    -13.03      0.00
    7    2    2      8.82      0.00
    8    2    2     19.42      0.00
    9    2    2    -36.46      0.00
   10    2    2      4.26      0.00
   11    2    2     31.97      0.00
   12    2    2      8.30      0.00
   13    2    2      3.93      0.00
   14    2    2     -7.29      0.00
   15    2    2     -7.32      0.00
   16    2    2     18.30      0.00
   17    2    2     24.10      0.00
   18    2    2     -3.94      0.00
   19    2    2    -28.69      0.00
   20    2    2    -12.19      0.00
   21    2    2     10.80      0.00
   22    2    2     18.53      0.00
   23    2    2      4.01      0.00
   24    2    2     -8.81      0.00
   25    2    2      0.08      0.00
   26    2    2    -17.39      0.00
   27    2    2     -3.24      0.00
   28    2    2     25.41      0.00
   29    2    2     -7.54      0.00
   30    2    2     -3.90      0.00
   31    2    2      8.23      0.00
   32    2    2     -4.94      0.00
   33    2    2     -8.76      0.00
   34    2    2      1.51      0.00
   35    2    2      5.17      0.00
   36    2    2      3.92      0.00
   37    2    2     -8.30      0.00
   38    2    2     -3.18      0.00
   39    2    2      4.38      0.00
   40    2    2      3.84      0.00
   41    2    2      4.47      0.00
   42    2    2     -0.11      0.00
   43    2    2     -6.28      0.00
   44    2    2      5.44      0.00
   45    2    2      5.29      0.00
   46    2    2     -5.24      0.00
   47    2    2     -7.41      0.00
   48    2    2     -2.68      0.00
   49    2    2      3.70      0.00
   50    2    2      3.65      0.00
   51    2    2      3.23      0.00
   52    2    2      1.08      0.00
   53    2    2      3.99      0.00
   54    2    2     -3.75      0.00
   55    2    2     -4.18      0.00
   56    2    2     -0.51      0.00
   57    2    2     -5.27      0.00
   58    2    2      8.42      0.00
   59    2    2      1.50      0.00
   60    2    2      1.39      0.00
   61    2    2     -0.30      0.00
   62    2    2    -17.23      0.00
   63    2    2      3.59      0.00
   64    2    2      1.72      0.00
   65    2    2     -7.27      0.00
   66    2    2     23.75      0.00
   67    2    2      5.82      0.00
   68    2    2    -17.31      0.00
   69    2    2      1.11      0.00
   70    2    2      9.43      0.00
   71    2    2    -15.42      0.00
   72    2    2     -9.74      0.00
    1    3    2     10.97      0.00
    2    3    2      9.15      0.00
    3    3    2     -5.86      0.00
    4    3    2      0.70      0.00
    5    3    2     16.27      0.00
    6    3    2    -18.05      0.00
    7    3    2     12.59      0.00
    8    3    2     17.61      0.00
    9    3    2     -1.99      0.00
   10    3    2     -1.88      0.00
   11    3    2     -1.07      0.00
   12    3    2    -16.58      0.00
   13    3    2      5.60      0.00
   14    3    2      0.66      0.00
   15    3    2      6.19      0.00
   16    3    2     -0.10      0.00
   17    3    2     -1.74      0.00
   18    3    2     17.65      0.00
   19    3    2      5.22      0.00
   20    3    2    -22.73      0.00
   21    3    2     -4.91      0.00
   22    3    2     11.27      0.00
   23    3    2     -2.41      0.00
   24    3    2      7.38      0.00
   25    3    2      4.95      0.00
   26    3    2    -10.69      0.00
   27    3    2      4.98      0.00
   28    3    2      1.04      0.00
   29    3    2     -8.76      0.00
   30    3    2      9.37      0.00
   31    3    2      0.60      0.00
   32    3    2     -4.64      0.00
   33    3    2      7.59      0.00
   34    3    2      6.61      0.00
   35    3    2     -5.37      0.00
   36    3    2     -6.75      0.00
   37    3    2      1.92      0.00
   38    3    2      1.72      0.00
   39    3    2      5.97      0.00
   40    3    2      3.03      0.00
   41    3    2    -15.21      0.00
   42    3    2     -6.24      0.00
   43    3    2     16.94      0.00
   44    3    2      8.04      0.00
   45    3    2      1.55      0.00
   46    3    2      1.04      0.00
   47    3    2     -9.67      0.00
   48    3    2    -10.23      0.00
   49    3    2      0.79      0.00
   50    3    2      5.32      0.00
   51    3    2      1.39      0.00
   52    3    2      1.93      0.00
   53    3    2      4.09      0.00
   54    3    2     -0.73      0.00
   55    3    2     -1.48      0.00
   56    3    2      0.72      0.00
   57    3    2      6.47      0.00
   58    3    2      1.72      0.00
   59    3    2    -11.85      0.00
   60    3    2      5.95      0.00
   61    3    2      5.23      0.00
   62    3    2     -3.48      0.00
   63    3    2      5.18      0.00
   64    3    2      4.07      0.00
   65    3    2     -5.36      0.00
   66    3    2    -10.39      0.00
   67    3    2      2.47      0.00
   68    3    2     11.06      0.00
   69    3    2      4.49      0.00
   70    3    2      4.99      0.00
   71    3    2     -5.86      0.00
    0    4    2    -26.67      0.00
    1    4    2      8.87      0.00
    2    4    2      4.34      0.00
    3    4    2    -14.99      0.00
    4    4    2     15.39      0.00
    5    4    2      3.80      0.00
    6    4    2    -21.33      0.00
    7    4    2      8.86      0.00
    8    4    2    -17.38      0.00
    9    4    2     -3.75      0.00
   10    4    2     38.95      0.00
   11    4    2     -6.72      0.00
   12    4    2    -23.60      0.00
   13    4    2     14.13      0.00
   14    4    2     -4.31      0.00
   15    4    2    -11.24      0.00
   16    4    2      1.31      0.00
   17    4    2     -4.29      0.00
   18    4    2     -3.11      0.00
   19    4    2     23.37      0.00
   20    4    2     11.67      0.00
   21    4    2    -18.92      0.00
   22    4    2    -17.18      0.00
   23    4    2      8.38      0.00
   24    4    2      9.37      0.00
   25    4    2     -2.03      0.00
   26    4    2      4.51      0.00
   27    4    2      4.66      0.00
   28    4    2    -19.50      0.00
   29    4    2      4.40      0.00
   30    4    2     10.47      0.00
   31    4    2     -5.22      0.00
   32    4    2      3.15      0.00
   33    4    2     -4.55      0.00
   34    4    2     -9.39      0.00
   35    4    2      9.07      0.00
   36    4    2     -1.41      0.00
   37    4    2     -0.12      0.00
   38    4    2      5.97      0.00
   39    4    2     -4.54      0.00
   40    4    2     -8.76      0.00
   41    4    2      4.97      0.00
   42    4    2     -3.14      0.00
   43    4    2    -11.23      0.00
   44    4    2      6.89      0.00
   45    4    2      6.18      0.00
   46    4    2      0.77      0.00
   47    4    2      4.50      0.00
   48    4    2     -5.91      0.00
   49    4    2     -2.59      0.00
   50    4    2      3.14      0.00
   51    4    2     -7.58      0.00
   52    4    2     -6.72      0.00
   53    4    2      6.58      0.00
   54    4    2     -4.93      0.00
   55    4    2      2.79      0.00
   56    4    2     16.30      0.00
   57    4    2     -5.66      0.00
   58    4    2     -3.83      0.00
   59    4    2      4.60      0.00
   60    4    2    -22.69      0.00
   61    4    2      0.48      0.00
   62    4    2     15.12      0.00
   63    4    2     -8.07      0.00
   64    4    2      0.62      0.00
   65    4    2      8.12      0.00
   66    4    2    -10.06      0.00
   67    4    2      5.71      0.00
   68    4    2      5.14      0.00
   69    4    2    -14.87      0.00
   70    4    2     -2.83      0.00
    1    5    2     14.59      0.00
    2    5    2     -6.68      0.00
    3    5    2    -27.21      0.00
    4    5    2    -10.82      0.00
    5    5    2     16.86      0.00
    6    5    2     29.89      0.00
    7    5    2    -14.17      0.00
    8    5    2    -25.23      0.00
    9    5    2     -0.40      0.00
   10    5    2     -6.90      0.00
   11    5    2     10.84      0.00
   12    5    2     24.60      0.00
   13    5    2     -2.67      0.00
   14    5    2     -6.79      0.00
   15    5    2     -7.83      0.00
   16    5    2    -12.63      0.00
   17    5    2     -1.10      0.00
   18    5    2     -2.99      0.00
   19    5    2      4.00      0.00
   20    5    2     14.21      0.00
   21    5    2     -1.06      0.00
   22    5    2    -13.17      0.00
   23    5    2      2.04      0.00
   24    5    2     -2.85      0.00
   25    5    2     -5.37      0.00
   26    5    2     13.41      0.00
   27    5    2     -7.36      0.00
   28    5    2     -8.65      0.00
   29    5    2     13.61      0.00
   30    5    2     -9.99      0.00
   31    5    2     -5.19      0.00
   32    5    2     10.76      0.00
   33    5    2     -4.79      0.00
   34    5    2     -0.25      0.00
   35    5    2     -2.41      0.00
   36    5    2     -0.47      0.00
   37    5    2      2.06      0.00
   38    5    2     -0.02      0.00
   39    5    2     -3.85      0.00
   40    5    2     -2.70      0.00
   41    5    2      8.21      0.00
   42    5    2      6.79      0.00
   43    5    2     -1.53      0.00
   44    5    2     -5.12      0.00
   45    5    2    -15.31      0.00
   46    5    2     -2.36      0.00
   47    5    2      9.33      0.00
   48    5    2      9.70      0.00
   49    5    2      3.01      0.00
   50    5    2      1.04      0.00
   51    5    2     -9.29      0.00
   52    5    2     -8.51      0.00
   53    5    2      2.18      0.00
   54    5    2     -7.08      0.00
   55    5    2      1.15      0.00
   56    5    2      5.16      0.00
   57    5    2     -4.56      0.00
   58    5    2     10.51      0.00
   59    5    2     -2.95      0.00
   60    5    2     -3.05      0.00
   61    5    2      5.80      0.00
   62    5    2     -5.57      0.00
   63    5    2    -12.65      0.00
   64    5    2    -12.13      0.00
   65    5    2     -2.01      0.00
   66    5    2     14.79      0.00
   67    5    2     14.18      0.00
   68    5    2      1.93      0.00
    0    6    2     19.49      0.00
    1    6    2     -8.61      0.00
    2    6    2     -4.61      0.00
    3    6    2      6.19      0.00
    4    6    2    -15.45      0.00
    5    6    2      8.28      0.00
    6    6    2     11.99      0.00
    7    6    2    -15.14      0.00
    8    6    2      5.77      0.00
    9    6    2     -3.46      0.00
   10    6    2    -16.50      0.00
   11    6    2      9.78      0.00
   12    6    2      1.15      0.00
   13    6    2     -8.39      0.00
   14    6    2     14.00      0.00
   15    6    2      6.16      0.00
   16    6    2     -2.73      0.00
   17    6    2      0.71      0.00
   18    6    2     -0.98      0.00
   19    6    2    -20.07      0.00
   20    6    2     -6.80      0.00
   21    6    2     10.33      0.00
   22    6    2      5.71      0.00
   23    6    2      6.27      0.00
   24    6    2      1.33      0.00
   25    6    2     -5.94      0.00
   26    6    2     -2.14      0.00
   27    6    2     -1.43      0.00
   28    6    2      8.44      0.00
   29    6    2     -5.50      0.00
   30    6    2      0.95      0.00
   31    6    2      3.88      0.00
   32    6    2    -10.89      0.00
   33    6    2      9.85      0.00
   34    6    2      9.02      0.00
   35    6    2     -8.38      0.00
   36    6    2      6.47      0.00
   37    6    2     -3.33      0.00
   38    6    2     -8.99      0.00
   39    6    2      6.30      0.00
   40    6    2      3.64      0.00
   41    6    2     -5.27      0.00
   42    6    2      3.87      0.00
   43    6    2     11.23      0.00
   44    6    2     -1.46      0.00
   45    6    2     -4.91      0.00
   46    6    2     -3.19      0.00
   47    6    2     -2.42      0.00
   48    6    2      5.78      0.00
   49    6    2     -3.49      0.00
   50    6    2     -1.31      0.00
   51    6    2      5.49      0.00
   52    6    2      5.64      0.00
   53    6    2      0.58      0.00
   54    6    2     -2.71      0.00
   55    6    2     -3.37      0.00
   56    6    2     -1.59      0.00
   57    6    2      4.42      0.00
   58    6    2     -0.79      0.00
   59    6    2    -12.15      0.00
   60    6    2      6.15      0.00
   61    6    2     15.52      0.00
   62    6    2     14.52      0.00
   63    6    2     -4.80      0.00
   64    6    2    -11.45      0.00
   65    6    2     -7.29      0.00
   66    6    2     -5.21      0.00
    1    7    2     -5.64      0.00
    2    7    2      8.31      0.00
    3    7    2      5.88      0.00
    4    7    2      2.11      0.00
    5    7    2     -2.11      0.00
    6    7    2    -18.32      0.00
    7    7    2      4.55      0.00
    8    7    2     23.45      0.00
    9    7    2     -6.34      0.00
   10    7    2     -3.06      0.00
   11    7    2     -3.01      0.00
   12    7    2    -13.01      0.00
   13    7    2      2.95      0.00
   14    7    2      3.90      0.00
   15    7    2      1.53      0.00
   16    7    2      5.85      0.00
   17    7    2      3.58      0.00
   18    7    2      7.81      0.00
   19    7    2     -0.02      0.00
   20    7    2    -10.14      0.00
   21    7    2     -8.94      0.00
   22    7    2      4.68      0.00
   23    7    2     -0.11      0.00
   24    7    2     -0.97      0.00
   25    7    2     11.87      0.00
   26    7    2     -5.90      0.00
   27    7    2     -0.80      0.00
   28    7    2      4.88      0.00
   29    7    2     -6.28      0.00
   30    7    2      5.62      0.00
   31    7    2     -1.67      0.00
   32    7    2     -8.50      0.00
   33    7    2     11.16      0.00
   34    7    2     -1.19      0.00
   35    7    2     -7.97      0.00
   36    7    2     -2.41      0.00
   37    7    2      1.29      0.00
   38    7    2      7.40      0.00
   39    7    2      7.97      0.00
   40    7    2      1.10      0.00
   41    7    2    -16.09      0.00
   42    7    2    -20.20      0.00
   43    7    2     13.31      0.00
   44    7    2     17.38      0.00
   45    7    2      1.37      0.00
   46    7    2     -4.65      0.00
   47    7    2      2.35      0.00
   48    7    2     -3.06      0.00
   49    7    2     -8.41      0.00
   50    7    2      6.31      0.00
   51    7    2      0.02      0.00
   52    7    2     -8.24      0.00
   53    7    2      5.28      0.00
   54    7    2      1.63      0.00
   55    7    2     10.54      0.00
   56    7    2     11.63      0.00
   57    7    2     -6.30      0.00
   58    7    2    -13.89      0.00
   59    7    2     -1.42      0.00
   60    7    2      3.02      0.00
   61    7    2      4.99      0.00
   62    7    2      2.66      0.00
   63    7    2     -2.75      0.00
   64    7    2     -1.84      0.00
    0    8    2    -17.01      0.00
    1    8    2      4.69      0.00
    2    8    2     12.52      0.00
    3    8    2     -9.84      0.00
    4    8    2      1.71      0.00
    5    8    2      1.53      0.00
    6    8    2    -11.49      0.00
    7    8    2     11.83      0.00
    8    8    2      0.30      0.00
    9    8    2     -7.68      0.00
   10    8    2     15.39      0.00
   11    8    2      0.30      0.00
   12    8    2     -7.16      0.00
   13    8    2      2.18      0.00
   14    8    2    -10.36      0.00
   15    8    2     -3.79      0.00
   16    8    2      9.53      0.00
   17    8    2      3.14      0.00
   18    8    2     -5.81      0.00
   19    8    2      6.36      0.00
   20    8    2      8.15      0.00
   21    8    2     -8.44      0.00
   22    8    2     -8.48      0.00
   23    8    2      1.26      0.00
   24    8    2      2.94      0.00
   25    8    2      0.92      0.00
   26    8    2      1.99      0.00
   27    8    2      0.28      0.00
   28    8    2     -8.55      0.00
   29    8    2     -0.16      0.00
   30    8    2      5.72      0.00
   31    8    2     -7.08      0.00
   32    8    2      0.66      0.00
   33    8    2     11.88      0.00
   34    8    2      7.99      0.00
   35    8    2     -8.99      0.00
   36    8    2    -17.41      0.00
   37    8    2      2.36      0.00
   38    8    2     -1.76      0.00
   39    8    2     -1.76      0.00
   40    8    2     25.10      0.00
   41    8    2      1.68      0.00
   42    8    2    -15.36      0.00
   43    8    2     -7.30      0.00
   44    8    2      0.14      0.00
   45    8    2      5.60      0.00
   46    8    2     -0.07      0.00
   47    8    2     10.09      0.00
   48    8    2     -4.95      0.00
   49    8    2     -7.26      0.00
   50    8    2     15.58      0.00
   51    8    2     -2.14      0.00
   52    8    2     -9.95      0.00
   53    8    2     -6.96      0.00
   54    8    2     -9.89      0.00
   55    8    2      6.52      0.00
   56    8    2      7.06      0.00
   57    8    2     10.99      0.00
   58    8    2     10.67      0.00
   59    8    2     -5.04      0.00
   60    8    2    -17.89      0.00
   61    8    2     -7.60      0.00
    1    9    2      8.83      0.00
    2    9    2     -1.94      0.00
    3    9    2     -6.61      0.00
    4    9    2     11.52      0.00
    5    9    2     -7.86      0.00
    6    9    2     -4.84      0.00
    7    9    2      4.25      0.00
    8    9    2    -12.61      0.00
    9    9    2      6.25      0.00
   10    9    2     10.08      0.00
   11    9    2     -6.86      0.00
   12    9    2      3.98      0.00
   13    9    2      0.78      0.00
   14    9    2     -4.18      0.00
   15    9    2      1.52      0.00
   16    9    2     -2.48      0.00
   17    9    2      1.09      0.00
   18    9    2      3.43      0.00
   19    9    2     -4.03      0.00
   20    9    2      2.13      0.00
   21    9    2      0.46      0.00
   22    9    2      0.07      0.00
   23    9    2      0.95      0.00
   24    9    2     -1.14      0.00
   25    9    2     -2.43      0.00
   26    9    2      2.28      0.00
   27    9    2      4.12      0.00
   28    9    2      2.75      0.00
   29    9    2      2.75      0.00
   30    9    2     -1.62      0.00
   31    9    2    -11.83      0.00
   32    9    2     -1.30      0.00
   33    9    2      4.88      0.00
   34    9    2      8.53      0.00
   35    9    2      7.69      0.00
   36    9    2      5.77      0.00
   37    9    2     -0.31      0.00
   38    9    2     -7.88      0.00
   39    9    2     -7.89      0.00
   40    9    2    -15.49      0.00
   41    9    2      8.63      0.00
   42    9    2     23.85      0.00
   43    9    2     -4.71      0.00
   44    9    2     -1.08      0.00
   45    9    2     -6.70      0.00
   46    9    2     -5.20      0.00
   47    9    2      9.38      0.00
   48    9    2      0.74      0.00
   49    9    2      5.17      0.00
   50    9    2     -5.69      0.00
   51    9    2     -3.26      0.00
   52    9    2     14.27      0.00
   53    9    2     -6.03      0.00
   54    9    2    -11.26      0.00
   55    9    2     -6.65      0.00
   56    9    2     -8.12      0.00
   57    9    2      4.78      0.00
   58    9    2     15.83      0.00
    0   10    2     10.29      0.00
    1   10    2      4.20      0.00
    2   10    2    -13.29      0.00
    3   10    2      8.46      0.00
    4   10    2      8.48      0.00
    5   10    2     -3.59      0.00
    6   10    2      7.13      0.00
    7   10    2     -7.67      0.00
    8   10    2     -0.71      0.00
    9   10    2      5.47      0.00
   10   10    2    -10.97      0.00
   11   10    2     -0.38      0.00
   12   10    2      7.21      0.00
   13   10    2     -2.71      0.00
   14   10    2      1.00      0.00
   15   10    2     -1.83      0.00
   16   10    2      2.42      0.00
   17   10    2      5.83      0.00
   18   10    2     -2.92      0.00
   19   10    2      2.13      0.00
   20   10    2      0.11      0.00
   21   10    2     -6.73      0.00
   22   10    2      9.47      0.00
   23   10    2      5.10      0.00
   24   10    2    -12.80      0.00
   25   10    2     -5.05      0.00
   26   10    2      3.48      0.00
   27   10    2      3.76      0.00
   28   10    2      3.42      0.00
   29   10    2      9.58      0.00
   30   10    2     -3.55      0.00
   31   10    2     -6.41      0.00
   32   10    2      2.73      0.00
   33   10    2    -10.57      0.00
   34   10    2    -12.78      0.00
   35   10    2     13.28      0.00
   36   10    2     10.76      0.00
   37   10    2      1.98      0.00
   38   10    2     12.80      0.00
   39   10    2     -6.88      0.00
   40   10    2    -25.46      0.00
   41   10    2      0.49      0.00
   42   10    2      1.11      0.00
   43   10    2      9.66      0.00
   44   10    2      3.68      0.00
   45   10    2    -15.12      0.00
   46   10    2      2.33      0.00
   47   10    2     -1.69      0.00
   48   10    2     -0.80      0.00
   49   10    2      9.20      0.00
   50   10    2     -3.80      0.00
   51   10    2      1.27      0.00
   52   10    2     14.24      0.00
   53   10    2     -3.78      0.00
   54   10    2    -21.12      0.00
    1   11    2     -7.50      0.00
    2   11    2      4.68      0.00
    3   11    2      7.82      0.00
    4   11    2     -8.38      0.00
    5   11    2      2.71      0.00
    6   11    2      0.21      0.00
    7   11    2     -0.80      0.00
    8   11    2      8.52      0.00
    9   11    2     -6.25      0.00
   10   11    2      0.48      0.00
   11   11    2      7.91      0.00
   12   11    2     -7.71      0.00
   13   11    2      1.40      0.00
   14   11    2     -1.59      0.00
   15   11    2     -6.74      0.00
   16   11    2      4.84      0.00
   17   11    2     -0.38      0.00
   18   11    2     -9.51      0.00
   19   11    2     12.84      0.00
   20   11    2      5.49      0.00
   21   11    2     -2.81      0.00
   22   11    2      9.11      0.00
   23   11    2     -8.02      0.00
   24   11    2    -11.72      0.00
   25   11    2      6.01      0.00
   26   11    2     -3.64      0.00
   27   11    2     -0.87      0.00
   28   11    2     -0.19      0.00
   29   11    2      1.83      0.00
   30   11    2     -0.16      0.00
   31   11    2      1.61      0.00
   32   11    2      2.88      0.00
   33   11    2     -3.71      0.00
   34   11    2     -4.65      0.00
   35   11    2     -4.16      0.00
   36   11    2     -6.18      0.00
   37   11    2     -2.21      0.00
   38   11    2      1.98      0.00
   39   11    2     14.92      0.00
   40   11    2     23.28      0.00
   41   11    2    -21.59      0.00
   42   11    2    -30.46      0.00
   43   11    2     12.32      0.00
   44   11    2      4.98      0.00
   45   11    2      0.59      0.00
   46   11    2     10.02      0.00
   47   11    2    -12.28      0.00
   48   11    2    -14.82      0.00
   49   11    2      4.36      0.00
    0   12    2    -33.03      0.00
    1   12    2      6.16      0.00
    2   12    2     16.54      0.00
    3   12    2    -10.22      0.00
    4   12    2      4.24      0.00
    5   12    2      3.06      0.00
    6   12    2     -8.70      0.00
    7   12    2     13.54      0.00
    8   12    2     -0.35      0.00
    9   12    2    -16.74      0.00
   10   12    2      1.84      0.00
   11   12    2      9.75      0.00
   12   12    2      2.55      0.00
   13   12    2      2.99      0.00
   14   12    2      0.86      0.00
   15   12    2     -5.46      0.00
   16   12    2     -6.55      0.00
   17   12    2     -2.07      0.00
   18   12    2     -1.82      0.00
   19   12    2      4.99      0.00
   20   12    2     -3.82      0.00
   21   12    2      5.82      0.00
   22   12    2      1.71      0.00
   23   12    2     -8.16      0.00
   24   12    2     15.13      0.00
   25   12    2     -1.06      0.00
   26   12    2     -6.51      0.00
   27   12    2     -0.45      0.00
   28   12    2     -9.29      0.00
   29   12    2      4.46      0.00
   30   12    2      7.97      0.00
   31   12    2     -9.50      0.00
   32   12    2     -9.24      0.00
   33   12    2     17.44      0.00
   34   12    2     17.51      0.00
   35   12    2    -15.13      0.00
   36   12    2     -3.61      0.00
   37   12    2     -6.09      0.00
   38   12    2    -22.12      0.00
   39   12    2     17.90      0.00
   40   12    2     32.91      0.00
   41   12    2    -10.40      0.00
   42   12    2     -0.91      0.00
   43   12    2      1.66      0.00
    1   13    2      9.96      0.00
    2   13    2    -16.52      0.00
    3   13    2    -14.60      0.00
    5   13    2     -0.75      0.00
    6   13    2     10.89      0.00
    7   13    2      8.62      0.00
    8   13    2     -4.12      0.00
    9   13    2     -3.98      0.00
   10   13    2      1.93      0.00
   11   13    2     -1.81      0.00
   12   13    2     -4.60      0.00
   13   13    2      1.99      0.00
   14   13    2      2.83      0.00
   15   13    2     -3.35      0.00
   16   13    2      4.66      0.00
   17   13    2      3.18      0.00
   18   13    2      5.89      0.00
   19   13    2    -14.71      0.00
   20   13    2    -13.31      0.00
   21   13    2      9.85      0.00
   22   13    2     -4.26      0.00
   23   13    2      9.68      0.00
   24   13    2     13.90      0.00
   25   13    2    -16.04      0.00
   26   13    2     -0.82      0.00
   27   13    2      1.78      0.00
   28   13    2      4.27      0.00
   29   13    2      3.06      0.00
   30   13    2     -0.37      0.00
   31   13    2     -6.20      0.00
   32   13    2    -13.23      0.00
   33   13    2     13.46      0.00
   34   13    2     16.58      0.00
   35   13    2    -12.46      0.00
   36   13    2     -2.42      0.00
    1   14    2      9.50      0.00
    2   14    2      4.92      0.00
    3   14    2      6.51      0.00
    4   14    2     -1.58      0.00
    5   14    2     -9.48      0.00
    6   14    2    -14.96      0.00
    7   14    2     -6.66      0.00
    8   14    2      8.32      0.00
    9   14    2     13.89      0.00
   11   14    2     -8.74      0.00
   13   14    2     -0.80      0.00
   14   14    2     -4.59      0.00
   15   14    2      3.83      0.00
   16   14    2     -3.87      0.00
   17   14    2      1.43      0.00
   18   14    2     14.34      0.00
   19   14    2     -3.60      0.00
   20   14    2     -0.82      0.00
   21   14    2    -11.71      0.00
   22   14    2    -11.32      0.00
   23   14    2     16.26      0.00
   24   14    2      4.75      0.00
   25   14    2     -0.78      0.00
    1    0    3     -3.47      0.00
    2    0    3   -211.99      0.00
    3    0    3      7.74      0.00
    4    0    3     64.98      0.00
    5    0    3    -55.82      0.00
    6    0    3     -9.00      0.00
    7    0    3    -74.13      0.00
    8    0    3    104.67      0.00
    9    0    3     57.68      0.00
   10    0    3    -65.88      0.00
   11    0    3     31.07      0.00
   12    0    3     47.62      0.00
   13    0    3    -66.91      0.00
   14    0    3    -48.81      0.00
   15    0    3      9.57      0.00
   16    0    3      0.15      0.00
   17    0    3     -7.22      0.00
   18    0    3     33.63      0.00
   19    0    3      2.98      0.00
   20    0    3    -33.93      0.00
   21    0    3     -1.88      0.00
   22    0    3     30.88      0.00
   23    0    3     12.54      0.00
   24    0    3    -14.10      0.00
   25    0    3      1.58      0.00
   26    0    3      6.83      0.00
   27    0    3    -12.91      0.00
   28    0    3      0.68      0.00
   29    0    3      3.71      0.00
   30    0    3     -3.58      0.00
   31    0    3     12.79      0.00
   32    0    3    -10.28      0.00
   33    0    3    -12.72      0.00
   34    0    3      6.03      0.00
   35    0    3      9.00      0.00
   36    0    3      2.45      0.00
   37    0    3     -3.43      0.00
   38    0    3     -0.61      0.00
   39    0    3     -1.97      0.00
   40    0    3      1.21      0.00
   41    0    3      2.50      0.00
   42    0    3     -7.80      0.00
   43    0    3      1.07      0.00
   44    0    3      9.11      0.00
   45    0    3    -11.22      0.00
   46    0    3     -8.85      0.00
   47    0    3     11.91      0.00
   48    0    3      6.42      0.00
   49    0    3      0.66      0.00
   50    0    3     -5.45      0.00
   51    0    3     -2.20      0.00
   52    0    3      1.79      0.00
   53    0    3      0.25      0.00
   54    0    3     -5.47      0.00
   55    0    3      4.49      0.00
   56    0    3      0.39      0.00
   57    0    3     -6.52      0.00
   58    0    3      1.54      0.00
   59    0    3     10.32      0.00
   60    0    3     -6.17      0.00
   61    0    3     -1.20      0.00
   62    0    3      4.98      0.00
   63    0    3      3.49      0.00
   64    0    3     -8.51      0.00
   65    0    3     -1.67      0.00
   66    0    3     -7.91      0.00
   67    0    3     -2.90      0.00
   68    0    3     11.11      0.00
   69    0    3      5.73      0.00
   70    0    3      2.77      0.00
   71    0    3     -1.67      0.00
    0    1    3     57.25      0.00
    1    1    3    -33.49      0.00
    2    1    3     44.94      0.00
    3    1    3     59.97      0.00
    4    1    3    -51.64      0.00
    5    1    3     27.73      0.00
    6    1    3    -37.90      0.00
    7    1    3    -61.72      0.00
    8    1    3    -31.65      0.00
    9    1    3    -13.25      0.00
   10    1    3    105.17      0.00
   11    1    3     66.61      0.00
   12    1    3    -12.50      0.00
   13    1    3    -30.46      0.00
   14    1    3    -45.61      0.00
   15    1    3     30.81      0.00
   16    1    3     45.61      0.00
   17    1    3      1.85      0.00
   18    1    3    -31.40      0.00
   19    1    3    -26.06      0.00
   20    1    3     19.72      0.00
   21    1    3     17.90      0.00
   22    1    3    -18.48      0.00
   23    1    3      0.59      0.00
   24    1    3     11.30      0.00
   25    1    3      0.66      0.00
   26    1    3     -4.05      0.00
   27    1    3      4.69      0.00
   28    1    3      3.35      0.00
   29    1    3    -14.88      0.00
   30    1    3     15.08      0.00
   31    1    3      1.48      0.00
   32    1    3    -24.98      0.00
   33    1    3      5.92      0.00
   34    1    3     21.12      0.00
   35    1    3     -8.22      0.00
   36    1    3    -10.61      0.00
   37    1    3     -5.46      0.00
   38    1    3      1.97      0.00
   39    1    3     10.27      0.00
   40    1    3      7.88      0.00
   41    1    3     -5.01      0.00
   42    1    3     -4.81      0.00
   43    1    3      0.46      0.00
   44    1    3      2.80      0.00
   45    1    3      1.00      0.00
   46    1    3     -6.29      0.00
   47    1    3     -2.46      0.00
   48    1    3      6.56      0.00
   49    1    3      0.49      0.00
   50    1    3      0.37      0.00
   51    1    3      3.12      0.00
   52    1    3     -4.71      0.00
   53    1    3      1.36      0.00
   54    1    3      0.12      0.00
   55    1    3      1.57      0.00
   56    1    3      3.84      0.00
   57    1    3     -7.63      0.00
   58    1    3     -5.02      0.00
   59    1    3     -5.47      0.00
   60    1    3      2.34      0.00
   61    1    3      9.29      0.00
   62    1    3      2.09      0.00
   63    1    3     -5.85      0.00
   64    1    3      6.32      0.00
   65    1    3     -0.61      0.00
   66    1    3    -12.45      0.00
   67    1    3     -4.08      0.00
   68    1    3      7.22      0.00
   69    1    3      6.78      0.00
   70    1    3      5.11      0.00
   71    1    3    -15.99      0.00
   72    1    3     -4.96      0.00
    1    2    3      2.70      0.00
    2    2    3     14.03      0.00
    3    2    3     -3.18      0.00
    4    2    3     -9.79      0.00
    5    2    3     54.77      0.00
    6    2    3     73.31      0.00
    7    2    3     -7.12      0.00
    8    2    3   -110.45      0.00
    9    2    3     38.95      0.00
   10    2    3     19.09      0.00
   11    2    3    -58.28      0.00
   12    2    3     40.57      0.00
   13    2    3     33.55      0.00
   14    2    3    -15.34      0.00
   15    2    3     21.29      0.00
   16    2    3    -22.00      0.00
   17    2    3    -14.78      0.00
   18    2    3     15.42      0.00
   19    2    3      5.05      0.00
   20    2    3     -2.61      0.00
   21    2    3      8.33      0.00
   22    2    3      4.50      0.00
   23    2    3    -18.29      0.00
   24    2    3     -1.08      0.00
   25    2    3      4.37      0.00
   26    2    3     -8.91      0.00
   27    2    3      9.76      0.00
   28    2    3      4.33      0.00
   29    2    3     -3.86      0.00
   30    2    3      6.46      0.00
   31    2    3     -9.58      0.00
   32    2    3     -1.85      0.00
   33    2    3     10.13      0.00
   34    2    3     -3.26      0.00
   35    2    3     -1.08      0.00
   36    2    3      3.40      0.00
   37    2    3     -0.16      0.00
   38    2    3     -0.98      0.00
   39    2    3     -2.58      0.00
   40    2    3     -1.46      0.00
   41    2    3     -0.28      0.00
   42    2    3      8.51      0.00
   43    2    3      6.32      0.00
   44    2    3     -9.55      0.00
   45    2    3      5.88      0.00
   46    2    3      6.97      0.00
   47    2    3    -13.62      0.00
   48    2    3     -7.28      0.00
   49    2    3      8.28      0.00
   50    2    3      6.35      0.00
   51    2    3     -7.45      0.00
   52    2    3      2.44      0.00
   53    2    3      0.25      0.00
   54    2    3     -2.93      0.00
   55    2    3      9.11      0.00
   56    2    3      3.29      0.00
   57    2    3      0.18      0.00
   58    2    3     -1.30      0.00
   59    2    3    -11.67      0.00
   60    2    3     11.32      0.00
   61    2    3      2.48      0.00
   62    2    3    -12.18      0.00
   63    2    3      6.17      0.00
   64    2    3      9.42      0.00
   65    2    3    -11.02      0.00
   66    2    3      0.03      0.00
   67    2    3      7.94      0.00
   68    2    3     -2.72      0.00
   69    2    3      6.90      0.00
   70    2    3      7.14      0.00
   71    2    3    -10.10      0.00
    0    3    3      6.59      0.00
    1    3    3     24.72      0.00
    2    3    3    -10.33      0.00
    3    3    3     -1.17      0.00
    4    3    3      4.26      0.00
    5    3    3    -49.67      0.00
    6    3    3    -18.28      0.00
    7    3    3     39.83      0.00
    8    3    3     34.50      0.00
    9    3    3     15.15      0.00
   10    3    3    -40.13      0.00
   11    3    3    -39.90      0.00
   12    3    3      8.01      0.00
   13    3    3     27.63      0.00
   14    3    3     23.96      0.00
   15    3    3    -23.88      0.00
   16    3    3    -24.30      0.00
   17    3    3      5.00      0.00
   18    3    3      7.97      0.00
   19    3    3     11.68      0.00
   20    3    3    -10.29      0.00
   21    3    3    -10.26      0.00
   22    3    3     12.34      0.00
   23    3    3      6.43      0.00
   24    3    3     -9.13      0.00
   25    3    3      2.28      0.00
   26    3    3      5.97      0.00
   27    3    3    -12.98      0.00
   28    3    3     -2.48      0.00
   29    3    3     24.13      0.00
   30    3    3     -8.96      0.00
   31    3    3     -9.57      0.00
   32    3    3     12.57      0.00
   33    3    3     -9.67      0.00
   34    3    3     -9.11      0.00
   35    3    3     16.30      0.00
   36    3    3     -0.18      0.00
   37    3    3     -1.17      0.00
   38    3    3     -1.22      0.00
   39    3    3     -5.37      0.00
   40    3    3     -4.71      0.00
   41    3    3     -3.24      0.00
   42    3    3      0.03      0.00
   43    3    3      2.19      0.00
   44    3    3      8.32      0.00
   45    3    3      2.28      0.00
   46    3    3     -0.70      0.00
   47    3    3     -0.83      0.00
   48    3    3    -10.85      0.00
   49    3    3      4.65      0.00
   50    3    3      4.19      0.00
   51    3    3     -9.37      0.00
   52    3    3      7.18      0.00
   53    3    3     -1.05      0.00
   54    3    3     -7.04      0.00
   55    3    3      6.56      0.00
   56    3    3     -4.46      0.00
   57    3    3     -2.53      0.00
   58    3    3      4.46      0.00
   59    3    3      7.93      0.00
   60    3    3      3.28      0.00
   61    3    3     -2.04      0.00
   62    3    3     -6.34      0.00
   63    3    3     -4.51      0.00
   64    3    3      2.83      0.00
   65    3    3      2.79      0.00
   66    3    3     -1.91      0.00
   67    3    3      0.17      0.00
   68    3    3     -5.40      0.00
   69    3    3     -1.54      0.00
   70    3    3      1.43      0.00
   71    3    3      7.68      0.00
    1    4    3     -1.88      0.00
    2    4    3     -8.13      0.00
    3    4    3     -2.58      0.00
    4    4    3     14.58      0.00
    5    4    3     -2.06      0.00
    6    4    3    -14.47      0.00
    7    4    3    -17.41      0.00
    8    4    3     13.90      0.00
    9    4    3     -4.37      0.00
   10    4    3    -10.06      0.00
   11    4    3     19.70      0.00
   12    4    3      5.30      0.00
   13    4    3    -14.05      0.00
   14    4    3     -1.65      0.00
   15    4    3     -3.82      0.00
   16    4    3     -1.66      0.00
   17    4    3     -0.11      0.00
   18    4    3      6.81      0.00
   19    4    3      5.50      0.00
   20    4    3     -4.88      0.00
   21    4    3    -12.05      0.00
   22    4    3     -3.90      0.00
   23    4    3      8.19      0.00
   24    4    3      5.18      0.00
   25    4    3      2.78      0.00
   26    4    3     -1.97      0.00
   27    4    3    -16.75      0.00
   28    4    3     -0.09      0.00
   29    4    3     10.90      0.00
   30    4    3     -8.42      0.00
   31    4    3      5.01      0.00
   32    4    3      6.88      0.00
   33    4    3    -16.21      0.00
   34    4    3      0.51      0.00
   35    4    3      5.33      0.00
   36    4    3     -0.55      0.00
   37    4    3      1.37      0.00
   38    4    3      3.87      0.00
   39    4    3     -5.28      0.00
   40    4    3     -2.54      0.00
   41    4    3      6.90      0.00
   42    4    3     -8.14      0.00
   43    4    3     -7.85      0.00
   44    4    3      3.83      0.00
   45    4    3     -8.80      0.00
   46    4    3      5.55      0.00
   47    4    3     14.45      0.00
   48    4    3     -0.09      0.00
   49    4    3     -6.18      0.00
   50    4    3     -7.82      0.00
   51    4    3      1.19      0.00
   52    4    3      8.90      0.00
   53    4    3     -7.72      0.00
   54    4    3     -5.70      0.00
   55    4    3      3.92      0.00
   56    4    3     -0.79      0.00
   57    4    3     -3.10      0.00
   58    4    3     -1.09      0.00
   59    4    3     -4.06      0.00
   60    4    3     -0.59      0.00
   61    4    3      2.59      0.00
   62    4    3     -3.50      0.00
   63    4    3     -0.02      0.00
   64    4    3      1.30      0.00
   65    4    3     -3.74      0.00
   66    4    3      7.90      0.00
   67    4    3     -5.32      0.00
   68    4    3     -6.28      0.00
   69    4    3      2.88      0.00
    0    5    3      5.31      0.00
    1    5    3     -8.57      0.00
    2    5    3      5.78      0.00
    3    5    3      5.00      0.00
    4    5    3    -11.53      0.00
    5    5    3      9.49      0.00
    6    5    3      8.44      0.00
    7    5    3    -10.55      0.00
    8    5    3    -13.49      0.00
    9    5    3     -6.84      0.00
   10    5    3     10.76      0.00
   11    5    3      3.06      0.00
   12    5    3      4.36      0.00
   13    5    3      4.53      0.00
   14    5    3     -4.45      0.00
   15    5    3     -7.82      0.00
   16    5    3      0.24      0.00
   17    5    3      1.24      0.00
   18    5    3     -4.85      0.00
   19    5    3      0.45      0.00
   20    5    3      9.36      0.00
   21    5    3    -11.10      0.00
   22    5    3     -6.99      0.00
   23    5    3      9.12      0.00
   24    5    3      2.82      0.00
   25    5    3     -5.86      0.00
   26    5    3      2.02      0.00
   27    5    3      0.87      0.00
   28    5    3      1.68      0.00
   29    5    3     -3.38      0.00
   30    5    3      6.87      0.00
   31    5    3     -4.84      0.00
   32    5    3    -10.45      0.00
   33    5    3     15.92      0.00
   34    5    3      1.22      0.00
   35    5    3    -11.58      0.00
   36    5    3      2.59      0.00
   37    5    3     -0.84      0.00
   38    5    3      8.04      0.00
   39    5    3      3.20      0.00
   40    5    3     -5.40      0.00
   41    5    3      3.69      0.00
   42    5    3      7.05      0.00
   43    5    3      1.86      0.00
   44    5    3     -7.14      0.00
   45    5    3     -3.10      0.00
   46    5    3      2.14      0.00
   47    5    3     -4.91      0.00
   48    5    3     -4.29      0.00
   49    5    3      6.95      0.00
   50    5    3      7.66      0.00
   51    5    3      3.38      0.00
   52    5    3     -0.80      0.00
   53    5    3     -9.23      0.00
   54    5    3     -1.53      0.00
   55    5    3      3.02      0.00
   56    5    3      0.52      0.00
   57    5    3      3.79      0.00
   58    5    3      4.28      0.00
   59    5    3     -6.42      0.00
   60    5    3     -2.03      0.00
   61    5    3      2.93      0.00
   62    5    3      3.61      0.00
   63    5    3      0.61      0.00
   64    5    3     -6.75      0.00
   65    5    3     -3.30      0.00
   66    5    3      2.25      0.00
   67    5    3      7.53      0.00
   68    5    3     12.40      0.00
    1    6    3     -4.44      0.00
    2    6    3      4.39      0.00
    3    6    3      2.56      0.00
    4    6    3      3.32      0.00
    5    6    3     -3.05      0.00
    6    6    3      8.73      0.00
    7    6    3     11.84      0.00
    8    6    3    -19.91      0.00
    9    6    3     -8.23      0.00
   10    6    3      1.37      0.00
   11    6    3     -6.16      0.00
   12    6    3     12.83      0.00
   13    6    3      9.76      0.00
   14    6    3     -3.61      0.00
   15    6    3     -9.89      0.00
   16    6    3     -1.52      0.00
   17    6    3     11.79      0.00
   18    6    3      0.39      0.00
   19    6    3     -8.36      0.00
   20    6    3      1.81      0.00
   21    6    3      8.37      0.00
   22    6    3      1.52      0.00
   23    6    3     -4.12      0.00
   24    6    3     -2.22      0.00
   25    6    3     -8.85      0.00
   26    6    3     -0.17      0.00
   27    6    3     22.40      0.00
   28    6    3     -3.18      0.00
   29    6    3    -10.05      0.00
   30    6    3      4.63      0.00
   31    6    3     -6.63      0.00
   32    6    3      5.13      0.00
   33    6    3      7.87      0.00
   34    6    3     -6.22      0.00
   35    6    3      8.70      0.00
   36    6    3     -4.05      0.00
   37    6    3     -6.99      0.00
   38    6    3      0.09      0.00
   39    6    3     -2.21      0.00
   40    6    3      2.42      0.00
   41    6    3      1.40      0.00
   42    6    3     -0.75      0.00
   43    6    3      6.16      0.00
   44    6    3     -0.82      0.00
   45    6    3      1.65      0.00
   46    6    3      5.31      0.00
   47    6    3     -2.60      0.00
   48    6    3    -11.74      0.00
   49    6    3     -0.93      0.00
   50    6    3      7.05      0.00
   51    6    3      3.97      0.00
   52    6    3     -1.64      0.00
   53    6    3      2.76      0.00
   54    6    3      2.14      0.00
   55    6    3     -0.37      0.00
   56    6    3     -3.73      0.00
   57    6    3      5.30      0.00
   58    6    3      3.78      0.00
   59    6    3     -2.53      0.00
   60    6    3     -2.29      0.00
   61    6    3      5.12      0.00
   62    6    3      1.86      0.00
   63    6    3      7.47      0.00
   64    6    3      2.87      0.00
   65    6    3    -12.28      0.00
   66    6    3     -9.08      0.00
    0    7    3     -1.64      0.00
    1    7    3      7.20      0.00
    2    7    3     -5.50      0.00
    3    7    3     -2.63      0.00
    4    7    3      6.75      0.00
    5    7    3    -10.37      0.00
    6    7    3      4.16      0.00
    7    7    3     14.89      0.00
    8    7    3      2.43      0.00
    9    7    3     -0.66      0.00
   10    7    3    -14.56      0.00
   11    7    3     -1.36      0.00
   12    7    3      3.36      0.00
   13    7    3     -2.64      0.00
   14    7    3     10.16      0.00
   15    7    3      6.79      0.00
   16    7    3     -4.29      0.00
   17    7    3     -4.68      0.00
   18    7    3     -2.77      0.00
   19    7    3      1.94      0.00
   20    7    3     -2.85      0.00
   21    7    3      6.91      0.00
   22    7    3      2.73      0.00
   23    7    3     -5.87      0.00
   24    7    3      2.41      0.00
   25    7    3      4.22      0.00
   26    7    3     -2.15      0.00
   27    7    3    -10.22      0.00
   28    7    3     -1.05      0.00
   29    7    3     11.78      0.00
   30    7    3     -7.02      0.00
   31    7    3     -3.26      0.00
   32    7    3      7.91      0.00
   33    7    3     -5.81      0.00
   34    7    3      2.80      0.00
   35    7    3      0.14      0.00
   36    7    3     -6.05      0.00
   37    7    3      3.74      0.00
   38    7    3     -7.81      0.00
   39    7    3      5.10      0.00
   40    7    3     15.53      0.00
   41    7    3    -17.54      0.00
   42    7    3     -9.74      0.00
   43    7    3      5.46      0.00
   44    7    3      4.67      0.00
   45    7    3      7.10      0.00
   46    7    3     -4.96      0.00
   47    7    3     -5.04      0.00
   48    7    3      7.52      0.00
   49    7    3      7.33      0.00
   50    7    3     -8.21      0.00
   51    7    3    -11.28      0.00
   52    7    3      2.04      0.00
   53    7    3      2.00      0.00
   54    7    3      0.87      0.00
   55    7    3      6.18      0.00
   56    7    3      2.89      0.00
   57    7    3     -2.09      0.00
   58    7    3     -2.92      0.00
   59    7    3     -2.30      0.00
   60    7    3     -6.84      0.00
   61    7    3      5.67      0.00
   62    7    3     10.14      0.00
   63    7    3     -7.93      0.00
   64    7    3     -8.19      0.00
    1    8    3      2.18      0.00
    2    8    3     -6.51      0.00
    3    8    3      2.20      0.00
    4    8    3      0.54      0.00
    5    8    3     -5.74      0.00
    6    8    3     -1.97      0.00
    7    8    3     -0.92      0.00
    8    8    3     12.42      0.00
    9    8    3      2.53      0.00
   10    8    3     -6.89      0.00
   11    8    3      7.82      0.00
   12    8    3     -5.07      0.00
   13    8    3     -8.28      0.00
   14    8    3     -0.03      0.00
   15    8    3     -1.95      0.00
   16    8    3      5.29      0.00
   17    8    3      3.35      0.00
   18    8    3      2.90      0.00
   19    8    3      3.87      0.00
   20    8    3     -5.64      0.00
   21    8    3    -10.34      0.00
   22    8    3      2.62      0.00
   23    8    3      4.99      0.00
   24    8    3     -1.59      0.00
   25    8    3      8.31      0.00
   26    8    3      3.81      0.00
   27    8    3    -11.97      0.00
   28    8    3      1.44      0.00
   29    8    3      0.75      0.00
   30    8    3     -5.26      0.00
   31    8    3      2.97      0.00
   32    8    3      2.31      0.00
   33    8    3      4.72      0.00
   34    8    3      6.65      0.00
   35    8    3     -7.38      0.00
   36    8    3      8.50      0.00
   37    8    3     -0.01      0.00
   38    8    3    -14.06      0.00
   39    8    3      8.53      0.00
   40    8    3     -7.18      0.00
   41    8    3      0.47      0.00
   42    8    3     18.99      0.00
   43    8    3    -15.89      0.00
   44    8    3     -4.59      0.00
   45    8    3      9.81      0.00
   46    8    3      3.72      0.00
   47    8    3      2.47      0.00
   48    8    3      0.81      0.00
   49    8    3     -5.31      0.00
   50    8    3    -12.91      0.00
   51    8    3      8.87      0.00
   52    8    3     21.15      0.00
   53    8    3     -8.38      0.00
   54    8    3    -22.55      0.00
   55    8    3    -10.99      0.00
   56    8    3      7.92      0.00
   57    8    3     11.23      0.00
   58    8    3     14.74      0.00
   59    8    3     -1.09      0.00
   60    8    3    -12.40      0.00
   61    8    3     -7.15      0.00
    0    9    3     -0.84      0.00
    1    9    3     -0.69      0.00
    2    9    3      7.57      0.00
    3    9    3      2.62      0.00
    4    9    3     -7.93      0.00
    5    9    3      3.47      0.00
    6    9    3      0.85      0.00
    7    9    3     -4.19      0.00
    8    9    3     -2.77      0.00
    9    9    3    -10.98      0.00
   10    9    3      6.36      0.00
   11    9    3     17.42      0.00
   12    9    3      3.01      0.00
   13    9    3     -5.36      0.00
   14    9    3     -8.18      0.00
   15    9    3     -3.69      0.00
   16    9    3      5.42      0.00
   17    9    3      3.17      0.00
   18    9    3      0.19      0.00
   19    9    3     -2.39      0.00
   20    9    3     -2.50      0.00
   21    9    3      6.36      0.00
   22    9    3      0.24      0.00
   23    9    3     -4.73      0.00
   24    9    3      2.22      0.00
   25    9    3      0.70      0.00
   26    9    3      1.42      0.00
   27    9    3      8.36      0.00
   28    9    3     -1.53      0.00
   29    9    3     -1.15      0.00
   30    9    3     -1.10      0.00
   31    9    3     -7.55      0.00
   32    9    3     -6.02      0.00
   33    9    3      2.81      0.00
   34    9    3      0.56      0.00
   35    9    3     11.38      0.00
   36    9    3      8.16      0.00
   37    9    3     -6.06      0.00
   38    9    3     10.76      0.00
   39    9    3     -9.69      0.00
   40    9    3    -22.85      0.00
   41    9    3     21.66      0.00
   42    9    3      2.31      0.00
   43    9    3    -10.87      0.00
   44    9    3     -6.95      0.00
   45    9    3     -9.49      0.00
   46    9    3     14.46      0.00
   47    9    3      8.84      0.00
   48    9    3      1.85      0.00
   49    9    3     -2.59      0.00
   50    9    3     -7.60      0.00
   51    9    3      4.01      0.00
   52    9    3      2.04      0.00
   53    9    3     -4.23      0.00
   54    9    3      3.10      0.00
   55    9    3      7.29      0.00
   56    9    3    -16.98      0.00
   57    9    3    -17.74      0.00
   58    9    3     10.12      0.00
    1   10    3      4.40      0.00
    2   10    3      9.18      0.00
    3   10    3    -14.22      0.00
    4   10    3     -8.25      0.00
    5   10    3     16.58      0.00
    6   10    3     12.08      0.00
    7   10    3     -3.06      0.00
    8   10    3    -11.63      0.00
    9   10    3     -3.53      0.00
   10   10    3     -0.67      0.00
   11   10    3     -2.39      0.00
   12   10    3      6.45      0.00
   13   10    3      8.98      0.00
   14   10    3     -9.97      0.00
   15   10    3     -2.27      0.00
   16   10    3      1.43      0.00
   17   10    3     -2.12      0.00
   18   10    3      9.47      0.00
   19   10    3      2.29      0.00
   20   10    3     -9.72      0.00
   21   10    3      3.45      0.00
   22   10    3      1.91      0.00
   23   10    3     -1.18      0.00
   24   10    3     -1.93      0.00
   25   10    3     -9.24      0.00
   26   10    3     -8.90      0.00
   27   10    3     12.23      0.00
   28   10    3     12.89      0.00
   29   10    3      0.12      0.00
   30   10    3     -2.23      0.00
   31   10    3     -6.10      0.00
   32   10    3    -11.80      0.00
   33   10    3     -1.53      0.00
   34   10    3     -0.74      0.00
   35   10    3     -8.10      0.00
   36   10    3     -1.04      0.00
   37   10    3     17.10      0.00
   38   10    3     11.66      0.00
   39   10    3     -7.43      0.00
   40   10    3     -4.07      0.00
   41   10    3    -20.57      0.00
   42   10    3      0.17      0.00
   43   10    3     29.58      0.00
   44   10    3    -12.86      0.00
   45   10    3    -13.65      0.00
   46   10    3     -0.58      0.00
   47   10    3    -10.71      0.00
   48   10    3      5.40      0.00
   49   10    3      8.88      0.00
   50   10    3     -0.08      0.00
   51   10    3      0.88      0.00
   52   10    3      8.69      0.00
   53   10    3     -3.45      0.00
    0   11    3     11.52      0.00
    1   11    3      8.25      0.00
    2   11    3    -13.25      0.00
    3   11    3     -6.15      0.00
    4   11    3      4.87      0.00
    5   11    3     -1.02      0.00
    6   11    3      0.83      0.00
    7   11    3      7.58      0.00
    8   11    3      0.77      0.00
    9   11    3     -4.93      0.00
   10   11    3     -2.15      0.00
   11   11    3      0.11      0.00
   12   11    3      4.25      0.00
   13   11    3      4.89      0.00
   14   11    3     -2.05      0.00
   15   11    3     -4.15      0.00
   16   11    3     -7.38      0.00
   17   11    3     -0.78      0.00
   18   11    3      2.06      0.00
   19   11    3      1.58      0.00
   20   11    3     -0.63      0.00
   21   11    3     -2.01      0.00
   22   11    3      7.20      0.00
   23   11    3      6.21      0.00
   24   11    3      3.75      0.00
   25   11    3    -11.44      0.00
   26   11    3    -12.45      0.00
   27   11    3      1.96      0.00
   28   11    3      5.73      0.00
   29   11    3     -3.30      0.00
   30   11    3      5.92      0.00
   31   11    3      8.78      0.00
   32   11    3     -2.10      0.00
   33   11    3      4.14      0.00
   34   11    3     -1.60      0.00
   35   11    3    -31.22      0.00
   36   11    3     -6.40      0.00
   37   11    3     22.17      0.00
   38   11    3      6.30      0.00
   39   11    3      9.66      0.00
   40   11    3     10.51      0.00
   41   11    3    -19.10      0.00
   42   11    3     -3.13      0.00
   43   11    3     -0.54      0.00
   44   11    3      0.60      0.00
   45   11    3     20.02      0.00
   46   11    3     -4.75      0.00
   47   11    3    -15.07      0.00
   48   11    3     -1.68      0.00
   49   11    3      2.78      0.00
    1   12    3     -6.23      0.00
    2   12    3     -7.71      0.00
    3   12    3     10.00      0.00
    4   12    3      7.77      0.00
    5   12    3      0.30      0.00
    6   12    3     -6.04      0.00
    7   12    3    -13.81      0.00
    8   12    3      3.54      0.00
    9   12    3     14.39      0.00
   10   12    3     -2.95      0.00
   11   12    3     -6.65      0.00
   12   12    3      5.32      0.00
   13   12    3     -5.05      0.00
   14   12    3      1.39      0.00
   15   12    3      8.68      0.00
   16   12    3      4.69      0.00
   17   12    3     -9.63      0.00
   18   12    3     -3.03      0.00
   19   12    3      1.32      0.00
   20   12    3     -5.20      0.00
   21   12    3     -2.53      0.00
   22   12    3      1.44      0.00
   23   12    3      4.81      0.00
   24   12    3      6.21      0.00
   25   12    3     -3.61      0.00
   26   12    3      1.18      0.00
   27   12    3      2.42      0.00
   28   12    3      1.59      0.00
   29   12    3     -8.94      0.00
   30   12    3     -1.96      0.00
   31   12    3      4.39      0.00
   32   12    3      6.47      0.00
   33   12    3      8.30      0.00
   34   12    3     -3.83      0.00
   35   12    3      3.17      0.00
   36   12    3      3.20      0.00
   37   12    3    -14.17      0.00
   38   12    3    -10.48      0.00
   39   12    3      0.55      0.00
   40   12    3      4.66      0.00
   41   12    3     30.21      0.00
   42   12    3     11.63      0.00
   43   12    3    -29.31      0.00
    0   13    3    -10.08      0.00
    1   13    3     -0.21      0.00
    2   13    3     11.48      0.00
    3   13    3      0.77      0.00
    4   13    3     -6.30      0.00
    5   13    3     -0.42      0.00
    7   13    3     -4.22      0.00
    8   13    3      5.00      0.00
    9   13    3      3.43      0.00
   10   13    3     -6.37      0.00
   11   13    3     -1.29      0.00
   12   13    3      2.89      0.00
   13   13    3     -3.03      0.00
   14   13    3     -1.15      0.00
   15   13    3      4.57      0.00
   16   13    3     -0.41      0.00
   17   13    3     -2.03      0.00
   18   13    3      5.94      0.00
   19   13    3     -6.97      0.00
   20   13    3     -3.59      0.00
   21   13    3     11.23      0.00
   22   13    3      1.76      0.00
   23   13    3    -11.14      0.00
   24   13    3     -9.08      0.00
   25   13    3      8.20      0.00
   26   13    3      4.87      0.00
   27   13    3      2.31      0.00
   28   13    3     -3.51      0.00
   29   13    3     -0.06      0.00
   30   13    3      2.81      0.00
   31   13    3     -7.43      0.00
   32   13    3      0.17      0.00
   33   13    3     -1.25      0.00
   34   13    3     -4.98      0.00
   35   13    3     18.07      0.00
    1   14    3     -9.10      0.00
    2   14    3    -11.06      0.00
    3   14    3     18.53      0.00
    4   14    3      9.65      0.00
    5   14    3     -9.66      0.00
    6   14    3     -0.56      0.00
    9   14    3      2.81      0.00
   10   14    3      1.77      0.00
   11   14    3     -4.88      0.00
   12   14    3     -1.87      0.00
   13   14    3      6.20      0.00
   14   14    3      5.96      0.00
   15   14    3      1.81      0.00
   16   14    3    -10.81      0.00
   17   14    3     -3.57      0.00
   18   14    3      0.90      0.00
   19   14    3      5.36      0.00
   20   14    3      5.14      0.00
   21   14    3     -0.64      0.00
   22   14    3     -6.32      0.00
   23   14    3     -1.74      0.00
   24   14    3      4.93      0.00
   25   14    3     -2.19      0.00
    0    0    4    136.09      0.00
    1    0    4   -243.53      0.00
    2    0    4    -15.83      0.00
    3    0    4     57.93      0.00
    4    0    4    -92.79      0.00
    5    0    4     66.55      0.00
    6    0    4      7.19      0.00
    7    0    4    -75.46      0.00
    8    0    4     37.77      0.00
    9    0    4     75.01      0.00
   10    0    4    -35.47      0.00
   11    0    4    -20.87      0.00
   12    0    4     25.48      0.00
   13    0    4     14.11      0.00
   14    0    4     -6.12      0.00
   15    0    4     -4.41      0.00
   16    0    4      1.95      0.00
   17    0    4      0.91      0.00
   18    0    4     -9.22      0.00
   19    0    4     -1.22      0.00
   20    0    4     11.20      0.00
   21    0    4     11.52      0.00
   22    0    4    -12.56      0.00
   23    0    4     16.06      0.00
   24    0    4      5.80      0.00
   25    0    4    -24.22      0.00
   26    0    4      0.04      0.00
   27    0    4     10.42      0.00
   28    0    4     -0.99      0.00
   29    0    4      1.37      0.00
   30    0    4     16.22      0.00
   31    0    4    -19.25      0.00
   32    0    4     -8.12      0.00
   33    0    4     10.93      0.00
   34    0    4     -4.78      0.00
   35    0    4     -3.13      0.00
   36    0    4      6.56      0.00
   37    0    4      6.37      0.00
   38    0    4      6.20      0.00
   39    0    4    -10.14      0.00
   40    0    4     -8.14      0.00
   41    0    4      1.11      0.00
   42    0    4      0.20      0.00
   43    0    4      2.52      0.00
   44    0    4      6.28      0.00
   45    0    4     -1.11      0.00
   46    0    4     -6.02      0.00
   47    0    4     -0.26      0.00
   48    0    4      6.63      0.00
   49    0    4      3.18      0.00
   50    0    4     -0.83      0.00
   51    0    4     -2.82      0.00
   52    0    4     -1.85      0.00
   53    0    4      3.82      0.00
   54    0    4     -6.25      0.00
   55    0    4     -9.48      0.00
   56    0    4      2.94      0.00
   57    0    4      0.53      0.00
   58    0    4      6.79      0.00
   59    0    4      1.00      0.00
   60    0    4      4.34      0.00
   61    0    4     -1.25      0.00
   62    0    4      0.56      0.00
   63    0    4      6.25      0.00
   64    0    4    -14.54      0.00
   65    0    4    -19.09      0.00
   66    0    4      8.57      0.00
   67    0    4     -5.41      0.00
   68    0    4      6.34      0.00
   69    0    4     20.87      0.00
   70    0    4      7.36      0.00
    1    1    4     28.19      0.00
    2    1    4     44.05      0.00
    3    1    4     32.29      0.00
    4    1    4     25.27      0.00
    5    1    4    -43.24      0.00
    6    1    4    -27.57      0.00
    7    1    4     16.91      0.00
    8    1    4    -20.26      0.00
    9    1    4     48.57      0.00
   10    1    4     -1.79      0.00
   11    1    4    -11.50      0.00
   12    1    4     27.49      0.00
   13    1    4     -8.91      0.00
   14    1    4    -23.07      0.00
   15    1    4     42.34      0.00
   16    1    4      9.17      0.00
   17    1    4    -24.02      0.00
   18    1    4      5.51      0.00
   19    1    4     -9.73      0.00
   20    1    4     -3.50      0.00
   21    1    4     17.71      0.00
   22    1    4      0.95      0.00
   23    1    4    -11.39      0.00
   24    1    4      3.66      0.00
   25    1    4      5.19      0.00
   26    1    4    -10.13      0.00
   27    1    4      4.46      0.00
   28    1    4     -1.66      0.00
   29    1    4     -8.93      0.00
   30    1    4      6.48      0.00
   31    1    4      5.25      0.00
   32    1    4      7.18      0.00
   33    1    4     -6.00      0.00
   34    1    4    -10.93      0.00
   35    1    4     -0.35      0.00
   36    1    4     -2.70      0.00
   37    1    4      4.48      0.00
   38    1    4     11.15      0.00
   39    1    4      8.83      0.00
   40    1    4     -6.35      0.00
   41    1    4    -11.19      0.00
   42    1    4      2.25      0.00
   43    1    4      2.58      0.00
   44    1    4     -3.13      0.00
   45    1    4      5.63      0.00
   46    1    4      2.67      0.00
   47    1    4     -9.32      0.00
   48    1    4      2.81      0.00
   49    1    4      6.27      0.00
   50    1    4     -4.03      0.00
   51    1    4     -0.51      0.00
   52    1    4     10.89      0.00
   53    1    4     -6.84      0.00
   54    1    4     -3.91      0.00
   55    1    4      6.25      0.00
   56    1    4      1.51      0.00
   57    1    4      1.03      0.00
   58    1    4     -9.64      0.00
   59    1    4    -16.73      0.00
   60    1    4     14.23      0.00
   61    1    4      2.44      0.00
   62    1    4      8.65      0.00
   63    1    4     23.06      0.00
   64    1    4     -8.20      0.00
   65    1    4    -16.32      0.00
   66    1    4     -4.49      0.00
   67    1    4    -13.27      0.00
   68    1    4     -4.80      0.00
   69    1    4     22.52      0.00
   70    1    4     20.45      0.00
   71    1    4    -10.62      0.00
    0    2    4    -14.45      0.00
    1    2    4     52.29      0.00
    2    2    4     16.52      0.00
    3    2    4      6.77      0.00
    4    2    4    -39.69      0.00
    5    2    4    -26.95      0.00
    6    2    4     54.92      0.00
    7    2    4      5.44      0.00
    8    2    4      6.02      0.00
    9    2    4    -27.52      0.00
   10    2    4    -38.48      0.00
   11    2    4     21.78      0.00
   12    2    4     14.79      0.00
   13    2    4      0.68      0.00
   14    2    4     11.89      0.00
   15    2    4    -21.56      0.00
   16    2    4     -8.25      0.00
   17    2    4     11.50      0.00
   18    2    4     -4.75      0.00
   19    2    4     -7.13      0.00
   20    2    4      2.39      0.00
   21    2    4     -3.42      0.00
   22    2    4      3.28      0.00
   23    2    4     -0.14      0.00
   24    2    4      4.72      0.00
   25    2    4      6.51      0.00
   26    2    4     -7.42      0.00
   27    2    4     -2.04      0.00
   28    2    4     -3.23      0.00
   29    2    4      1.10      0.00
   30    2    4     -2.73      0.00
   31    2    4     11.13      0.00
   32    2    4      4.82      0.00
   33    2    4     -8.61      0.00
   34    2    4      3.42      0.00
   35    2    4     -4.32      0.00
   36    2    4    -13.56      0.00
   37    2    4      8.45      0.00
   38    2    4      4.38      0.00
   39    2    4     -0.47      0.00
   40    2    4      1.25      0.00
   41    2    4      3.14      0.00
   42    2    4     -1.62      0.00
   43    2    4     -4.57      0.00
   44    2    4     -0.43      0.00
   45    2    4      1.67      0.00
   46    2    4      4.27      0.00
   47    2    4     -5.42      0.00
   48    2    4     -5.73      0.00
   49    2    4      5.81      0.00
   50    2    4      2.66      0.00
   51    2    4      0.47      0.00
   52    2    4     -3.90      0.00
   53    2    4     -7.33      0.00
   54    2    4      6.20      0.00
   55    2    4      6.75      0.00
   56    2    4     -2.18      0.00
   57    2    4      6.61      0.00
   58    2    4     -1.21      0.00
   59    2    4     -0.68      0.00
   60    2    4     -7.86      0.00
   61    2    4     -5.97      0.00
   62    2    4      3.81      0.00
   63    2    4     -1.29      0.00
   64    2    4     14.70      0.00
   65    2    4     18.81      0.00
   66    2    4    -20.65      0.00
   67    2    4     -9.27      0.00
   68    2    4      1.14      0.00
   69    2    4     -7.48      0.00
   70    2    4      2.41      0.00
   71    2    4     21.95      0.00
    1    3    4    -30.02      0.00
    2    3    4     20.88      0.00
    3    3    4     25.95      0.00
    4    3    4    -29.48      0.00
    5    3    4    -17.47      0.00
    6    3    4     17.18      0.00
    7    3    4      9.67      0.00
    8    3    4     -4.44      0.00
    9    3    4    -33.87      0.00
   10    3    4      7.58      0.00
   11    3    4      0.11      0.00
   12    3    4    -12.34      0.00
   13    3    4     12.51      0.00
   14    3    4     11.97      0.00
   15    3    4    -12.44      0.00
   16    3    4      1.05      0.00
   17    3    4      6.50      0.00
   18    3    4    -11.01      0.00
   19    3    4      2.34      0.00
   20    3    4     12.12      0.00
   21    3    4    -12.32      0.00
   22    3    4     -9.75      0.00
   23    3    4      3.47      0.00
   24    3    4      4.53      0.00
   25    3    4     -2.21      0.00
   26    3    4      0.50      0.00
   27    3    4      3.72      0.00
   28    3    4      0.42      0.00
   29    3    4     -7.15      0.00
   30    3    4     -1.43      0.00
   31    3    4      7.99      0.00
   32    3    4     -7.26      0.00
   33    3    4      0.05      0.00
   34    3    4     14.41      0.00
   35    3    4     -4.45      0.00
   36    3    4     -5.21      0.00
   37    3    4     -8.56      0.00
   38    3    4     -2.35      0.00
   39    3    4     -1.86      0.00
   40    3    4      0.49      0.00
   41    3    4     10.75      0.00
   42    3    4     -4.73      0.00
   43    3    4     -6.50      0.00
   44    3    4      2.56      0.00
   45    3    4     -2.51      0.00
   46    3    4      4.49      0.00
   47    3    4      6.07      0.00
   48    3    4     -5.33      0.00
   49    3    4    -10.29      0.00
   50    3    4      2.24      0.00
   51    3    4      9.63      0.00
   52    3    4     -2.00      0.00
   53    3    4     -3.03      0.00
   54    3    4     -4.29      0.00
   55    3    4     -7.39      0.00
   56    3    4      1.18      0.00
   57    3    4      0.18      0.00
   58    3    4      3.28      0.00
   59    3    4      6.31      0.00
   60    3    4     -4.68      0.00
   61    3    4      3.88      0.00
   62    3    4     -5.94      0.00
   63    3    4    -15.14      0.00
   64    3    4      3.89      0.00
   65    3    4      9.30      0.00
   66    3    4      6.63      0.00
   67    3    4     -7.46      0.00
   68    3    4     -7.28      0.00
   69    3    4     -1.75      0.00
   70    3    4     -5.40      0.00
    0    4    4      8.81      0.00
    1    4    4    -11.89      0.00
    2    4    4     -9.91      0.00
    3    4    4    -12.15      0.00
    4    4    4      7.58      0.00
    5    4    4     17.65      0.00
    6    4    4     -4.41      0.00
    7    4    4     -9.33      0.00
    8    4    4      2.07      0.00
    9    4    4     15.98      0.00
   10    4    4     -4.60      0.00
   11    4    4     -8.83      0.00
   12    4    4      0.36      0.00
   13    4    4    -12.83      0.00
   14    4    4      6.09      0.00
   15    4    4     12.70      0.00
   16    4    4    -10.60      0.00
   17    4    4     -8.68      0.00
   18    4    4      7.17      0.00
   19    4    4      0.87      0.00
   20    4    4      0.66      0.00
   21    4    4      9.34      0.00
   22    4    4     -4.79      0.00
   23    4    4     -4.70      0.00
   24    4    4      2.69      0.00
   25    4    4    -12.15      0.00
   26    4    4      2.94      0.00
   27    4    4      6.46      0.00
   28    4    4     -0.75      0.00
   29    4    4     -2.63      0.00
   30    4    4      1.25      0.00
   31    4    4    -10.24      0.00
   32    4    4     -4.63      0.00
   33    4    4     12.02      0.00
   34    4    4      1.34      0.00
   35    4    4      3.13      0.00
   36    4    4      9.23      0.00
   37    4    4     -3.27      0.00
   38    4    4     -6.99      0.00
   39    4    4     -4.95      0.00
   40    4    4      6.45      0.00
   41    4    4      1.30      0.00
   42    4    4      0.46      0.00
   43    4    4      2.85      0.00
   44    4    4    -11.41      0.00
   45    4    4      1.56      0.00
   46    4    4      6.33      0.00
   47    4    4     -0.38      0.00
   48    4    4      4.61      0.00
   49    4    4     -4.61      0.00
   50    4    4     -4.47      0.00
   51    4    4      8.53      0.00
   52    4    4      2.43      0.00
   53    4    4     -2.80      0.00
   54    4    4     -1.08      0.00
   55    4    4     -2.44      0.00
   56    4    4     -2.67      0.00
   57    4    4      1.25      0.00
   58    4    4     -2.89      0.00
   59    4    4     -9.93      0.00
   60    4    4     13.73      0.00
   61    4    4      2.95      0.00
   62    4    4     -8.58      0.00
   63    4    4      8.79      0.00
   64    4    4     -3.73      0.00
   65    4    4     -1.78      0.00
   66    4    4      3.76      0.00
   67    4    4     -5.36      0.00
   68    4    4      4.91      0.00
   69    4    4      1.13      0.00
    1    5    4      5.35      0.00
    2    5    4      8.37      0.00
    3    5    4      6.43      0.00
    4    5    4     -6.09      0.00
    5    5    4    -17.68      0.00
    6    5    4     -0.73      0.00
    7    5    4      1.12      0.00
    8    5    4      6.48      0.00
    9    5    4     17.19      0.00
   10    5    4     -9.75      0.00
   11    5    4     -8.79      0.00
   12    5    4      1.51      0.00
   13    5    4     -2.31      0.00
   14    5    4      0.75      0.00
   15    5    4     16.41      0.00
   16    5    4     -0.57      0.00
   17    5    4    -16.68      0.00
   18    5    4      4.80      0.00
   19    5    4     -1.16      0.00
   20    5    4     -6.98      0.00
   21    5    4      7.77      0.00
   22    5    4      0.75      0.00
   23    5    4      0.85      0.00
   24    5    4      4.30      0.00
   25    5    4      3.11      0.00
   26    5    4     -6.34      0.00
   27    5    4      0.61      0.00
   28    5    4     -0.48      0.00
   29    5    4      1.27      0.00
   30    5    4     10.91      0.00
   31    5    4     -0.24      0.00
   32    5    4     -5.52      0.00
   33    5    4     -2.27      0.00
   34    5    4     -5.23      0.00
   35    5    4     -1.58      0.00
   36    5    4      2.72      0.00
   37    5    4     13.98      0.00
   38    5    4     -1.68      0.00
   39    5    4      0.15      0.00
   40    5    4      5.14      0.00
   41    5    4     -8.95      0.00
   42    5    4     -2.38      0.00
   43    5    4      5.05      0.00
   44    5    4      4.02      0.00
   45    5    4      8.81      0.00
   46    5    4    -10.64      0.00
   47    5    4    -12.07      0.00
   48    5    4      5.86      0.00
   49    5    4      6.26      0.00
   50    5    4      4.14      0.00
   51    5    4      3.22      0.00
   52    5    4     -5.48      0.00
   53    5    4     -2.33      0.00
   54    5    4      4.40      0.00
   55    5    4      6.05      0.00
   56    5    4      0.38      0.00
   57    5    4      6.06      0.00
   58    5    4     -6.61      0.00
   59    5    4     -4.53      0.00
   60    5    4      1.07      0.00
   61    5    4     -0.95      0.00
   62    5    4     14.07      0.00
   63    5    4      5.37      0.00
   64    5    4    -10.28      0.00
   65    5    4      0.17      0.00
   66    5    4     -0.96      0.00
   67    5    4      7.08      0.00
   68    5    4      1.43      0.00
    0    6    4     -6.32      0.00
    1    6    4     20.99      0.00
    2    6    4      2.74      0.00
    3    6    4      5.58      0.00
    4    6    4     -4.13      0.00
    5    6    4    -10.24      0.00
    6    6    4      6.75      0.00
    7    6    4      4.75      0.00
    8    6    4      1.65      0.00
    9    6    4     -7.04      0.00
   10    6    4     -6.37      0.00
   11    6    4      9.27      0.00
   12    6    4      4.68      0.00
   13    6    4      1.87      0.00
   14    6    4     -4.47      0.00
   15    6    4     -3.27      0.00
   16    6    4     -0.25      0.00
   17    6    4      4.62      0.00
   18    6    4     -0.70      0.00
   19    6    4      4.23      0.00
   20    6    4      4.56      0.00
   21    6    4     -2.51      0.00
   22    6    4     -0.72      0.00
   23    6    4     -3.38      0.00
   24    6    4      1.26      0.00
   25    6    4      6.20      0.00
   26    6    4     -6.24      0.00
   27    6    4     -2.61      0.00
   28    6    4      1.42      0.00
   29    6    4     -0.68      0.00
   30    6    4     -3.02      0.00
   31    6    4     11.69      0.00
   32    6    4      4.39      0.00
   33    6    4    -12.55      0.00
   34    6    4      3.20      0.00
   35    6    4     -2.82      0.00
   36    6    4     -5.54      0.00
   37    6    4      4.61      0.00
   38    6    4     -1.97      0.00
   39    6    4     -4.08      0.00
   40    6    4      2.47      0.00
   41    6    4      3.00      0.00
   42    6    4     -1.01      0.00
   43    6    4     -3.98      0.00
   44    6    4      3.28      0.00
   45    6    4      1.33      0.00
   46    6    4      1.66      0.00
   47    6    4      1.00      0.00
   48    6    4     -9.79      0.00
   49    6    4     -3.05      0.00
   50    6    4      4.15      0.00
   51    6    4      0.09      0.00
   52    6    4     12.46      0.00
   53    6    4     -0.42      0.00
   54    6    4     -9.66      0.00
   55    6    4      0.52      0.00
   56    6    4     -5.45      0.00
   57    6    4      0.57      0.00
   58    6    4     11.47      0.00
   59    6    4      4.74      0.00
   60    6    4     -6.89      0.00
   61    6    4     -7.71      0.00
   62    6    4      1.26      0.00
   63    6    4      7.27      0.00
   64    6    4      0.88      0.00
   65    6    4     -7.92      0.00
   66    6    4      3.79      0.00
    1    7    4     -5.02      0.00
    2    7    4     -2.45      0.00
    3    7    4      4.68      0.00
    4    7    4     -3.60      0.00
    5    7    4      6.17      0.00
    6    7    4      5.30      0.00
    7    7    4     -0.04      0.00
    8    7    4     -4.30      0.00
    9    7    4     -7.00      0.00
   10    7    4      9.87      0.00
   11    7    4     -1.89      0.00
   12    7    4     -8.70      0.00
   13    7    4     11.90      0.00
   14    7    4      2.57      0.00
   15    7    4     -4.31      0.00
   16    7    4      2.82      0.00
   17    7    4     -4.71      0.00
   18    7    4     -2.73      0.00
   19    7    4      1.50      0.00
   20    7    4     -2.44      0.00
   21    7    4      0.70      0.00
   22    7    4      2.37      0.00
   23    7    4      3.23      0.00
   24    7    4      3.59      0.00
   25    7    4     -4.37      0.00
   26    7    4      0.33      0.00
   27    7    4     -1.96      0.00
   28    7    4     -0.06      0.00
   29    7    4     -0.22      0.00
   30    7    4     -5.61      0.00
   31    7    4     -0.21      0.00
   32    7    4      1.59      0.00
   33    7    4      1.16      0.00
   34    7    4      6.78      0.00
   35    7    4      6.54      0.00
   36    7    4     -0.89      0.00
   37    7    4    -11.48      0.00
   38    7    4     -1.66      0.00
   39    7    4     -2.72      0.00
   40    7    4     -3.14      0.00
   41    7    4     12.69      0.00
   42    7    4      6.37      0.00
   43    7    4     -9.30      0.00
   44    7    4     -1.34      0.00
   45    7    4      0.75      0.00
   46    7    4      3.34      0.00
   47    7    4      0.36      0.00
   48    7    4     -0.99      0.00
   49    7    4     -0.72      0.00
   50    7    4     -9.68      0.00
   51    7    4      3.60      0.00
   52    7    4     10.63      0.00
   53    7    4    -11.15      0.00
   54    7    4      4.39      0.00
   55    7    4      0.39      0.00
   56    7    4     -3.88      0.00
   57    7    4     10.65      0.00
   58    7    4     -9.81      0.00
   59    7    4    -16.87      0.00
   60    7    4      8.44      0.00
   61    7    4      1.52      0.00
   62    7    4      5.75      0.00
   63    7    4      5.80      0.00
    0    8    4     -0.49      0.00
    1    8    4     -0.60      0.00
    2    8    4      0.64      0.00
    3    8    4     -0.51      0.00
    4    8    4      2.90      0.00
    5    8    4     -1.56      0.00
    6    8    4     -6.00      0.00
    7    8    4      2.55      0.00
    8    8    4      1.70      0.00
    9    8    4      3.12      0.00
   10    8    4      2.97      0.00
   11    8    4     -7.28      0.00
   12    8    4      3.53      0.00
   13    8    4     -2.41      0.00
   14    8    4     -4.62      0.00
   15    8    4      8.83      0.00
   16    8    4     -3.92      0.00
   17    8    4     -0.28      0.00
   18    8    4      7.58      0.00
   19    8    4     -7.29      0.00
   20    8    4     -3.28      0.00
   21    8    4      5.50      0.00
   22    8    4      0.31      0.00
   23    8    4     -0.16      0.00
   24    8    4      2.00      0.00
   25    8    4     -1.48      0.00
   26    8    4     -2.17      0.00
   27    8    4      8.73      0.00
   28    8    4      1.02      0.00
   29    8    4     -4.48      0.00
   30    8    4      3.15      0.00
   31    8    4     -2.06      0.00
   32    8    4     -5.74      0.00
   33    8    4     -2.85      0.00
   34    8    4     -2.00      0.00
   35    8    4     16.71      0.00
   36    8    4      7.85      0.00
   37    8    4     -1.15      0.00
   38    8    4      3.84      0.00
   39    8    4    -15.12      0.00
   40    8    4    -11.12      0.00
   41    8    4     12.91      0.00
   42    8    4     -0.35      0.00
   43    8    4     -1.98      0.00
   44    8    4     -1.53      0.00
   45    8    4      2.39      0.00
   46    8    4      9.87      0.00
   47    8    4     -2.25      0.00
   48    8    4     -1.66      0.00
   49    8    4     -2.16      0.00
   50    8    4    -10.26      0.00
   51    8    4      4.81      0.00
   52    8    4      1.82      0.00
   53    8    4      2.96      0.00
   54    8    4      7.10      0.00
   55    8    4    -12.20      0.00
   56    8    4     -1.97      0.00
   57    8    4      6.58      0.00
   58    8    4     -6.53      0.00
   59    8    4      9.20      0.00
   60    8    4      2.02      0.00
   61    8    4    -11.95      0.00
    1    9    4     -1.60      0.00
    2    9    4     -2.79      0.00
    3    9    4      3.92      0.00
    4    9    4     -0.18      0.00
    5    9    4      0.39      0.00
    6    9    4      4.42      0.00
    7    9    4     -3.90      0.00
    8    9    4     -1.56      0.00
    9    9    4      1.78      0.00
   10    9    4    -12.10      0.00
   11    9    4      6.48      0.00
   12    9    4     15.48      0.00
   13    9    4     -8.59      0.00
   14    9    4     -4.22      0.00
   15    9    4      7.95      0.00
   16    9    4     -0.68      0.00
   17    9    4     -5.36      0.00
   18    9    4     -5.22      0.00
   19    9    4      6.58      0.00
   20    9    4      0.73      0.00
   21    9    4     -3.94      0.00
   22    9    4      2.20      0.00
   23    9    4     -1.24      0.00
   24    9    4     -2.28      0.00
   25    9    4      0.23      0.00
   26    9    4      4.39      0.00
   27    9    4      0.59      0.00
   28    9    4     -5.36      0.00
   29    9    4      6.09      0.00
   30    9    4     -1.28      0.00
   31    9    4     -4.61      0.00
   32    9    4      1.56      0.00
   33    9    4     -6.69      0.00
   34    9    4     -4.96      0.00
   35    9    4     -8.47      0.00
   36    9    4     -0.04      0.00
   37    9    4     19.66      0.00
   38    9    4     -1.41      0.00
   39    9    4      2.76      0.00
   40    9    4     12.07      0.00
   41    9    4    -30.28      0.00
   42    9    4    -11.13      0.00
   43    9    4     16.71      0.00
   44    9    4     -6.30      0.00
   45    9    4      6.12      0.00
   46    9    4      1.14      0.00
   47    9    4    -11.80      0.00
   48    9    4      1.53      0.00
   49    9    4      5.41      0.00
   50    9    4      7.30      0.00
   51    9    4     -6.42      0.00
   52    9    4    -14.57      0.00
   53    9    4      9.42      0.00
   54    9    4      7.73      0.00
   55    9    4     -1.72      0.00
   56    9    4      4.06      0.00
   57    9    4     -8.74      0.00
    0   10    4      0.00      0.00
    1   10    4      2.98      0.00
    2   10    4      2.83      0.00
    3   10    4     -0.73      0.00
    4   10    4    -10.46      0.00
    5   10    4      1.98      0.00
    6   10    4      9.19      0.00
    7   10    4      2.45      0.00
    8   10    4     -0.75      0.00
    9   10    4     -7.51      0.00
   10   10    4     -5.11      0.00
   11   10    4      1.01      0.00
   12   10    4      2.13      0.00
   13   10    4      4.60      0.00
   14   10    4      3.33      0.00
   15   10    4     -5.85      0.00
   16   10    4     -5.64      0.00
   17   10    4      2.07      0.00
   18   10    4      4.43      0.00
   19   10    4     -1.25      0.00
   20   10    4      1.90      0.00
   21   10    4     -1.29      0.00
   22   10    4     -9.93      0.00
   23   10    4      3.11      0.00
   24   10    4      9.38      0.00
   25   10    4     -8.95      0.00
   26   10    4      1.35      0.00
   27   10    4     -4.41      0.00
   28   10    4     -3.63      0.00
   29   10    4      2.84      0.00
   30   10    4      3.93      0.00
   31   10    4      5.35      0.00
   32   10    4     -1.49      0.00
   33   10    4      8.93      0.00
   34   10    4     -3.67      0.00
   35   10    4    -37.91      0.00
   36   10    4      4.06      0.00
   37   10    4     13.50      0.00
   38   10    4     -2.19      0.00
   39   10    4     28.94      0.00
   40   10    4      0.50      0.00
   41   10    4    -29.11      0.00
   42   10    4      5.54      0.00
   43   10    4      0.26      0.00
   44   10    4      4.72      0.00
   45   10    4      2.94      0.00
   46   10    4    -12.96      0.00
   47   10    4      9.16      0.00
   48   10    4      5.21      0.00
   49   10    4     -2.03      0.00
   50   10    4      1.07      0.00
   51   10    4    -11.21      0.00
   52   10    4     -5.64      0.00
   53   10    4     11.72      0.00
    1   11    4     -2.14      0.00
    2   11    4      5.46      0.00
    3   11    4     -2.58      0.00
    4   11    4     -2.40      0.00
    5   11    4      4.34      0.00
    6   11    4     -4.82      0.00
    7   11    4     -0.46      0.00
    8   11    4      6.13      0.00
    9   11    4      3.21      0.00
   10   11    4     -1.69      0.00
   11   11    4    -10.62      0.00
   12   11    4     -0.51      0.00
   13   11    4      2.80      0.00
   14   11    4     10.86      0.00
   15   11    4      1.19      0.00
   16   11    4     -7.31      0.00
   17   11    4      2.03      0.00
   18   11    4      5.15      0.00
   19   11    4    -10.53      0.00
   20   11    4     -6.17      0.00
   21   11    4      1.76      0.00
   22   11    4      3.31      0.00
   23   11    4     10.69      0.00
   24   11    4      0.90      0.00
   25   11    4     -5.13      0.00
   26   11    4      2.80      0.00
   27   11    4     -1.27      0.00
   28   11    4      1.17      0.00
   29   11    4     -7.32      0.00
   30   11    4      1.56      0.00
   31   11    4      1.11      0.00
   32   11    4      0.95      0.00
   33   11    4     25.51      0.00
   34   11    4     -0.50      0.00
   35   11    4    -13.57      0.00
   36   11    4     -4.79      0.00
   37   11    4    -15.16      0.00
   38   11    4      6.95      0.00
   39   11    4     13.58      0.00
   40   11    4      1.06      0.00
   41   11    4     20.29      0.00
   42   11    4     -9.02      0.00
   43   11    4    -14.06      0.00
   44   11    4     16.76      0.00
   45   11    4    -10.52      0.00
   46   11    4     -3.34      0.00
   47   11    4     13.51      0.00
   48   11    4     -4.06      0.00
    0   12    4      4.56      0.00
    1   12    4     -8.36      0.00
    2   12    4     -4.68      0.00
    3   12    4     -0.28      0.00
    4   12    4      9.05      0.00
    5   12    4     -1.46      0.00
    6   12    4     -5.55      0.00
    7   12    4      0.99      0.00
    8   12    4      4.62      0.00
    9   12    4      6.92      0.00
   10   12    4     -4.28      0.00
   11   12    4     -6.36      0.00
   12   12    4     -9.11      0.00
   13   12    4     -3.87      0.00
   14   12    4     10.77      0.00
   15   12    4      3.05      0.00
   16   12    4      1.54      0.00
   17   12    4      7.86      0.00
   18   12    4     -0.18      0.00
   19   12    4     -7.01      0.00
   20   12    4     -1.70      0.00
   21   12    4     -1.14      0.00
   22   12    4     -8.29      0.00
   23   12    4      1.49      0.00
   24   12    4      4.92      0.00
   25   12    4      5.82      0.00
   26   12    4     -5.36      0.00
   27   12    4      2.48      0.00
   28   12    4     -2.86      0.00
   29   12    4     -2.74      0.00
   30   12    4     10.39      0.00
   31   12    4      2.03      0.00
   32   12    4     -3.88      0.00
   33   12    4    -12.32      0.00
   34   12    4     -1.47      0.00
   35   12    4     28.73      0.00
   36   12    4     -6.22      0.00
   37   12    4     -9.78      0.00
   38   12    4      8.59      0.00
   39   12    4    -22.55      0.00
   40   12    4     -2.62      0.00
   41   12    4     21.05      0.00
   42   12    4    -12.60      0.00
    1   13    4     -5.73      0.00
    2   13    4      6.96      0.00
    3   13    4     15.59      0.00
    4   13    4    -12.11      0.00
    5   13    4    -14.38      0.00
    6   13    4      5.41      0.00
    7   13    4      4.23      0.00
    8   13    4      4.95      0.00
    9   13    4      2.37      0.00
   10   13    4     -2.05      0.00
   11   13    4      5.00      0.00
   12   13    4     -7.09      0.00
   13   13    4     -2.57      0.00
   14   13    4     -8.97      0.00
   15   13    4     -5.35      0.00
   16   13    4     12.08      0.00
   17   13    4      3.40      0.00
   18   13    4     -8.58      0.00
   19   13    4      9.47      0.00
   20   13    4      7.68      0.00
   21   13    4     -5.59      0.00
   22   13    4     -4.72      0.00
   23   13    4     -0.93      0.00
   24   13    4     -2.33      0.00
   25   13    4     -0.99      0.00
   26   13    4      3.02      0.00
   27   13    4      3.38      0.00
   28   13    4    -10.66      0.00
   29   13    4     -0.33      0.00
   30   13    4      4.33      0.00
   31   13    4      2.79      0.00
   32   13    4      3.24      0.00
   33   13    4    -15.52      0.00
   34   13    4     -1.51      0.00
   35   13    4     13.80      0.00
    2   14    4      6.28      0.00
    3   14    4      1.36      0.00
    4   14    4     -9.02      0.00
    5   14    4     16.28      0.00
    6   14    4      2.16      0.00
    7   14    4    -15.24      0.00
    8   14    4      0.73      0.00
    9   14    4      2.39      0.00
   10   14    4      1.57      0.00
   11   14    4      3.70      0.00
   12   14    4      5.12      0.00
   13   14    4      1.67      0.00
   14   14    4     -8.00      0.00
   15   14    4      5.54      0.00
   16   14    4      2.75      0.00
   17   14    4    -19.80      0.00
   18   14    4     -0.36      0.00
   19   14    4     12.88      0.00
   20   14    4      1.97      0.00
   21   14    4      3.08      0.00
   22   14    4      4.09      0.00
   23   14    4     -7.89      0.00
   24   14    4     -4.80      0.00
    1    0    5    -20.86      0.00
    2    0    5     76.84      0.00
    3    0    5     15.58      0.00
    4    0    5    -66.29      0.00
    5    0    5     93.53      0.00
    6    0    5    -11.61      0.00
    7    0    5    -59.77      0.00
    8    0    5     72.95      0.00
    9    0    5     30.23      0.00
   10    0    5    -19.58      0.00
   11    0    5    -15.47      0.00
   12    0    5    -43.25      0.00
   13    0    5     23.12      0.00
   14    0    5     39.93      0.00
   15    0    5     -6.34      0.00
   16    0    5    -25.69      0.00
   17    0    5      3.44      0.00
   18    0    5     26.19      0.00
   19    0    5     16.67      0.00
   20    0    5      9.86      0.00
   21    0    5    -22.03      0.00
   22    0    5    -18.59      0.00
   23    0    5      8.93      0.00
   24    0    5      8.52      0.00
   25    0    5     -6.91      0.00
   26    0    5     -3.58      0.00
   27    0    5      9.91      0.00
   28    0    5     -6.74      0.00
   29    0    5     -3.34      0.00
   30    0    5     -1.12      0.00
   31    0    5     -3.72      0.00
   32    0    5     14.05      0.00
   33    0    5      2.12      0.00
   34    0    5     -7.05      0.00
   35    0    5     -0.09      0.00
   36    0    5     -7.52      0.00
   37    0    5     12.60      0.00
   38    0    5      6.26      0.00
   39    0    5    -13.14      0.00
   40    0    5     -0.66      0.00
   41    0    5      4.36      0.00
   42    0    5     -0.42      0.00
   43    0    5     -5.70      0.00
   44    0    5     -3.46      0.00
   45    0    5     10.54      0.00
   46    0    5      8.19      0.00
   47    0    5     -2.97      0.00
   48    0    5     -0.42      0.00
   49    0    5      5.17      0.00
   50    0    5     -4.12      0.00
   51    0    5    -14.07      0.00
   52    0    5      5.16      0.00
   53    0    5     -2.00      0.00
   54    0    5      6.88      0.00
   55    0    5      5.74      0.00
   56    0    5    -12.05      0.00
   57    0    5      4.33      0.00
   58    0    5      6.72      0.00
   59    0    5     -2.72      0.00
   60    0    5      3.48      0.00
   61    0    5     -4.49      0.00
   62    0    5      8.04      0.00
   63    0    5     -5.56      0.00
   64    0    5    -10.75      0.00
   65    0    5     12.41      0.00
   66    0    5     -4.16      0.00
   67    0    5    -10.87      0.00
   68    0    5      5.40      0.00
   69    0    5      7.22      0.00
   70    0    5     -1.50      0.00
    0    1    5     48.97      0.00
    1    1    5    -27.93      0.00
    2    1    5    -11.19      0.00
    3    1    5    -43.60      0.00
    4    1    5     -5.28      0.00
    5    1    5     13.93      0.00
    6    1    5     12.06      0.00
    7    1    5     44.45      0.00
    8    1    5      5.11      0.00
    9    1    5    -39.04      0.00
   10    1    5      9.46      0.00
   11    1    5    -21.97      0.00
   12    1    5     22.18      0.00
   13    1    5     46.93      0.00
   14    1    5    -14.50      0.00
   15    1    5    -60.38      0.00
   16    1    5    -12.22      0.00
   17    1    5     23.76      0.00
   18    1    5      4.42      0.00
   19    1    5     -3.16      0.00
   20    1    5      4.08      0.00
   21    1    5      3.17      0.00
   22    1    5      6.36      0.00
   23    1    5     -7.42      0.00
   24    1    5     -3.66      0.00
   25    1    5     -4.98      0.00
   26    1    5      2.92      0.00
   27    1    5      9.83      0.00
   28    1    5    -11.61      0.00
   29    1    5     -1.07      0.00
   30    1    5     -2.83      0.00
   31    1    5      3.31      0.00
   32    1    5      4.46      0.00
   33    1    5     -2.89      0.00
   34    1    5     -4.02      0.00
   35    1    5     -2.62      0.00
   36    1    5      3.05      0.00
   37    1    5      6.88      0.00
   38    1    5     -3.73      0.00
   39    1    5      2.73      0.00
   40    1    5      1.27      0.00
   41    1    5     -1.71      0.00
   42    1    5     -0.77      0.00
   43    1    5     -5.01      0.00
   44    1    5     -0.49      0.00
   45    1    5     -0.48      0.00
   46    1    5     -3.42      0.00
   47    1    5     -0.02      0.00
   48    1    5      6.59      0.00
   49    1    5     12.30      0.00
   50    1    5     -2.87      0.00
   51    1    5     -6.48      0.00
   52    1    5     -3.27      0.00
   53    1    5      3.44      0.00
   54    1    5      4.09      0.00
   55    1    5    -12.67      0.00
   56    1    5     -1.45      0.00
   57    1    5     12.68      0.00
   58    1    5     -8.06      0.00
   59    1    5     11.73      0.00
   60    1    5      3.65      0.00
   61    1    5     -8.74      0.00
   62    1    5     -4.36      0.00
   63    1    5      6.51      0.00
   64    1    5     10.11      0.00
   65    1    5      0.18      0.00
   66    1    5     -1.06      0.00
   67    1    5      1.27      0.00
   68    1    5    -26.42      0.00
   69    1    5     -9.49      0.00
   70    1    5     20.53      0.00
   71    1    5     26.08      0.00
    1    2    5     19.70      0.00
    2    2    5     31.84      0.00
    3    2    5    -34.59      0.00
    4    2    5     -6.02      0.00
    5    2    5    -36.13      0.00
    6    2    5    -13.47      0.00
    7    2    5     39.46      0.00
    8    2    5    -13.89      0.00
    9    2    5    -39.40      0.00
   10    2    5     11.88      0.00
   11    2    5     18.58      0.00
   12    2    5     -0.95      0.00
   13    2    5    -17.20      0.00
   14    2    5      4.04      0.00
   15    2    5      8.33      0.00
   16    2    5     13.16      0.00
   17    2    5     -7.59      0.00
   18    2    5    -28.98      0.00
   19    2    5      0.06      0.00
   20    2    5      6.25      0.00
   21    2    5     -4.55      0.00
   22    2    5      5.18      0.00
   23    2    5     13.49      0.00
   24    2    5    -10.68      0.00
   25    2    5     -7.35      0.00
   26    2    5     15.68      0.00
   27    2    5    -14.09      0.00
   28    2    5      3.03      0.00
   29    2    5     17.34      0.00
   30    2    5    -14.07      0.00
   31    2    5     -4.20      0.00
   32    2    5      5.45      0.00
   33    2    5     -1.81      0.00
   34    2    5      5.09      0.00
   35    2    5     -1.08      0.00
   36    2    5     -6.72      0.00
   37    2    5    -11.49      0.00
   38    2    5      2.14      0.00
   39    2    5     11.80      0.00
   40    2    5      5.58      0.00
   41    2    5     -5.52      0.00
   42    2    5     -8.57      0.00
   43    2    5      4.00      0.00
   44    2    5      5.96      0.00
   45    2    5     -6.77      0.00
   46    2    5     -1.90      0.00
   47    2    5      1.36      0.00
   48    2    5    -11.97      0.00
   49    2    5     -3.68      0.00
   50    2    5     12.39      0.00
   51    2    5      8.58      0.00
   52    2    5     -1.57      0.00
   53    2    5      6.42      0.00
   54    2    5     -8.31      0.00
   55    2    5    -13.08      0.00
   56    2    5      4.30      0.00
   57    2    5     -3.41      0.00
   58    2    5      0.22      0.00
   59    2    5      9.30      0.00
   60    2    5     -2.12      0.00
   61    2    5     -1.83      0.00
   62    2    5    -14.09      0.00
   63    2    5     -1.53      0.00
   64    2    5     17.12      0.00
   65    2    5      7.56      0.00
   66    2    5      1.49      0.00
   67    2    5     -8.30      0.00
   68    2    5     -9.42      0.00
   69    2    5    -14.02      0.00
   70    2    5      5.43      0.00
    0    3    5    -30.81      0.00
    1    3    5      2.77      0.00
    2    3    5     -6.53      0.00
    3    3    5      8.56      0.00
    4    3    5     28.45      0.00
    5    3    5      5.65      0.00
    6    3    5    -15.17      0.00
    7    3    5    -14.83      0.00
    8    3    5     -1.56      0.00
    9    3    5      8.82      0.00
   10    3    5     -1.06      0.00
   11    3    5     12.34      0.00
   12    3    5    -25.84      0.00
   13    3    5    -19.93      0.00
   14    3    5     18.82      0.00
   15    3    5     14.60      0.00
   16    3    5      3.83      0.00
   17    3    5      1.88      0.00
   18    3    5     -2.75      0.00
   19    3    5     -5.54      0.00
   20    3    5     -1.31      0.00
   21    3    5      3.11      0.00
   22    3    5     -2.96      0.00
   23    3    5     -1.40      0.00
   24    3    5     -0.48      0.00
   25    3    5      1.40      0.00
   26    3    5      1.04      0.00
   27    3    5     -2.94      0.00
   28    3    5      1.55      0.00
   29    3    5     -8.76      0.00
   30    3    5      3.85      0.00
   31    3    5      3.76      0.00
   32    3    5     -0.86      0.00
   33    3    5      6.45      0.00
   34    3    5     -0.39      0.00
   35    3    5     -1.17      0.00
   36    3    5     -0.65      0.00
   37    3    5     -8.51      0.00
   38    3    5      1.64      0.00
   39    3    5      3.78      0.00
   40    3    5     -2.02      0.00
   41    3    5      0.61      0.00
   42    3    5      3.73      0.00
   43    3    5     -0.63      0.00
   44    3    5     -0.88      0.00
   45    3    5      4.12      0.00
   46    3    5     -0.64      0.00
   47    3    5      2.10      0.00
   48    3    5     -4.01      0.00
   49    3    5    -15.17      0.00
   50    3    5      5.91      0.00
   51    3    5     13.07      0.00
   52    3    5     -5.67      0.00
   53    3    5     -4.41      0.00
   54    3    5      1.37      0.00
   55    3    5      1.12      0.00
   56    3    5      5.45      0.00
   57    3    5      0.64      0.00
   58    3    5     -5.96      0.00
   59    3    5     -9.08      0.00
   60    3    5      1.10      0.00
   61    3    5     -4.18      0.00
   62    3    5      6.81      0.00
   63    3    5      4.62      0.00
   64    3    5    -11.62      0.00
   65    3    5      5.30      0.00
   66    3    5      4.50      0.00
   67    3    5     -3.81      0.00
   68    3    5      5.95      0.00
   69    3    5     -3.51      0.00
   70    3    5     -3.69      0.00
    1    4    5     -7.17      0.00
    2    4    5      1.82      0.00
    3    4    5     10.25      0.00
    4    4    5    -19.00      0.00
    5    4    5     12.41      0.00
    6    4    5      5.18      0.00
    7    4    5    -14.38      0.00
    8    4    5     19.45      0.00
    9    4    5     14.62      0.00
   10    4    5     -6.30      0.00
   11    4    5     -5.22      0.00
   12    4    5    -14.02      0.00
   13    4    5      5.34      0.00
   14    4    5      6.59      0.00
   15    4    5     -6.04      0.00
   16    4    5     -7.00      0.00
   17    4    5      2.88      0.00
   18    4    5      6.51      0.00
   19    4    5      0.71      0.00
   20    4    5      0.36      0.00
   21    4    5      3.16      0.00
   22    4    5     -4.22      0.00
   23    4    5     -3.17      0.00
   24    4    5      2.70      0.00
   25    4    5      2.58      0.00
   26    4    5     -2.28      0.00
   27    4    5      8.44      0.00
   28    4    5     -3.59      0.00
   29    4    5     -8.72      0.00
   30    4    5      3.55      0.00
   31    4    5      0.46      0.00
   32    4    5      0.28      0.00
   33    4    5      4.31      0.00
   34    4    5     -3.25      0.00
   35    4    5      7.40      0.00
   36    4    5      6.11      0.00
   37    4    5     -4.41      0.00
   38    4    5     -3.94      0.00
   39    4    5      7.01      0.00
   40    4    5     -2.64      0.00
   41    4    5     -7.61      0.00
   42    4    5      6.33      0.00
   43    4    5      3.56      0.00
   44    4    5      0.26      0.00
   45    4    5      5.23      0.00
   46    4    5     -3.08      0.00
   47    4    5     -2.40      0.00
   48    4    5      4.04      0.00
   49    4    5      3.53      0.00
   50    4    5     -4.41      0.00
   51    4    5     -4.39      0.00
   52    4    5      3.84      0.00
   53    4    5      3.95      0.00
   54    4    5      3.58      0.00
   55    4    5     -5.66      0.00
   56    4    5     -3.37      0.00
   57    4    5     14.36      0.00
   58    4    5     -3.43      0.00
   59    4    5     -5.08      0.00
   60    4    5      5.76      0.00
   61    4    5      3.15      0.00
   62    4    5      0.59      0.00
   63    4    5     -8.50      0.00
   64    4    5      0.05      0.00
   65    4    5     11.21      0.00
   66    4    5      2.80      0.00
   67    4    5      2.95      0.00
   68    4    5     -5.17      0.00
   69    4    5     -0.29      0.00
    0    5    5     19.07      0.00
    1    5    5     -2.24      0.00
    2    5    5     -3.69      0.00
    3    5    5     -6.19      0.00
    4    5    5     -5.27      0.00
    5    5    5     -0.37      0.00
    6    5    5     -3.78      0.00
    7    5    5     10.72      0.00
    8    5    5     -2.96      0.00
    9    5    5     -6.69      0.00
   10    5    5     14.06      0.00
   11    5    5     -2.01      0.00
   12    5    5     -4.32      0.00
   13    5    5     10.43      0.00
   14    5    5      0.86      0.00
   15    5    5     -5.88      0.00
   16    5    5     -8.29      0.00
   17    5    5     -0.44      0.00
   18    5    5      4.90      0.00
   19    5    5      4.81      0.00
   20    5    5      5.70      0.00
   21    5    5      1.64      0.00
   22    5    5    -11.15      0.00
   23    5    5     -1.11      0.00
   24    5    5     10.36      0.00
   25    5    5     -0.26      0.00
   26    5    5     -3.04      0.00
   27    5    5      4.27      0.00
   28    5    5     -1.76      0.00
   29    5    5     -1.16      0.00
   30    5    5      0.51      0.00
   31    5    5      3.90      0.00
   32    5    5     -0.35      0.00
   33    5    5     -7.65      0.00
   34    5    5      0.75      0.00
   35    5    5      1.39      0.00
   36    5    5      0.89      0.00
   37    5    5      1.46      0.00
   38    5    5     -2.59      0.00
   39    5    5      3.88      0.00
   40    5    5      4.12      0.00
   41    5    5     -6.90      0.00
   42    5    5     -3.82      0.00
   43    5    5     -2.09      0.00
   44    5    5      1.92      0.00
   45    5    5      0.62      0.00
   46    5    5      1.08      0.00
   47    5    5      2.59      0.00
   48    5    5      2.27      0.00
   49    5    5     -1.50      0.00
   50    5    5     -4.10      0.00
   51    5    5     -0.19      0.00
   52    5    5      0.60      0.00
   53    5    5      3.71      0.00
   54    5    5      6.76      0.00
   55    5    5     -6.05      0.00
   56    5    5      2.14      0.00
   57    5    5     -1.47      0.00
   58    5    5     -9.59      0.00
   59    5    5      7.12      0.00
   60    5    5      8.96      0.00
   61    5    5      4.85      0.00
   62    5    5     -2.70      0.00
   63    5    5    -11.84      0.00
   64    5    5     -2.00      0.00
   65    5    5      7.23      0.00
   66    5    5      5.99      0.00
   67    5    5     -6.48      0.00
    1    6    5      7.87      0.00
    2    6    5      6.99      0.00
    3    6    5     -8.40      0.00
    4    6    5      5.67      0.00
    5    6    5     -1.15      0.00
    6    6    5     -5.05      0.00
    7    6    5      2.43      0.00
    8    6    5     -2.85      0.00
    9    6    5      8.87      0.00
   10    6    5     -1.22      0.00
   11    6    5    -12.37      0.00
   12    6    5      6.97      0.00
   13    6    5      3.94      0.00
   14    6    5      2.92      0.00
   15    6    5     10.21      0.00
   16    6    5     -1.91      0.00
   17    6    5    -14.91      0.00
   18    6    5      1.28      0.00
   19    6    5      5.20      0.00
   20    6    5     -8.04      0.00
   21    6    5      0.75      0.00
   22    6    5     11.86      0.00
   23    6    5      0.27      0.00
   24    6    5     -0.82      0.00
   25    6    5      3.54      0.00
   26    6    5     -9.72      0.00
   27    6    5    -13.06      0.00
   28    6    5     12.81      0.00
   29    6    5      5.93      0.00
   30    6    5     -4.73      0.00
   31    6    5     -0.68      0.00
   32    6    5     -3.36      0.00
   33    6    5      1.57      0.00
   34    6    5      2.56      0.00
   35    6    5     -7.16      0.00
   36    6    5      0.94      0.00
   37    6    5      1.74      0.00
   38    6    5     -2.25      0.00
   39    6    5     -0.08      0.00
   40    6    5     -2.83      0.00
   41    6    5      5.32      0.00
   42    6    5      8.90      0.00
   43    6    5    -10.83      0.00
   44    6    5     -6.55      0.00
   45    6    5      1.95      0.00
   46    6    5      1.96      0.00
   47    6    5      3.41      0.00
   48    6    5     -0.28      0.00
   49    6    5     -7.41      0.00
   50    6    5     -5.37      0.00
   51    6    5      6.85      0.00
   52    6    5      6.60      0.00
   53    6    5     -2.44      0.00
   54    6    5     -2.75      0.00
   55    6    5     -1.61      0.00
   56    6    5      6.99      0.00
   57    6    5     -8.25      0.00
   58    6    5    -10.22      0.00
   59    6    5      1.93      0.00
   60    6    5      0.05      0.00
   61    6    5     -0.50      0.00
   62    6    5      9.30      0.00
   63    6    5      1.37      0.00
   64    6    5     -5.87      0.00
   65    6    5     -4.07      0.00
    0    7    5    -10.71      0.00
    1    7    5      1.20      0.00
    2    7    5      2.50      0.00
    3    7    5      5.49      0.00
    4    7    5      4.80      0.00
    5    7    5     -2.85      0.00
    6    7    5     -0.97      0.00
    7    7    5    -10.25      0.00
    8    7    5      6.54      0.00
    9    7    5     12.90      0.00
   10    7    5     -8.96      0.00
   11    7    5     -3.74      0.00
   12    7    5      0.44      0.00
   13    7    5     -5.77      0.00
   14    7    5      1.91      0.00
   15    7    5      2.15      0.00
   16    7    5      5.61      0.00
   17    7    5      7.09      0.00
   18    7    5     -2.85      0.00
   19    7    5     -8.31      0.00
   20    7    5     -3.77      0.00
   21    7    5     -4.65      0.00
   22    7    5      4.86      0.00
   23    7    5     11.10      0.00
   24    7    5     -5.14      0.00
   25    7    5     -8.66      0.00
   26    7    5      7.50      0.00
   27    7    5     11.62      0.00
   28    7    5     -8.62      0.00
   29    7    5     -7.12      0.00
   30    7    5      7.82      0.00
   31    7    5     -0.40      0.00
   32    7    5     -2.53      0.00
   33    7    5      3.62      0.00
   34    7    5     -2.33      0.00
   35    7    5     -0.95      0.00
   36    7    5      3.42      0.00
   37    7    5      7.06      0.00
   38    7    5      2.68      0.00
   39    7    5     -8.56      0.00
   40    7    5     -9.78      0.00
   41    7    5     13.54      0.00
   42    7    5     -0.79      0.00
   43    7    5     -5.41      0.00
   44    7    5      7.94      0.00
   45    7    5      0.39      0.00
   46    7    5      6.64      0.00
   47    7    5     -1.54      0.00
   48    7    5    -17.70      0.00
   49    7    5     -2.11      0.00
   50    7    5      8.48      0.00
   51    7    5     10.81      0.00
   52    7    5     -7.09      0.00
   53    7    5     -7.79      0.00
   54    7    5     -1.65      0.00
   55    7    5      8.02      0.00
   56    7    5     13.74      0.00
   57    7    5     -5.01      0.00
   58    7    5     -6.85      0.00
   59    7    5     -3.43      0.00
   60    7    5    -13.34      0.00
   61    7    5      0.03      0.00
   62    7    5      6.12      0.00
   63    7    5      9.08      0.00
    1    8    5    -10.14      0.00
    2    8    5     -2.16      0.00
    3    8    5     14.32      0.00
    4    8    5     -4.61      0.00
    5    8    5     -1.30      0.00
    6    8    5      4.96      0.00
    7    8    5     -6.13      0.00
    8    8    5      0.58      0.00
    9    8    5      4.21      0.00
   10    8    5      0.58      0.00
   11    8    5      0.34      0.00
   12    8    5     -5.72      0.00
   13    8    5      0.56      0.00
   14    8    5      4.52      0.00
   15    8    5     -3.22      0.00
   16    8    5     -4.22      0.00
   17    8    5      1.85      0.00
   18    8    5      6.48      0.00
   19    8    5      0.74      0.00
   20    8    5     -3.67      0.00
   21    8    5      2.40      0.00
   22    8    5     -4.15      0.00
   23    8    5      0.29      0.00
   24    8    5      4.60      0.00
   25    8    5     -9.70      0.00
   26    8    5      2.88      0.00
   27    8    5      8.20      0.00
   28    8    5     -4.93      0.00
   29    8    5     -0.11      0.00
   30    8    5     -4.39      0.00
   31    8    5      3.31      0.00
   32    8    5     10.57      0.00
   33    8    5     -7.13      0.00
   34    8    5     -7.02      0.00
   35    8    5      0.45      0.00
   36    8    5     -4.79      0.00
   37    8    5     -3.07      0.00
   38    8    5      8.47      0.00
   39    8    5      4.69      0.00
   40    8    5      4.45      0.00
   41    8    5     -6.11      0.00
   42    8    5    -13.29      0.00
   43    8    5     12.23      0.00
   44    8    5     -3.76      0.00
   45    8    5     -7.44      0.00
   46    8    5      6.27      0.00
   47    8    5     -7.14      0.00
   48    8    5     11.20      0.00
   49    8    5      8.86      0.00
   50    8    5     -8.93      0.00
   51    8    5    -12.77      0.00
   52    8    5    -15.64      0.00
   53    8    5     14.11      0.00
   54    8    5     17.74      0.00
   55    8    5      0.39      0.00
   56    8    5     -6.42      0.00
   57    8    5      0.03      0.00
   58    8    5      3.91      0.00
   59    8    5     -4.93      0.00
   60    8    5     -0.08      0.00
    0    9    5     -8.78      0.00
    1    9    5     -3.37      0.00
    2    9    5      7.02      0.00
    3    9    5     -7.79      0.00
    4    9    5      0.84      0.00
    5    9    5      5.60      0.00
    6    9    5    -10.88      0.00
    7    9    5      2.99      0.00
    8    9    5      9.69      0.00
    9    9    5     -5.53      0.00
   10    9    5     -1.44      0.00
   11    9    5     -2.41      0.00
   12    9    5      1.21      0.00
   13    9    5     10.46      0.00
   14    9    5     -4.75      0.00
   15    9    5     -8.53      0.00
   16    9    5      0.64      0.00
   17    9    5     -1.81      0.00
   18    9    5      5.80      0.00
   19    9    5     -1.47      0.00
   20    9    5     -0.94      0.00
   21    9    5     -0.87      0.00
   22    9    5     -4.00      0.00
   23    9    5      2.21      0.00
   24    9    5     -3.07      0.00
   25    9    5      0.77      0.00
   26    9    5      6.22      0.00
   27    9    5     -9.97      0.00
   28    9    5      3.78      0.00
   29    9    5     -3.12      0.00
   30    9    5     -8.60      0.00
   31    9    5      5.28      0.00
   32    9    5      1.89      0.00
   33    9    5      3.35      0.00
   34    9    5      2.80      0.00
   35    9    5     -6.50      0.00
   36    9    5     -1.56      0.00
   37    9    5     -8.57      0.00
   38    9    5     -7.37      0.00
   39    9    5      7.78      0.00
   40    9    5      6.82      0.00
   41    9    5    -13.28      0.00
   42    9    5      7.39      0.00
   43    9    5      9.52      0.00
   44    9    5     -4.27      0.00
   45    9    5      6.97      0.00
   46    9    5    -13.10      0.00
   47    9    5     -8.86      0.00
   48    9    5     12.89      0.00
   49    9    5     -2.03      0.00
   50    9    5      3.29      0.00
   51    9    5     -2.95      0.00
   52    9    5     -6.27      0.00
   53    9    5      1.91      0.00
   54    9    5     -6.75      0.00
   55    9    5     -4.12      0.00
   56    9    5     15.11      0.00
   57    9    5     14.38      0.00
    1   10    5      3.13      0.00
    2   10    5     -1.58      0.00
    3   10    5     -3.16      0.00
    4   10    5      6.54      0.00
    5   10    5     -8.38      0.00
    6   10    5     -6.26      0.00
    7   10    5     11.24      0.00
    8   10    5      4.00      0.00
    9   10    5     -7.47      0.00
   10   10    5     -4.89      0.00
   11   10    5     -4.03      0.00
   12   10    5      5.96      0.00
   13   10    5      2.57      0.00
   14   10    5      0.65      0.00
   15   10    5      3.83      0.00
   16   10    5      0.45      0.00
   17   10    5     -4.75      0.00
   18   10    5     -9.61      0.00
   19   10    5      4.28      0.00
   20   10    5     16.28      0.00
   21   10    5     -9.15      0.00
   22   10    5     -8.95      0.00
   23   10    5      0.43      0.00
   24   10    5     -2.35      0.00
   25   10    5     15.57      0.00
   26   10    5      3.79      0.00
   27   10    5    -10.81      0.00
   28   10    5     -0.54      0.00
   29   10    5      1.43      0.00
   30   10    5      1.79      0.00
   31   10    5     -5.29      0.00
   32   10    5     -0.29      0.00
   33   10    5     10.36      0.00
   34   10    5      7.22      0.00
   35   10    5      6.58      0.00
   36   10    5    -14.86      0.00
   37   10    5     -6.63      0.00
   38   10    5     11.00      0.00
   39   10    5      1.75      0.00
   40   10    5      2.65      0.00
   41   10    5      5.88      0.00
   42   10    5    -15.01      0.00
   43   10    5    -11.95      0.00
   44   10    5     20.29      0.00
   45   10    5      8.53      0.00
   46   10    5     -3.63      0.00
   47   10    5     12.03      0.00
   48   10    5     -2.81      0.00
   49   10    5     -5.33      0.00
   50   10    5      3.46      0.00
   51   10    5     -3.13      0.00
   52   10    5     -1.81      0.00
   53   10    5     -1.29      0.00
    0   11    5    -10.71      0.00
    1   11    5      3.48      0.00
    2   11    5      8.82      0.00
    3   11    5      4.74      0.00
    4   11    5     -5.46      0.00
    5   11    5     -7.84      0.00
    6   11    5      5.14      0.00
    7   11    5     -2.28      0.00
    8   11    5      0.92      0.00
    9   11    5     13.36      0.00
   10   11    5     -6.18      0.00
   11   11    5     -5.25      0.00
   12   11    5     -0.35      0.00
   13   11    5     -6.83      0.00
   14   11    5      0.69      0.00
   15   11    5      6.04      0.00
   16   11    5      2.05      0.00
   17   11    5      6.08      0.00
   18   11    5     -0.87      0.00
   19   11    5     -3.77      0.00
   20   11    5      1.43      0.00
   21   11    5      2.09      0.00
   22   11    5     -7.46      0.00
   23   11    5     -0.44      0.00
   24   11    5      2.73      0.00
   25   11    5     -0.20      0.00
   26   11    5     -1.67      0.00
   27   11    5     10.39      0.00
   28   11    5      2.11      0.00
   29   11    5      3.28      0.00
   30   11    5     -7.68      0.00
   31   11    5    -11.08      0.00
   32   11    5      3.35      0.00
   33   11    5     -0.59      0.00
   34   11    5     19.88      0.00
   35   11    5     19.78      0.00
   36   11    5    -30.65      0.00
   37   11    5    -13.18      0.00
   38   11    5     17.33      0.00
   39   11    5      3.23      0.00
   40   11    5      2.35      0.00
   41   11    5     10.74      0.00
   42   11    5    -10.77      0.00
   43   11    5    -10.05      0.00
   44   11    5      3.52      0.00
   45   11    5     -5.95      0.00
   46   11    5      1.97      0.00
   47   11    5     12.43      0.00
   48   11    5      6.06      0.00
    1   12    5      3.63      0.00
    2   12    5      3.87      0.00
    3   12    5     -3.92      0.00
    4   12    5    -15.48      0.00
    5   12    5      3.69      0.00
    6   12    5     18.16      0.00
    7   12    5     -2.20      0.00
    8   12    5     -8.01      0.00
    9   12    5      1.15      0.00
   10   12    5     -0.03      0.00
   11   12    5      0.19      0.00
   12   12    5     -4.25      0.00
   13   12    5      4.17      0.00
   14   12    5     -1.56      0.00
   15   12    5     -5.70      0.00
   16   12    5     -5.42      0.00
   17   12    5      5.45      0.00
   18   12    5      6.01      0.00
   19   12    5      4.21      0.00
   20   12    5      1.02      0.00
   21   12    5    -11.78      0.00
   22   12    5      0.66      0.00
   23   12    5     10.23      0.00
   24   12    5     -7.27      0.00
   25   12    5     -2.76      0.00
   26   12    5      1.99      0.00
   27   12    5    -14.23      0.00
   28   12    5      1.88      0.00
   29   12    5     21.95      0.00
   30   12    5     -6.12      0.00
   31   12    5     -9.13      0.00
   32   12    5     -0.50      0.00
   33   12    5     -6.59      0.00
   34   12    5      9.24      0.00
   35   12    5     -3.71      0.00
   36   12    5     -5.31      0.00
   37   12    5      2.36      0.00
   38   12    5      0.39      0.00
   39   12    5      7.75      0.00
   40   12    5     -3.20      0.00
   41   12    5    -19.05      0.00
   42   12    5      4.05      0.00
    1   13    5      1.41      0.00
    2   13    5     -0.59      0.00
    3   13    5     -6.93      0.00
    4   13    5      2.95      0.00
    5   13    5      6.53      0.00
    6   13    5    -16.29      0.00
    7   13    5      2.75      0.00
    8   13    5     17.40      0.00
    9   13    5     -9.78      0.00
   10   13    5      2.45      0.00
   11   13    5     10.90      0.00
   12   13    5     -7.88      0.00
   13   13    5    -10.62      0.00
   14   13    5      5.29      0.00
   15   13    5      3.39      0.00
   16   13    5     -8.89      0.00
   17   13    5     -2.29      0.00
   18   13    5      9.51      0.00
   19   13    5      5.52      0.00
   20   13    5     -5.53      0.00
   21   13    5     -6.19      0.00
   22   13    5      9.99      0.00
   23   13    5      0.97      0.00
   24   13    5     -0.66      0.00
   25   13    5     -0.47      0.00
   26   13    5     -1.52      0.00
   27   13    5     -4.87      0.00
   28   13    5      3.10      0.00
   29   13    5     -5.13      0.00
   30   13    5     -3.37      0.00
   31   13    5     11.21      0.00
   32   13    5      2.42      0.00
   33   13    5     -2.65      0.00
   34   13    5     -6.65      0.00
    2   14    5     -5.49      0.00
    3   14    5    -18.87      0.00
    4   14    5     14.70      0.00
    5   14    5      8.21      0.00
    6   14    5    -14.45      0.00
    7   14    5     -3.09      0.00
    8   14    5     -2.74      0.00
    9   14    5      3.26      0.00
   10   14    5     15.06      0.00
   11   14    5     -3.71      0.00
   12   14    5     -0.86      0.00
   13   14    5      2.78      0.00
   14   14    5     -3.41      0.00
   15   14    5     -1.86      0.00
   16   14    5      5.88      0.00
   17   14    5     -3.46      0.00
   18   14    5     -7.12      0.00
   19   14    5      1.63      0.00
   20   14    5      7.16      0.00
   21   14    5      2.51      0.00
   22   14    5     -6.05      0.00
   23   14    5     -0.20      0.00
    0    0    6     -8.63      0.00
    1    0    6     81.39      0.00
    2    0    6    -22.86      0.00
    3    0    6    -34.83      0.00
    4    0    6     56.58      0.00
    5    0    6    -37.64      0.00
    6    0    6     36.26      0.00
    7    0    6     34.93      0.00
    8    0    6    -48.70      0.00
    9    0    6     12.40      0.00
   10    0    6     55.33      0.00
   11    0    6    -27.95      0.00
   12    0    6    -10.45      0.00
   13    0    6     -7.61      0.00
   14    0    6    -29.98      0.00
   15    0    6      2.22      0.00
   16    0    6     34.78      0.00
   17    0    6     -0.69      0.00
   18    0    6    -15.27      0.00
   19    0    6     13.37      0.00
   20    0    6      1.50      0.00
   21    0    6    -22.97      0.00
   22    0    6      8.15      0.00
   23    0    6      0.81      0.00
   24    0    6      4.69      0.00
   25    0    6     14.88      0.00
   26    0    6    -16.76      0.00
   27    0    6    -11.71      0.00
   28    0    6      5.51      0.00
   29    0    6     -1.25      0.00
   30    0    6     -6.73      0.00
   31    0    6     16.23      0.00
   32    0    6    -10.02      0.00
   33    0    6    -11.49      0.00
   34    0    6     18.66      0.00
   35    0    6     -2.06      0.00
   36    0    6     -7.41      0.00
   37    0    6      1.22      0.00
   38    0    6     -1.32      0.00
   39    0    6     10.87      0.00
   40    0    6     -2.25      0.00
   41    0    6    -10.47      0.00
   42    0    6      0.79      0.00
   43    0    6      2.17      0.00
   44    0    6     -3.66      0.00
   45    0    6      4.44      0.00
   46    0    6      5.54      0.00
   47    0    6     -1.13      0.00
   48    0    6      4.94      0.00
   49    0    6     -2.25      0.00
   50    0    6    -13.72      0.00
   51    0    6      2.97      0.00
   52    0    6     -0.95      0.00
   53    0    6      3.74      0.00
   54    0    6     13.18      0.00
   55    0    6      3.23      0.00
   56    0    6    -10.15      0.00
   57    0    6     -2.49      0.00
   58    0    6     -3.46      0.00
   59    0    6     13.17      0.00
   60    0    6      3.91      0.00
   61    0    6    -10.09      0.00
   62    0    6     -9.54      0.00
   63    0    6      7.48      0.00
   64    0    6      9.83      0.00
   65    0    6      4.88      0.00
   66    0    6      1.75      0.00
   67    0    6     -3.24      0.00
   68    0    6    -28.63      0.00
   69    0    6      5.43      0.00
   70    0    6     27.72      0.00
    1    1    6      0.95      0.00
    2    1    6    -46.96      0.00
    3    1    6     -8.58      0.00
    4    1    6     -0.93      0.00
    5    1    6     -8.72      0.00
    6    1    6     25.51      0.00
    7    1    6    -12.61      0.00
    8    1    6    -32.48      0.00
    9    1    6     -2.83      0.00
   10    1    6     31.92      0.00
   11    1    6      9.75      0.00
   12    1    6    -22.58      0.00
   13    1    6      3.73      0.00
   14    1    6      5.12      0.00
   15    1    6    -24.11      0.00
   16    1    6     -4.85      0.00
   17    1    6      5.21      0.00
   18    1    6     -6.16      0.00
   19    1    6      9.10      0.00
   20    1    6     -7.05      0.00
   21    1    6     -0.73      0.00
   22    1    6      3.20      0.00
   23    1    6     -8.98      0.00
   24    1    6      1.30      0.00
   25    1    6      5.52      0.00
   26    1    6     -1.72      0.00
   27    1    6     -5.10      0.00
   28    1    6     18.96      0.00
   29    1    6     -0.33      0.00
   30    1    6    -21.46      0.00
   31    1    6      1.84      0.00
   32    1    6      4.51      0.00
   33    1    6      0.19      0.00
   34    1    6      4.99      0.00
   35    1    6     -3.88      0.00
   36    1    6     -5.01      0.00
   37    1    6     -4.31      0.00
   38    1    6      9.08      0.00
   39    1    6      1.09      0.00
   40    1    6     -5.17      0.00
   41    1    6      2.48      0.00
   42    1    6      1.86      0.00
   43    1    6     -4.46      0.00
   44    1    6     -6.37      0.00
   45    1    6      1.44      0.00
   46    1    6      2.45      0.00
   47    1    6      2.08      0.00
   48    1    6     -0.75      0.00
   49    1    6      0.80      0.00
   50    1    6      4.25      0.00
   51    1    6     -5.34      0.00
   52    1    6     -6.75      0.00
   53    1    6      8.53      0.00
   54    1    6     -0.77      0.00
   55    1    6     -1.11      0.00
   56    1    6     -5.40      0.00
   57    1    6    -11.51      0.00
   58    1    6     17.52      0.00
   59    1    6     15.82      0.00
   60    1    6    -13.23      0.00
   61    1    6     -2.38      0.00
   62    1    6     -4.57      0.00
   63    1    6    -14.30      0.00
   64    1    6      8.28      0.00
   65    1    6     13.70      0.00
   66    1    6      7.66      0.00
   67    1    6     -1.46      0.00
   68    1    6     -7.07      0.00
   69    1    6    -18.03      0.00
   70    1    6    -10.41      0.00
   71    1    6     10.04      0.00
    0    2    6      4.18      0.00
    1    2    6    -28.57      0.00
    2    2    6    -15.43      0.00
    3    2    6     21.72      0.00
    4    2    6     15.13      0.00
    5    2    6     -1.18      0.00
    6    2    6    -43.49      0.00
    7    2    6      3.86      0.00
    8    2    6      8.80      0.00
    9    2    6     -4.09      0.00
   10    2    6     15.41      0.00
   11    2    6     -8.82      0.00
   12    2    6    -33.78      0.00
   13    2    6     28.76      0.00
   14    2    6     12.46      0.00
   15    2    6    -11.69      0.00
   16    2    6     -1.24      0.00
   17    2    6     -2.93      0.00
   18    2    6      3.55      0.00
   19    2    6      1.36      0.00
   20    2    6     -2.23      0.00
   21    2    6     11.77      0.00
   22    2    6      0.09      0.00
   23    2    6     -7.51      0.00
   24    2    6     -2.54      0.00
   25    2    6     -2.18      0.00
   26    2    6     -5.44      0.00
   27    2    6      4.41      0.00
   28    2    6     14.06      0.00
   29    2    6     -4.25      0.00
   30    2    6     -0.17      0.00
   31    2    6     -5.28      0.00
   32    2    6     -6.79      0.00
   33    2    6      6.15      0.00
   34    2    6      6.47      0.00
   35    2    6      3.98      0.00
   36    2    6     -3.45      0.00
   37    2    6     -8.38      0.00
   38    2    6      0.83      0.00
   39    2    6     -0.50      0.00
   40    2    6      0.53      0.00
   41    2    6      5.53      0.00
   42    2    6      1.95      0.00
   43    2    6     -2.85      0.00
   44    2    6     -0.49      0.00
   45    2    6     -1.48      0.00
   46    2    6     -2.71      0.00
   47    2    6      1.15      0.00
   48    2    6     -3.91      0.00
   49    2    6     -2.79      0.00
   50    2    6      8.38      0.00
   51    2    6      0.68      0.00
   52    2    6     -2.93      0.00
   53    2    6     -2.99      0.00
   54    2    6      5.28      0.00
   55    2    6      2.60      0.00
   56    2    6     -6.57      0.00
   57    2    6     -5.81      0.00
   58    2    6     -3.04      0.00
   59    2    6     -3.27      0.00
   60    2    6     13.54      0.00
   61    2    6     -1.05      0.00
   62    2    6     -4.82      0.00
   63    2    6     -8.24      0.00
   64    2    6     -9.18      0.00
   65    2    6     10.04      0.00
   66    2    6      8.66      0.00
   67    2    6     -0.79      0.00
   68    2    6     12.40      0.00
   69    2    6     -5.60      0.00
   70    2    6    -20.21      0.00
    1    3    6     -0.85      0.00
    2    3    6     -0.93      0.00
    3    3    6      9.17      0.00
    4    3    6     20.31      0.00
    5    3    6     -4.86      0.00
    6    3    6    -34.69      0.00
    7    3    6      9.57      0.00
    8    3    6     28.28      0.00
    9    3    6      2.10      0.00
   10    3    6    -15.19      0.00
   11    3    6     -3.20      0.00
   12    3    6     20.25      0.00
   13    3    6     -0.46      0.00
   14    3    6    -17.99      0.00
   15    3    6      5.93      0.00
   16    3    6      1.28      0.00
   17    3    6      4.22      0.00
   18    3    6      6.73      0.00
   19    3    6    -16.86      0.00
   20    3    6     -2.48      0.00
   21    3    6     11.18      0.00
   22    3    6     -1.92      0.00
   23    3    6      5.50      0.00
   24    3    6      2.43      0.00
   25    3    6     -5.33      0.00
   26    3    6      2.25      0.00
   27    3    6      1.12      0.00
   28    3    6    -10.24      0.00
   29    3    6      8.54      0.00
   30    3    6      7.53      0.00
   31    3    6     -9.84      0.00
   32    3    6     -1.65      0.00
   33    3    6      3.82      0.00
   34    3    6     -5.34      0.00
   35    3    6      7.18      0.00
   36    3    6      7.25      0.00
   37    3    6     -1.04      0.00
   38    3    6     -4.75      0.00
   39    3    6      1.09      0.00
   40    3    6     -0.08      0.00
   41    3    6     -1.10      0.00
   42    3    6      4.60      0.00
   43    3    6      5.31      0.00
   44    3    6      2.09      0.00
   45    3    6     -2.32      0.00
   46    3    6     -1.78      0.00
   47    3    6     -2.19      0.00
   48    3    6      2.82      0.00
   49    3    6      4.46      0.00
   50    3    6     -6.92      0.00
   51    3    6     -2.76      0.00
   52    3    6      2.73      0.00
   53    3    6     -0.91      0.00
   54    3    6      4.98      0.00
   55    3    6      0.69      0.00
   56    3    6      6.08      0.00
   57    3    6      4.83      0.00
   58    3    6    -13.92      0.00
   59    3    6      1.00      0.00
   60    3    6      6.99      0.00
   61    3    6     -1.82      0.00
   62    3    6      4.10      0.00
   63    3    6     -1.46      0.00
   64    3    6     -6.13      0.00
   65    3    6     -4.37      0.00
   66    3    6      0.21      0.00
   67    3    6     16.49      0.00
   68    3    6      2.68      0.00
   69    3    6     -4.03      0.00
   70    3    6      1.46      0.00
    0    4    6    -10.14      0.00
    1    4    6      6.44      0.00
    2    4    6      6.37      0.00
    3    4    6     -2.97      0.00
    4    4    6      1.06      0.00
    5    4    6     -3.47      0.00
    6    4    6     11.33      0.00
    7    4    6     -1.36      0.00
    8    4    6    -11.04      0.00
    9    4    6      6.53      0.00
   10    4    6      0.94      0.00
   11    4    6     -4.26      0.00
   12    4    6     12.68      0.00
   13    4    6     -5.01      0.00
   14    4    6    -17.76      0.00
   15    4    6      3.72      0.00
   16    4    6     17.21      0.00
   17    4    6      4.45      0.00
   18    4    6     -4.20      0.00
   19    4    6      4.02      0.00
   20    4    6     -6.56      0.00
   21    4    6    -19.65      0.00
   22    4    6     11.86      0.00
   23    4    6     14.37      0.00
   24    4    6    -10.83      0.00
   25    4    6      4.26      0.00
   26    4    6     -0.48      0.00
   27    4    6     -6.57      0.00
   28    4    6      5.64      0.00
   29    4    6      4.11      0.00
   30    4    6      4.37      0.00
   31    4    6      4.06      0.00
   32    4    6     -7.98      0.00
   33    4    6     -5.72      0.00
   34    4    6      5.36      0.00
   35    4    6     -0.07      0.00
   36    4    6     -0.82      0.00
   37    4    6      1.55      0.00
   38    4    6      0.28      0.00
   39    4    6      0.59      0.00
   40    4    6     -0.25      0.00
   41    4    6     -1.53      0.00
   42    4    6     -4.73      0.00
   43    4    6      1.09      0.00
   44    4    6      5.46      0.00
   45    4    6     -1.86      0.00
   46    4    6      2.27      0.00
   47    4    6      3.47      0.00
   48    4    6      5.31      0.00
   49    4    6     -2.76      0.00
   50    4    6     -6.32      0.00
   51    4    6     -3.08      0.00
   52    4    6     -1.13      0.00
   53    4    6      8.83      0.00
   54    4    6     -0.46      0.00
   55    4    6     -2.12      0.00
   56    4    6      5.25      0.00
   57    4    6     -6.29      0.00
   58    4    6      3.52      0.00
   59    4    6     10.71      0.00
   60    4    6     -4.09      0.00
   61    4    6     -0.89      0.00
   62    4    6     -0.67      0.00
   63    4    6     -1.31      0.00
   64    4    6      7.44      0.00
   65    4    6      1.17      0.00
   66    4    6     -2.37      0.00
   67    4    6     -3.93      0.00
   68    4    6     -3.48      0.00
    1    5    6      2.33      0.00
    2    5    6     -9.65      0.00
    3    5    6     -4.53      0.00
    4    5    6      2.94      0.00
    5    5    6      5.92      0.00
    6    5    6      5.11      0.00
    7    5    6     -8.44      0.00
    8    5    6     -4.27      0.00
    9    5    6      1.19      0.00
   10    5    6      9.87      0.00
   11    5    6      5.30      0.00
   12    5    6     -4.31      0.00
   13    5    6      4.20      0.00
   14    5    6      1.42      0.00
   15    5    6    -15.22      0.00
   16    5    6     -0.81      0.00
   17    5    6      5.50      0.00
   18    5    6     -2.09      0.00
   19    5    6     13.15      0.00
   20    5    6      7.93      0.00
   21    5    6    -10.18      0.00
   22    5    6      3.08      0.00
   23    5    6     -6.30      0.00
   24    5    6     -1.21      0.00
   25    5    6      4.29      0.00
   26    5    6     -4.94      0.00
   27    5    6      2.66      0.00
   28    5    6      5.77      0.00
   29    5    6     -7.02      0.00
   30    5    6     -6.88      0.00
   31    5    6      2.25      0.00
   32    5    6      6.07      0.00
   33    5    6     -0.31      0.00
   34    5    6     -0.15      0.00
   35    5    6     -3.03      0.00
   36    5    6     -6.09      0.00
   37    5    6     -1.70      0.00
   38    5    6      6.17      0.00
   39    5    6     -1.74      0.00
   40    5    6      2.28      0.00
   41    5    6      3.72      0.00
   42    5    6     -9.10      0.00
   43    5    6     -5.44      0.00
   44    5    6     -3.90      0.00
   45    5    6     -0.03      0.00
   46    5    6      7.39      0.00
   47    5    6      2.56      0.00
   48    5    6     -6.73      0.00
   49    5    6      0.46      0.00
   50    5    6      7.38      0.00
   51    5    6     -5.12      0.00
   52    5    6      1.37      0.00
   53    5    6     -1.23      0.00
   54    5    6     -7.19      0.00
   55    5    6      4.37      0.00
   56    5    6     -4.13      0.00
   57    5    6     -2.51      0.00
   58    5    6      7.50      0.00
   59    5    6     -1.51      0.00
   60    5    6     -0.49      0.00
   61    5    6     -4.29      0.00
   62    5    6     -4.96      0.00
   63    5    6      1.50      0.00
   64    5    6      0.51      0.00
   65    5    6     -4.04      0.00
   66    5    6      4.56      0.00
   67    5    6      3.17      0.00
    0    6    6     -1.71      0.00
    1    6    6    -11.11      0.00
    2    6    6      3.73      0.00
    3    6    6      9.08      0.00
    4    6    6      2.94      0.00
    5    6    6      1.56      0.00
    6    6    6    -10.47      0.00
    7    6    6     -1.22      0.00
    8    6    6      8.92      0.00
    9    6    6     -8.30      0.00
   10    6    6      4.37      0.00
   11    6    6      3.44      0.00
   12    6    6    -11.45      0.00
   13    6    6      4.46      0.00
   14    6    6     13.18      0.00
   15    6    6     -0.46      0.00
   16    6    6     -5.92      0.00
   17    6    6     -4.13      0.00
   18    6    6     -0.64      0.00
   19    6    6     -4.96      0.00
   20    6    6     -0.38      0.00
   21    6    6     10.38      0.00
   22    6    6     -0.54      0.00
   23    6    6     -4.19      0.00
   24    6    6      1.53      0.00
   25    6    6     -3.61      0.00
   26    6    6      3.93      0.00
   27    6    6     -1.61      0.00
   28    6    6     -3.91      0.00
   29    6    6     10.12      0.00
   30    6    6     -4.11      0.00
   31    6    6     -9.44      0.00
   32    6    6      6.26      0.00
   33    6    6      5.52      0.00
   34    6    6     -3.16      0.00
   35    6    6     -0.03      0.00
   36    6    6     -2.72      0.00
   37    6    6     -0.96      0.00
   38    6    6      0.05      0.00
   39    6    6      0.44      0.00
   40    6    6      1.91      0.00
   41    6    6      4.07      0.00
   42    6    6      3.51      0.00
   43    6    6      3.45      0.00
   44    6    6     -4.17      0.00
   45    6    6     -7.55      0.00
   46    6    6     -4.76      0.00
   47    6    6      3.92      0.00
   48    6    6      2.17      0.00
   49    6    6      0.53      0.00
   50    6    6      1.41      0.00
   51    6    6      3.78      0.00
   52    6    6    -12.00      0.00
   53    6    6     -2.36      0.00
   54    6    6     14.63      0.00
   55    6    6     -4.68      0.00
   56    6    6     -1.56      0.00
   57    6    6      7.09      0.00
   58    6    6    -15.65      0.00
   59    6    6     -6.29      0.00
   60    6    6      4.55      0.00
   61    6    6     11.05      0.00
   62    6    6      3.88      0.00
   63    6    6     -9.71      0.00
   64    6    6     -2.68      0.00
   65    6    6     -1.80      0.00
    1    7    6     -2.12      0.00
    2    7    6      1.93      0.00
    3    7    6     -0.03      0.00
    4    7    6     -0.03      0.00
    5    7    6      0.81      0.00
    6    7    6     -7.62      0.00
    7    7    6      7.19      0.00
    8    7    6      5.41      0.00
    9    7    6     -4.24      0.00
   10    7    6     -1.29      0.00
   11    7    6     -5.76      0.00
   12    7    6      2.28      0.00
   13    7    6     -0.04      0.00
   14    7    6     -4.31      0.00
   15    7    6      7.04      0.00
   16    7    6      1.10      0.00
   17    7    6     -1.32      0.00
   18    7    6     -1.69      0.00
   19    7    6     -1.70      0.00
   20    7    6      1.23      0.00
   21    7    6     -0.73      0.00
   22    7    6      2.97      0.00
   23    7    6     -0.27      0.00
   24    7    6     -9.20      0.00
   25    7    6      5.60      0.00
   26    7    6      8.58      0.00
   27    7    6     -7.23      0.00
   28    7    6     -1.81      0.00
   29    7    6      1.46      0.00
   30    7    6      0.21      0.00
   31    7    6      8.00      0.00
   32    7    6      0.10      0.00
   33    7    6     -4.34      0.00
   34    7    6     -3.80      0.00
   35    7    6     -3.48      0.00
   36    7    6      6.86      0.00
   37    7    6      1.87      0.00
   38    7    6      0.00      0.00
   39    7    6      4.34      0.00
   40    7    6     -3.96      0.00
   41    7    6    -12.14      0.00
   42    7    6      1.25      0.00
   43    7    6     14.57      0.00
   44    7    6      1.88      0.00
   45    7    6     -2.24      0.00
   46    7    6     -0.60      0.00
   47    7    6     -4.81      0.00
   48    7    6     -0.62      0.00
   49    7    6     -3.61      0.00
   50    7    6      4.46      0.00
   51    7    6     -0.36      0.00
   52    7    6     -2.42      0.00
   53    7    6     13.39      0.00
   54    7    6    -11.36      0.00
   55    7    6     -8.60      0.00
   56    7    6     15.67      0.00
   57    7    6      1.71      0.00
   58    7    6      3.24      0.00
   59    7    6     -1.30      0.00
   60    7    6    -14.16      0.00
   61    7    6      0.81      0.00
   62    7    6      2.31      0.00
   63    7    6      9.31      0.00
    0    8    6     -4.94      0.00
    1    8    6      0.36      0.00
    2    8    6      2.88      0.00
    3    8    6    -11.42      0.00
    4    8    6      1.27      0.00
    5    8    6      7.31      0.00
    6    8    6     -1.45      0.00
    7    8    6      0.71      0.00
    8    8    6      0.40      0.00
    9    8    6      2.52      0.00
   10    8    6     -4.70      0.00
   11    8    6     -2.34      0.00
   12    8    6      5.76      0.00
   13    8    6     -4.44      0.00
   14    8    6     -0.05      0.00
   15    8    6     -0.69      0.00
   16    8    6     -1.74      0.00
   17    8    6      3.09      0.00
   18    8    6     -0.67      0.00
   19    8    6      1.74      0.00
   20    8    6      1.25      0.00
   21    8    6     -6.62      0.00
   22    8    6      0.09      0.00
   23    8    6      4.93      0.00
   24    8    6     -1.84      0.00
   25    8    6     -5.08      0.00
   26    8    6     -2.48      0.00
   27    8    6     -2.03      0.00
   28    8    6      4.87      0.00
   29    8    6     -3.31      0.00
   30    8    6     -2.24      0.00
   31    8    6      2.35      0.00
   32    8    6      1.91      0.00
   33    8    6      7.16      0.00
   34    8    6     -3.55      0.00
   35    8    6    -14.16      0.00
   36    8    6     -3.47      0.00
   37    8    6      1.52      0.00
   38    8    6      0.10      0.00
   39    8    6      1.46      0.00
   40    8    6      4.31      0.00
   41    8    6     -8.94      0.00
   42    8    6      5.81      0.00
   43    8    6      6.32      0.00
   44    8    6     -4.98      0.00
   45    8    6     -4.51      0.00
   46    8    6     -6.66      0.00
   47    8    6     10.62      0.00
   48    8    6      2.11      0.00
   49    8    6     -9.94      0.00
   50    8    6      5.63      0.00
   51    8    6     -8.55      0.00
   52    8    6      5.46      0.00
   53    8    6      2.38      0.00
   54    8    6    -13.99      0.00
   55    8    6      8.01      0.00
   56    8    6     10.79      0.00
   57    8    6      0.51      0.00
   58    8    6      2.71      0.00
   59    8    6     -7.41      0.00
   60    8    6     -4.16      0.00
    1    9    6      2.21      0.00
    2    9    6     -3.13      0.00
    3    9    6      0.18      0.00
    4    9    6     -1.37      0.00
    5    9    6     -8.39      0.00
    6    9    6      5.56      0.00
    7    9    6     -0.94      0.00
    8    9    6     -6.53      0.00
    9    9    6      8.01      0.00
   10    9    6      5.77      0.00
   11    9    6     -4.76      0.00
   12    9    6     -3.00      0.00
   13    9    6      2.56      0.00
   14    9    6     -0.04      0.00
   15    9    6     -7.38      0.00
   16    9    6     -0.59      0.00
   17    9    6      3.91      0.00
   18    9    6      1.04      0.00
   19    9    6      2.19      0.00
   20    9    6     -3.68      0.00
   21    9    6     -5.97      0.00
   22    9    6      0.96      0.00
   23    9    6      7.26      0.00
   24    9    6      5.14      0.00
   25    9    6     -0.65      0.00
   26    9    6    -10.75      0.00
   27    9    6      0.52      0.00
   28    9    6      3.04      0.00
   29    9    6     -4.47      0.00
   30    9    6      1.79      0.00
   31    9    6     -5.86      0.00
   32    9    6     -1.87      0.00
   33    9    6     16.18      0.00
   34    9    6      6.15      0.00
   35    9    6      5.44      0.00
   36    9    6     -1.12      0.00
   37    9    6     -9.91      0.00
   38    9    6    -12.49      0.00
   39    9    6     -8.82      0.00
   40    9    6      3.30      0.00
   41    9    6     23.29      0.00
   42    9    6      4.64      0.00
   43    9    6    -15.96      0.00
   44    9    6      3.44      0.00
   45    9    6     -2.61      0.00
   46    9    6     10.77      0.00
   47    9    6     20.03      0.00
   48    9    6    -19.94      0.00
   49    9    6     -6.40      0.00
   50    9    6      4.53      0.00
   51    9    6     -0.66      0.00
   52    9    6      6.21      0.00
   53    9    6     -7.13      0.00
   54    9    6     -6.16      0.00
   55    9    6     -0.11      0.00
   56    9    6      2.06      0.00
    0   10    6      6.76      0.00
    1   10    6     -5.31      0.00
    2   10    6     -2.48      0.00
    3   10    6     11.42      0.00
    4   10    6     -0.41      0.00
    5   10    6     -7.03      0.00
    6   10    6     -3.63      0.00
    7   10    6     -1.10      0.00
    8   10    6     -0.34      0.00
    9   10    6      4.01      0.00
   10   10    6      4.98      0.00
   11   10    6      0.18      0.00
   12   10    6    -10.36      0.00
   13   10    6      2.29      0.00
   14   10    6      4.64      0.00
   15   10    6     -1.83      0.00
   16   10    6      4.92      0.00
   17   10    6      0.37      0.00
   18   10    6     -7.48      0.00
   19   10    6      7.82      0.00
   20   10    6      3.96      0.00
   21   10    6     -0.10      0.00
   22   10    6     -4.19      0.00
   23   10    6     -9.86      0.00
   24   10    6     -1.35      0.00
   25   10    6     12.50      0.00
   26   10    6      5.44      0.00
   27   10    6      8.18      0.00
   28   10    6     -0.62      0.00
   29   10    6     -3.53      0.00
   30   10    6     -3.66      0.00
   31   10    6     -8.89      0.00
   32   10    6     -5.34      0.00
   33   10    6     -0.60      0.00
   34   10    6     18.69      0.00
   35   10    6     21.67      0.00
   36   10    6     -6.36      0.00
   37   10    6      0.52      0.00
   38   10    6     -1.78      0.00
   39   10    6    -16.83      0.00
   40   10    6      6.69      0.00
   41   10    6     12.21      0.00
   42   10    6    -16.62      0.00
   43   10    6      1.47      0.00
   44   10    6      6.52      0.00
   45   10    6     -3.81      0.00
   46   10    6     14.87      0.00
   47   10    6      0.00      0.00
   48   10    6     -8.62      0.00
   49   10    6      4.33      0.00
   50   10    6     10.04      0.00
   51   10    6      9.24      0.00
   52   10    6    -13.74      0.00
    1   11    6      0.91      0.00
    2   11    6      3.09      0.00
    3   11    6     -0.49      0.00
    4   11    6      1.29      0.00
    5   11    6      3.51      0.00
    6   11    6     -1.47      0.00
    7   11    6      1.26      0.00
    8   11    6     -4.25      0.00
    9   11    6    -10.28      0.00
   10   11    6      5.40      0.00
   11   11    6     17.63      0.00
   12   11    6     -1.03      0.00
   13   11    6     -6.83      0.00
   14   11    6    -12.00      0.00
   15   11    6     -2.47      0.00
   16   11    6     11.11      0.00
   17   11    6     -2.96      0.00
   18   11    6     -8.38      0.00
   19   11    6      3.85      0.00
   20   11    6     11.58      0.00
   21   11    6      8.31      0.00
   22   11    6     -0.77      0.00
   23   11    6     -9.79      0.00
   24   11    6    -11.38      0.00
   25   11    6     -6.84      0.00
   26   11    6      7.40      0.00
   27   11    6      3.26      0.00
   28   11    6      3.68      0.00
   29   11    6     12.38      0.00
   30   11    6     -4.14      0.00
   31   11    6     -7.84      0.00
   32   11    6     -5.48      0.00
   33   11    6    -17.41      0.00
   34   11    6      8.71      0.00
   35   11    6      7.26      0.00
   36   11    6     -1.42      0.00
   37   11    6      7.57      0.00
   38   11    6     -0.30      0.00
   39   11    6     -0.42      0.00
   40   11    6      4.79      0.00
   41   11    6    -13.93      0.00
   42   11    6     -0.88      0.00
   43   11    6      2.36      0.00
   44   11    6    -15.44      0.00
   45   11    6      5.52      0.00
   46   11    6      2.49      0.00
   47   11    6     -7.24      0.00
    0   12    6      2.19      0.00
    1   12    6      2.34      0.00
    2   12    6     -2.49      0.00
    3   12    6      3.66      0.00
    4   12    6     -1.61      0.00
    5   12    6     -2.17      0.00
    6   12    6      3.38      0.00
    7   12    6     -1.62      0.00
    8   12    6     -2.94      0.00
    9   12    6     -1.49      0.00
   10   12    6      6.25      0.00
   11   12    6     -6.80      0.00
   12   12    6     -1.35      0.00
   13   12    6     10.64      0.00
   14   12    6      0.52      0.00
   15   12    6     -0.74      0.00
   16   12    6     -2.32      0.00
   17   12    6    -10.75      0.00
   18   12    6      1.46      0.00
   19   12    6     -2.61      0.00
   20   12    6     -0.72      0.00
   21   12    6      6.85      0.00
   22   12    6      7.23      0.00
   23   12    6     -0.96      0.00
   24   12    6      2.27      0.00
   25   12    6     -3.34      0.00
   26   12    6    -11.28      0.00
   27   12    6     -7.62      0.00
   28   12    6     16.32      0.00
   29   12    6     -2.44      0.00
   30   12    6     -8.36      0.00
   31   12    6     12.56      0.00
   32   12    6     -8.12      0.00
   33   12    6     -6.54      0.00
   34   12    6      9.73      0.00
   35   12    6     -7.31      0.00
   36   12    6     -2.88      0.00
   37   12    6     -8.27      0.00
   38   12    6     -8.16      0.00
   39   12    6     17.33      0.00
   40   12    6      6.17      0.00
   41   12    6     -2.76      0.00
    1   13    6     -7.45      0.00
    2   13    6    -12.15      0.00
    3   13    6      8.64      0.00
    4   13    6     16.17      0.00
    5   13    6     -4.75      0.00
    6   13    6     -7.37      0.00
    7   13    6      0.90      0.00
    8   13    6     -3.12      0.00
    9   13    6     13.71      0.00
   10   13    6      3.23      0.00
   11   13    6    -28.54      0.00
   12   13    6      8.32      0.00
   13   13    6     16.20      0.00
   14   13    6      3.81      0.00
   15   13    6      3.19      0.00
   16   13    6    -14.71      0.00
   17   13    6     -4.16      0.00
   18   13    6      8.96      0.00
   19   13    6      1.46      0.00
   20   13    6      6.07      0.00
   21   13    6     -6.89      0.00
   22   13    6     -7.99      0.00
   23   13    6      8.88      0.00
   24   13    6      0.92      0.00
   25   13    6      4.07      0.00
   26   13    6      1.80      0.00
   27   13    6     -2.51      0.00
   28   13    6      1.44      0.00
   29   13    6     -5.53      0.00
   30   13    6      0.53      0.00
   31   13    6      1.25      0.00
   32   13    6     -0.23      0.00
   33   13    6     14.03      0.00
    3   14    6     -2.99      0.00
    5   14    6     -7.48      0.00
    7   14    6      3.45      0.00
    8   14    6     -4.93      0.00
    9   14    6      9.78      0.00
   10   14    6     -6.66      0.00
   11   14    6      0.13      0.00
   12   14    6      3.77      0.00
   13   14    6    -11.50      0.00
   14   14    6      7.55      0.00
   15   14    6      4.44      0.00
   16   14    6     -6.17      0.00
   17   14    6      9.20      0.00
   18   14    6     -9.15      0.00
   19   14    6     -0.06      0.00
   20   14    6      8.09      0.00
   21   14    6     -8.63      0.00
   22   14    6     -0.01      0.00
    1    0    7    -13.18      0.00
    2    0    7    -44.36      0.00
    3    0    7      4.75      0.00
    4    0    7      7.70      0.00
    5    0    7     12.00      0.00
    6    0    7     32.17      0.00
    7    0    7     -8.91      0.00
    8    0    7    -62.48      0.00
    9    0    7      7.83      0.00
   10    0    7     42.18      0.00
   11    0    7     -4.32      0.00
   12    0    7     -5.67      0.00
   13    0    7    -18.60      0.00
   14    0    7    -28.32      0.00
   15    0    7     25.18      0.00
   16    0    7     23.63      0.00
   17    0    7    -16.31      0.00
   18    0    7    -15.03      0.00
   19    0    7     -3.65      0.00
   20    0    7     -5.79      0.00
   21    0    7     17.49      0.00
   22    0    7    -19.91      0.00
   23    0    7    -11.32      0.00
   24    0    7     30.68      0.00
   25    0    7     -6.60      0.00
   26    0    7     -9.86      0.00
   27    0    7     10.61      0.00
   28    0    7     -1.45      0.00
   29    0    7     -8.82      0.00
   30    0    7      9.68      0.00
   31    0    7    -10.16      0.00
   32    0    7    -13.75      0.00
   33    0    7      3.46      0.00
   34    0    7      0.20      0.00
   35    0    7     13.12      0.00
   36    0    7     10.34      0.00
   37    0    7    -15.46      0.00
   38    0    7      0.07      0.00
   39    0    7     -0.24      0.00
   40    0    7     -6.54      0.00
   41    0    7      4.18      0.00
   42    0    7     -2.51      0.00
   43    0    7     -4.29      0.00
   44    0    7     10.17      0.00
   45    0    7      0.82      0.00
   46    0    7     -6.02      0.00
   47    0    7      1.48      0.00
   48    0    7      0.54      0.00
   49    0    7     -0.94      0.00
   50    0    7     -3.15      0.00
   51    0    7      0.66      0.00
   52    0    7     -5.16      0.00
   53    0    7      8.30      0.00
   54    0    7      9.92      0.00
   55    0    7    -12.73      0.00
   56    0    7      5.91      0.00
   57    0    7      0.17      0.00
   58    0    7     -6.75      0.00
   59    0    7     12.08      0.00
   60    0    7     -4.92      0.00
   61    0    7     -5.87      0.00
   62    0    7     -4.45      0.00
   63    0    7     -3.34      0.00
   64    0    7     27.03      0.00
   65    0    7    -10.28      0.00
   66    0    7    -12.36      0.00
   67    0    7      9.33      0.00
   68    0    7     -5.65      0.00
   69    0    7      0.03      0.00
    0    1    7    -30.70      0.00
    1    1    7     -8.99      0.00
    2    1    7     17.11      0.00
    3    1    7     -2.67      0.00
    4    1    7    -16.47      0.00
    5    1    7     -7.80      0.00
    6    1    7    -27.14      0.00
    7    1    7     17.05      0.00
    8    1    7      5.75      0.00
    9    1    7     -0.36      0.00
   10    1    7     -1.66      0.00
   11    1    7     -0.66      0.00
   12    1    7    -19.90      0.00
   13    1    7     -1.13      0.00
   14    1    7     14.35      0.00
   15    1    7      5.73      0.00
   16    1    7     -9.33      0.00
   17    1    7     -3.50      0.00
   18    1    7      4.96      0.00
   19    1    7     -1.81      0.00
   20    1    7      9.33      0.00
   21    1    7      5.29      0.00
   22    1    7    -15.43      0.00
   23    1    7     -0.56      0.00
   24    1    7     -0.66      0.00
   25    1    7     -1.19      0.00
   26    1    7      0.57      0.00
   27    1    7      0.75      0.00
   28    1    7     13.95      0.00
   29    1    7      2.10      0.00
   30    1    7     -4.73      0.00
   31    1    7      1.65      0.00
   32    1    7      2.96      0.00
   33    1    7    -14.21      0.00
   34    1    7     -5.79      0.00
   35    1    7      7.99      0.00
   36    1    7     -0.64      0.00
   37    1    7      8.74      0.00
   38    1    7      6.01      0.00
   39    1    7     -7.63      0.00
   40    1    7      1.21      0.00
   41    1    7     -4.31      0.00
   42    1    7     -7.17      0.00
   43    1    7      7.35      0.00
   44    1    7     -0.86      0.00
   45    1    7     -3.77      0.00
   46    1    7      9.47      0.00
   47    1    7     -4.39      0.00
   48    1    7     -5.34      0.00
   49    1    7      1.64      0.00
   50    1    7      6.05      0.00
   51    1    7     -1.75      0.00
   52    1    7     -8.06      0.00
   53    1    7     -3.55      0.00
   54    1    7      4.72      0.00
   55    1    7      4.60      0.00
   56    1    7     -0.84      0.00
   57    1    7    -10.23      0.00
   58    1    7      9.63      0.00
   59    1    7    -10.40      0.00
   60    1    7     -0.20      0.00
   61    1    7     16.10      0.00
   62    1    7    -12.05      0.00
   63    1    7     -4.86      0.00
   64    1    7      4.88      0.00
   65    1    7    -16.88      0.00
   66    1    7      3.25      0.00
   67    1    7     17.41      0.00
   68    1    7     16.18      0.00
   69    1    7    -15.90      0.00
   70    1    7    -27.60      0.00
    1    2    7      0.83      0.00
    2    2    7     10.15      0.00
    3    2    7     10.93      0.00
    4    2    7     -1.00      0.00
    5    2    7    -18.01      0.00
    6    2    7      2.04      0.00
    7    2    7      6.34      0.00
    8    2    7      9.36      0.00
    9    2    7      6.17      0.00
   10    2    7    -21.86      0.00
   11    2    7      2.82      0.00
   12    2    7     30.51      0.00
   13    2    7     -4.83      0.00
   14    2    7     -6.19      0.00
   15    2    7     -3.70      0.00
   16    2    7    -16.07      0.00
   17    2    7      9.28      0.00
   18    2    7     19.97      0.00
   19    2    7     -7.32      0.00
   20    2    7     -4.01      0.00
   21    2    7      0.54      0.00
   22    2    7      4.41      0.00
   23    2    7      5.80      0.00
   24    2    7      3.29      0.00
   25    2    7      2.73      0.00
   26    2    7    -11.08      0.00
   27    2    7     -7.09      0.00
   28    2    7     -4.49      0.00
   29    2    7      9.55      0.00
   30    2    7     14.22      0.00
   31    2    7     -1.41      0.00
   32    2    7     -3.16      0.00
   33    2    7      1.91      0.00
   34    2    7    -11.65      0.00
   35    2    7     -2.07      0.00
   36    2    7     10.71      0.00
   37    2    7      2.19      0.00
   38    2    7     -5.84      0.00
   39    2    7      6.34      0.00
   40    2    7      1.69      0.00
   41    2    7     -0.85      0.00
   42    2    7      8.25      0.00
   43    2    7     -2.60      0.00
   44    2    7     -6.81      0.00
   45    2    7      1.46      0.00
   46    2    7     -4.15      0.00
   47    2    7      0.12      0.00
   48    2    7      7.52      0.00
   49    2    7     -1.10      0.00
   50    2    7      3.75      0.00
   51    2    7     -2.10      0.00
   52    2    7    -11.44      0.00
   53    2    7      0.53      0.00
   54    2    7      9.33      0.00
   55    2    7      8.16      0.00
   56    2    7     -2.48      0.00
   57    2    7     -6.95      0.00
   58    2    7     -4.79      0.00
   59    2    7      1.17      0.00
   60    2    7      4.48      0.00
   61    2    7     -0.72      0.00
   62    2    7      4.38      0.00
   63    2    7     -0.76      0.00
   64    2    7    -17.87      0.00
   65    2    7      6.83      0.00
   66    2    7     10.15      0.00
   67    2    7      0.73      0.00
   68    2    7      3.32      0.00
   69    2    7      6.78      0.00
   70    2    7     -6.01      0.00
    0    3    7     13.40      0.00
    1    3    7      8.72      0.00
    2    3    7     -6.21      0.00
    3    3    7      4.81      0.00
    4    3    7      3.22      0.00
    5    3    7     -4.31      0.00
    6    3    7     18.95      0.00
    7    3    7    -10.16      0.00
    8    3    7     -5.79      0.00
    9    3    7      1.96      0.00
   10    3    7    -10.20      0.00
   11    3    7      4.59      0.00
   12    3    7     17.65      0.00
   13    3    7     -3.49      0.00
   14    3    7     -4.40      0.00
   15    3    7      3.50      0.00
   16    3    7      0.65      0.00
   17    3    7     -4.99      0.00
   18    3    7      8.48      0.00
   19    3    7      3.94      0.00
   20    3    7    -21.43      0.00
   21    3    7     -7.26      0.00
   22    3    7     17.45      0.00
   23    3    7     -3.79      0.00
   24    3    7     -3.43      0.00
   25    3    7     12.78      0.00
   26    3    7     -2.63      0.00
   27    3    7     -4.19      0.00
   28    3    7      3.51      0.00
   29    3    7      3.91      0.00
   30    3    7     -4.02      0.00
   31    3    7     -6.21      0.00
   32    3    7      5.09      0.00
   33    3    7      7.84      0.00
   34    3    7      1.50      0.00
   35    3    7     -5.84      0.00
   36    3    7     -3.80      0.00
   37    3    7     -3.82      0.00
   38    3    7     -2.02      0.00
   39    3    7      7.87      0.00
   40    3    7      4.15      0.00
   41    3    7     -1.09      0.00
   42    3    7      1.60      0.00
   43    3    7     -0.83      0.00
   44    3    7     -0.21      0.00
   45    3    7      2.82      0.00
   46    3    7      0.13      0.00
   47    3    7      1.33      0.00
   48    3    7      4.00      0.00
   49    3    7     -2.68      0.00
   50    3    7     -7.75      0.00
   51    3    7      0.04      0.00
   52    3    7      4.74      0.00
   53    3    7      0.27      0.00
   54    3    7     -0.34      0.00
   55    3    7      5.11      0.00
   56    3    7     -2.37      0.00
   57    3    7      3.53      0.00
   58    3    7      3.56      0.00
   59    3    7     -0.54      0.00
   60    3    7      2.46      0.00
   61    3    7      5.92      0.00
   62    3    7     -1.24      0.00
   63    3    7     -4.48      0.00
   64    3    7     -1.88      0.00
   65    3    7     -5.71      0.00
   66    3    7     -2.18      0.00
   67    3    7      6.36      0.00
   68    3    7      6.80      0.00
   69    3    7     10.06      0.00
    1    4    7     -6.14      0.00
    2    4    7    -23.37      0.00
    3    4    7      0.67      0.00
    4    4    7     19.64      0.00
    5    4    7     10.75      0.00
    6    4    7     -4.10      0.00
    7    4    7     -4.48      0.00
    8    4    7     -5.90      0.00
    9    4    7     -0.93      0.00
   10    4    7     12.55      0.00
   11    4    7     -5.73      0.00
   12    4    7     -3.20      0.00
   13    4    7      0.70      0.00
   14    4    7    -13.41      0.00
   15    4    7      2.06      0.00
   16    4    7     11.15      0.00
   17    4    7      3.39      0.00
   18    4    7      7.78      0.00
   19    4    7      0.65      0.00
   20    4    7     -7.26      0.00
   21    4    7      3.16      0.00
   22    4    7      0.27      0.00
   23    4    7     -7.47      0.00
   24    4    7      6.07      0.00
   25    4    7     -7.60      0.00
   26    4    7     -4.25      0.00
   27    4    7      5.37      0.00
   28    4    7      0.78      0.00
   29    4    7      2.84      0.00
   30    4    7      1.86      0.00
   31    4    7     -2.45      0.00
   32    4    7     -2.81      0.00
   33    4    7     -0.37      0.00
   34    4    7      5.77      0.00
   35    4    7     -1.58      0.00
   36    4    7     -0.85      0.00
   37    4    7     -1.55      0.00
   38    4    7     -8.78      0.00
   39    4    7     -6.44      0.00
   40    4    7     10.37      0.00
   41    4    7      5.32      0.00
   42    4    7     -9.51      0.00
   43    4    7     -4.79      0.00
   44    4    7     -2.11      0.00
   45    4    7      1.78      0.00
   46    4    7      5.20      0.00
   47    4    7      2.76      0.00
   48    4    7     -3.96      0.00
   49    4    7      2.70      0.00
   50    4    7      3.91      0.00
   51    4    7     -4.60      0.00
   52    4    7     -1.84      0.00
   53    4    7     -4.67      0.00
   54    4    7     -2.65      0.00
   55    4    7      4.12      0.00
   56    4    7     -1.48      0.00
   57    4    7     -4.37      0.00
   58    4    7      7.88      0.00
   59    4    7      4.46      0.00
   60    4    7    -15.66      0.00
   61    4    7      0.60      0.00
   62    4    7     17.25      0.00
   63    4    7      0.90      0.00
   64    4    7     -0.16      0.00
   65    4    7     -8.46      0.00
   66    4    7    -17.81      0.00
   67    4    7     -2.37      0.00
   68    4    7     11.37      0.00
    0    5    7     -7.73      0.00
    1    5    7     -5.81      0.00
    2    5    7     11.81      0.00
    3    5    7     -6.11      0.00
    4    5    7     -9.13      0.00
    5    5    7      0.74      0.00
    6    5    7     -0.97      0.00
    7    5    7      3.79      0.00
    8    5    7      6.12      0.00
    9    5    7     10.15      0.00
   10    5    7     -5.07      0.00
   11    5    7     -9.04      0.00
   12    5    7      4.89      0.00
   13    5    7      3.17      0.00
   14    5    7      3.21      0.00
   15    5    7     -1.77      0.00
   16    5    7     -2.69      0.00
   17    5    7     -5.15      0.00
   18    5    7     -7.12      0.00
   19    5    7      3.94      0.00
   20    5    7      8.58      0.00
   21    5    7      5.14      0.00
   22    5    7     -2.46      0.00
   23    5    7      1.55      0.00
   24    5    7     -2.01      0.00
   25    5    7     -5.65      0.00
   26    5    7      0.79      0.00
   27    5    7     -0.97      0.00
   28    5    7      4.23      0.00
   29    5    7     -4.19      0.00
   30    5    7     -7.58      0.00
   31    5    7      5.95      0.00
   32    5    7      1.63      0.00
   33    5    7     -2.60      0.00
   34    5    7     -1.26      0.00
   35    5    7      0.44      0.00
   36    5    7     -3.17      0.00
   37    5    7      6.31      0.00
   38    5    7      4.12      0.00
   39    5    7     -7.96      0.00
   40    5    7     -3.93      0.00
   41    5    7      4.15      0.00
   42    5    7      2.16      0.00
   43    5    7      0.88      0.00
   44    5    7      2.03      0.00
   45    5    7     -5.50      0.00
   46    5    7     -8.38      0.00
   47    5    7     -3.25      0.00
   48    5    7     -0.31      0.00
   49    5    7      9.80      0.00
   50    5    7      3.07      0.00
   51    5    7      5.68      0.00
   52    5    7     -1.83      0.00
   53    5    7    -13.86      0.00
   54    5    7     -3.63      0.00
   55    5    7      2.56      0.00
   56    5    7      3.92      0.00
   57    5    7      3.85      0.00
   58    5    7      0.96      0.00
   59    5    7    -10.32      0.00
   60    5    7    -10.77      0.00
   61    5    7      8.86      0.00
   62    5    7     -2.47      0.00
   63    5    7      1.11      0.00
   64    5    7      6.83      0.00
   65    5    7     -5.96      0.00
   66    5    7      1.12      0.00
    1    6    7      1.19      0.00
    2    6    7      5.89      0.00
    3    6    7      4.44      0.00
    4    6    7     -4.12      0.00
    5    6    7    -10.58      0.00
    6    6    7      0.08      0.00
    7    6    7      3.09      0.00
    8    6    7     -2.14      0.00
    9    6    7     -1.47      0.00
   10    6    7      3.70      0.00
   11    6    7      6.44      0.00
   12    6    7     -9.46      0.00
   13    6    7     -1.48      0.00
   14    6    7      4.46      0.00
   15    6    7     -3.87      0.00
   16    6    7      1.65      0.00
   17    6    7      2.01      0.00
   18    6    7     -6.57      0.00
   19    6    7      2.40      0.00
   20    6    7      9.55      0.00
   21    6    7     -8.83      0.00
   22    6    7    -10.23      0.00
   23    6    7      6.38      0.00
   24    6    7     -0.08      0.00
   25    6    7      5.70      0.00
   26    6    7      1.87      0.00
   27    6    7     -6.15      0.00
   28    6    7     -1.50      0.00
   29    6    7      0.64      0.00
   30    6    7      6.16      0.00
   31    6    7      5.03      0.00
   32    6    7     -3.66      0.00
   33    6    7     -5.63      0.00
   34    6    7      2.49      0.00
   35    6    7      3.55      0.00
   36    6    7     -1.10      0.00
   37    6    7     -0.94      0.00
   38    6    7      2.43      0.00
   39    6    7      1.04      0.00
   40    6    7     -5.70      0.00
   41    6    7     -2.65      0.00
   42    6    7      7.80      0.00
   43    6    7     11.37      0.00
   44    6    7      0.34      0.00
   45    6    7     -5.72      0.00
   46    6    7      1.58      0.00
   47    6    7    -11.18      0.00
   48    6    7     -2.01      0.00
   49    6    7      7.02      0.00
   50    6    7      3.86      0.00
   51    6    7      2.69      0.00
   52    6    7     -0.45      0.00
   53    6    7      1.29      0.00
   54    6    7     -9.07      0.00
   55    6    7     -0.49      0.00
   56    6    7      5.90      0.00
   57    6    7     -3.63      0.00
   58    6    7      8.00      0.00
   59    6    7      2.31      0.00
   60    6    7      1.87      0.00
   61    6    7      0.35      0.00
   62    6    7     -9.53      0.00
   63    6    7     -0.16      0.00
   64    6    7     -1.45      0.00
    0    7    7      6.63      0.00
    1    7    7      3.64      0.00
    2    7    7     -6.37      0.00
    3    7    7      0.70      0.00
    4    7    7      5.95      0.00
    5    7    7     -0.47      0.00
    6    7    7     -3.91      0.00
    7    7    7     -0.85      0.00
    8    7    7     -3.35      0.00
    9    7    7     -5.92      0.00
   10    7    7      3.62      0.00
   11    7    7      9.71      0.00
   12    7    7     -1.83      0.00
   13    7    7     -4.63      0.00
   14    7    7      4.38      0.00
   15    7    7     -2.54      0.00
   16    7    7    -10.29      0.00
   17    7    7      2.13      0.00
   18    7    7      7.07      0.00
   19    7    7     -1.26      0.00
   20    7    7     -0.12      0.00
   21    7    7      2.21      0.00
   22    7    7     -3.57      0.00
   23    7    7     -4.65      0.00
   24    7    7      7.38      0.00
   25    7    7      3.73      0.00
   26    7    7     -9.06      0.00
   27    7    7     -3.60      0.00
   28    7    7      0.60      0.00
   29    7    7      2.66      0.00
   30    7    7      2.86      0.00
   31    7    7     -6.49      0.00
   32    7    7      1.86      0.00
   33    7    7      3.49      0.00
   34    7    7     -2.91      0.00
   35    7    7      5.95      0.00
   36    7    7     -1.46      0.00
   37    7    7    -12.45      0.00
   38    7    7      2.92      0.00
   39    7    7      2.24      0.00
   40    7    7      0.77      0.00
   41    7    7     -1.06      0.00
   42    7    7     -1.43      0.00
   43    7    7     -1.43      0.00
   44    7    7     -1.92      0.00
   45    7    7      3.96      0.00
   46    7    7      0.93      0.00
   47    7    7      5.43      0.00
   48    7    7      4.39      0.00
   49    7    7    -17.29      0.00
   50    7    7     -7.49      0.00
   51    7    7      4.77      0.00
   52    7    7     15.59      0.00
   53    7    7      6.42      0.00
   54    7    7     -4.21      0.00
   55    7    7     -8.06      0.00
   56    7    7    -14.44      0.00
   57    7    7      8.85      0.00
   58    7    7     11.06      0.00
   59    7    7     -8.66      0.00
   60    7    7      5.97      0.00
   61    7    7      1.88      0.00
   62    7    7      1.29      0.00
    1    8    7      3.18      0.00
    2    8    7      0.70      0.00
    3    8    7     -8.53      0.00
    4    8    7      3.17      0.00
    5    8    7      8.87      0.00
    6    8    7     -1.65      0.00
    7    8    7     -4.13      0.00
    8    8    7      2.20      0.00
    9    8    7     -4.11      0.00
   10    8    7     -5.65      0.00
   11    8    7      0.63      0.00
   12    8    7      1.57      0.00
   13    8    7      7.64      0.00
   14    8    7     -2.88      0.00
   15    8    7     -4.31      0.00
   16    8    7      6.81      0.00
   17    8    7     -4.84      0.00
   18    8    7     -5.77      0.00
   19    8    7      7.20      0.00
   20    8    7     -5.06      0.00
   21    8    7     -6.62      0.00
   22    8    7     13.62      0.00
   23    8    7      4.50      0.00
   24    8    7    -12.69      0.00
   25    8    7     -0.50      0.00
   26    8    7     -5.31      0.00
   27    8    7     -2.22      0.00
   28    8    7     12.29      0.00
   29    8    7      7.04      0.00
   30    8    7     -9.47      0.00
   31    8    7     -9.61      0.00
   32    8    7      0.54      0.00
   33    8    7      3.04      0.00
   34    8    7      3.13      0.00
   35    8    7      4.13      0.00
   36    8    7     -0.03      0.00
   37    8    7      3.08      0.00
   38    8    7    -11.16      0.00
   39    8    7     -5.83      0.00
   40    8    7      5.24      0.00
   41    8    7      5.26      0.00
   42    8    7     -0.15      0.00
   43    8    7     -9.56      0.00
   44    8    7      4.01      0.00
   45    8    7     10.89      0.00
   46    8    7      0.46      0.00
   47    8    7      0.64      0.00
   48    8    7    -10.49      0.00
   49    8    7     -4.34      0.00
   50    8    7      0.25      0.00
   51    8    7      9.01      0.00
   52    8    7      9.82      0.00
   53    8    7    -13.07      0.00
   54    8    7     -6.53      0.00
   55    8    7      6.92      0.00
   56    8    7      1.31      0.00
   57    8    7      4.37      0.00
   58    8    7      0.30      0.00
   59    8    7     -6.92      0.00
    0    9    7     -7.64      0.00
    1    9    7     -2.65      0.00
    2    9    7      5.03      0.00
    3    9    7     -0.38      0.00
    4    9    7     -7.98      0.00
    5    9    7      2.96      0.00
    6    9    7      5.37      0.00
    7    9    7     -0.18      0.00
    8    9    7     -1.66      0.00
    9    9    7      2.80      0.00
   10    9    7      1.78      0.00
   11    9    7     -7.64      0.00
   12    9    7     -4.57      0.00
   13    9    7      5.34      0.00
   14    9    7     -0.83      0.00
   15    9    7      4.21      0.00
   16    9    7      1.11      0.00
   17    9    7     -0.99      0.00
   18    9    7     -2.07      0.00
   19    9    7      0.13      0.00
   20    9    7      0.30      0.00
   21    9    7     -4.85      0.00
   22    9    7      3.31      0.00
   23    9    7     14.30      0.00
   24    9    7      5.44      0.00
   25    9    7    -13.68      0.00
   26    9    7    -10.25      0.00
   27    9    7     12.77      0.00
   28    9    7      1.58      0.00
   29    9    7     -3.76      0.00
   30    9    7      5.05      0.00
   31    9    7      4.31      0.00
   32    9    7     -1.58      0.00
   33    9    7     -2.31      0.00
   34    9    7      4.38      0.00
   35    9    7     -3.58      0.00
   36    9    7      3.67      0.00
   37    9    7     18.01      0.00
   38    9    7     -1.19      0.00
   39    9    7    -13.83      0.00
   40    9    7     -2.61      0.00
   41    9    7     11.55      0.00
   42    9    7     -2.04      0.00
   43    9    7     -6.83      0.00
   44    9    7      0.49      0.00
   45    9    7      3.56      0.00
   46    9    7     12.01      0.00
   47    9    7      2.77      0.00
   48    9    7     -3.88      0.00
   49    9    7     -1.78      0.00
   50    9    7     -4.76      0.00
   51    9    7      5.86      0.00
   52    9    7      2.76      0.00
   53    9    7     -4.76      0.00
   54    9    7     -0.70      0.00
   55    9    7      3.62      0.00
   56    9    7     -1.90      0.00
    1   10    7     -0.07      0.00
    2   10    7      8.27      0.00
    3   10    7      2.70      0.00
    4   10    7     -6.48      0.00
    5   10    7      0.98      0.00
    6   10    7      2.85      0.00
    7   10    7     -8.86      0.00
    8   10    7     -6.45      0.00
    9   10    7     14.83      0.00
   10   10    7      9.73      0.00
   11   10    7     -5.43      0.00
   12   10    7     -2.41      0.00
   13   10    7     -7.15      0.00
   14   10    7     -0.21      0.00
   15   10    7      5.74      0.00
   16   10    7     -5.65      0.00
   17   10    7      4.58      0.00
   18   10    7     10.32      0.00
   19   10    7     -8.42      0.00
   20   10    7     -2.07      0.00
   21   10    7      6.97      0.00
   22   10    7     -5.48      0.00
   23   10    7     -8.38      0.00
   24   10    7     12.50      0.00
   25   10    7      1.45      0.00
   26   10    7      1.27      0.00
   27   10    7      4.14      0.00
   28   10    7    -10.05      0.00
   29   10    7     -7.59      0.00
   30   10    7      7.30      0.00
   31   10    7      8.38      0.00
   32   10    7      0.40      0.00
   33   10    7     -9.41      0.00
   34   10    7     -6.49      0.00
   35   10    7      0.09      0.00
   36   10    7     13.47      0.00
   37   10    7     -2.17      0.00
   38   10    7      3.15      0.00
   39   10    7      7.68      0.00
   40   10    7    -15.28      0.00
   41   10    7     -6.69      0.00
   42   10    7     13.59      0.00
   43   10    7     -5.18      0.00
   44   10    7    -10.34      0.00
   45   10    7      7.53      0.00
   46   10    7      0.87      0.00
   47   10    7     -6.16      0.00
   48   10    7      3.41      0.00
   49   10    7      0.65      0.00
   50   10    7      2.84      0.00
   51   10    7      1.34      0.00
    0   11    7      1.03      0.00
    1   11    7     -1.89      0.00
    2   11    7     -5.35      0.00
    3   11    7      3.41      0.00
    4   11    7      7.61      0.00
    5   11    7     -1.29      0.00
    6   11    7      2.61      0.00
    7   11    7      0.05      0.00
    8   11    7     -6.15      0.00
    9   11    7     -7.14      0.00
   10   11    7      3.06      0.00
   11   11    7      4.74      0.00
   12   11    7      5.90      0.00
   13   11    7     -2.44      0.00
   14   11    7     -1.75      0.00
   15   11    7      1.16      0.00
   16   11    7      1.60      0.00
   17   11    7     -7.29      0.00
   18   11    7     -9.01      0.00
   19   11    7     -2.81      0.00
   20   11    7      5.47      0.00
   21   11    7     13.69      0.00
   22   11    7     10.27      0.00
   23   11    7    -15.38      0.00
   24   11    7    -10.42      0.00
   25   11    7     -0.32      0.00
   26   11    7      2.80      0.00
   27   11    7      2.25      0.00
   28   11    7      1.27      0.00
   29   11    7     -2.66      0.00
   30   11    7      3.16      0.00
   31   11    7     -0.48      0.00
   32   11    7     -9.66      0.00
   33   11    7     -1.94      0.00
   34   11    7    -10.66      0.00
   35   11    7      1.05      0.00
   36   11    7     18.17      0.00
   37   11    7     -8.68      0.00
   38   11    7     -8.82      0.00
   39   11    7      4.83      0.00
   40   11    7     -1.39      0.00
   41   11    7      0.89      0.00
   42   11    7      0.12      0.00
   43   11    7     -5.41      0.00
   44   11    7      0.55      0.00
   45   11    7     -1.09      0.00
   46   11    7     -9.77      0.00
    1   12    7     -6.70      0.00
    2   12    7     -5.64      0.00
    3   12    7      7.06      0.00
    4   12    7     12.16      0.00
    5   12    7     -4.73      0.00
    6   12    7    -19.47      0.00
    7   12    7      8.73      0.00
    8   12    7     19.60      0.00
    9   12    7    -10.00      0.00
   10   12    7    -11.92      0.00
   11   12    7      2.19      0.00
   12   12    7      4.63      0.00
   13   12    7     -2.19      0.00
   14   12    7      5.50      0.00
   15   12    7      7.55      0.00
   16   12    7      1.18      0.00
   17   12    7     -1.18      0.00
   18   12    7     -5.33      0.00
   19   12    7     -6.70      0.00
   20   12    7     -5.85      0.00
   21   12    7      7.87      0.00
   22   12    7      1.51      0.00
   23   12    7      4.01      0.00
   24   12    7     10.74      0.00
   25   12    7     -9.59      0.00
   26   12    7    -10.07      0.00
   27   12    7      9.44      0.00
   28   12    7     -8.28      0.00
   29   12    7      2.34      0.00
   30   12    7     23.75      0.00
   31   12    7     -4.83      0.00
   32   12    7    -17.97      0.00
   33   12    7      1.53      0.00
   34   12    7     -5.42      0.00
   35   12    7      7.82      0.00
   36   12    7     12.81      0.00
   37   12    7     -3.91      0.00
   38   12    7    -19.68      0.00
   39   12    7     -5.67      0.00
   40   12    7     19.72      0.00
    0   13    7      6.77      0.00
    1   13    7    -10.00      0.00
    3   13    7     -0.21      0.00
    4   13    7      0.53      0.00
    5   13    7      5.29      0.00
    6   13    7      6.73      0.00
    7   13    7     -5.37      0.00
    8   13    7     -4.79      0.00
    9   13    7     13.65      0.00
   10   13    7     -4.00      0.00
   11   13    7     -8.41      0.00
   12   13    7     -4.13      0.00
   13   13    7      1.45      0.00
   14   13    7      8.52      0.00
   15   13    7     -1.27      0.00
   16   13    7      0.19      0.00
   17   13    7      7.99      0.00
   18   13    7     -3.55      0.00
   19   13    7      0.01      0.00
   20   13    7     -1.08      0.00
   21   13    7      1.00      0.00
   22   13    7     -4.34      0.00
   23   13    7     -2.75      0.00
   24   13    7      4.99      0.00
   25   13    7      6.28      0.00
   26   13    7     -5.43      0.00
   27   13    7     -1.88      0.00
   28   13    7      7.12      0.00
   29   13    7     -1.61      0.00
   30   13    7     -9.78      0.00
   31   13    7      7.13      0.00
   32   13    7      8.11      0.00
    4   14    7    -17.15      0.00
    5   14    7      6.06      0.00
    6   14    7     12.80      0.00
    7   14    7    -11.36      0.00
    8   14    7     -7.52      0.00
    9   14    7      4.26      0.00
   10   14    7     13.87      0.00
   11   14    7     10.11      0.00
   12   14    7    -21.61      0.00
   13   14    7     -7.96      0.00
   14   14    7      6.69      0.00
   15   14    7     -5.35      0.00
   16   14    7      4.88      0.00
   17   14    7      2.13      0.00
   18   14    7     -3.56      0.00
   19   14    7      1.87      0.00
   20   14    7      2.21      0.00
    0    0    8    -62.26      0.00
    1    0    8     -7.73      0.00
    2    0    8     16.89      0.00
    3    0    8    -19.13      0.00
    4    0    8      2.33      0.00
    5    0    8     14.40      0.00
    6    0    8     -7.26      0.00
    7    0    8     11.81      0.00
    8    0    8      2.06      0.00
    9    0    8    -22.72      0.00
   10    0    8    -31.23      0.00
   11    0    8     17.96      0.00
   12    0    8     -8.00      0.00
   13    0    8     -4.00      0.00
   14    0    8     33.20      0.00
   15    0    8    -19.53      0.00
   16    0    8    -19.23      0.00
   17    0    8     24.81      0.00
   18    0    8     -5.68      0.00
   19    0    8     -6.19      0.00
   20    0    8     22.36      0.00
   21    0    8     -9.34      0.00
   22    0    8    -19.69      0.00
   23    0    8     -7.81      0.00
   24    0    8     -8.40      0.00
   25    0    8     21.17      0.00
   26    0    8     20.49      0.00
   27    0    8     -3.15      0.00
   28    0    8     -6.13      0.00
   29    0    8    -10.65      0.00
   30    0    8      0.06      0.00
   31    0    8      3.99      0.00
   32    0    8     -6.58      0.00
   33    0    8     -7.81      0.00
   34    0    8      6.46      0.00
   35    0    8     17.52      0.00
   36    0    8      4.77      0.00
   37    0    8    -10.42      0.00
   38    0    8     -8.62      0.00
   39    0    8     -2.47      0.00
   40    0    8      3.66      0.00
   41    0    8      6.17      0.00
   42    0    8     -3.96      0.00
   43    0    8     -7.44      0.00
   44    0    8      2.54      0.00
   45    0    8      6.14      0.00
   46    0    8     -0.25      0.00
   47    0    8     -4.95      0.00
   48    0    8      4.85      0.00
   49    0    8      2.69      0.00
   50    0    8      1.75      0.00
   51    0    8    -16.20      0.00
   52    0    8     -2.29      0.00
   53    0    8      9.85      0.00
   54    0    8     -9.88      0.00
   55    0    8      5.62      0.00
   56    0    8     15.83      0.00
   57    0    8    -11.39      0.00
   58    0    8      4.89      0.00
   59    0    8    -10.06      0.00
   60    0    8     -6.31      0.00
   61    0    8      5.19      0.00
   62    0    8     -4.70      0.00
   63    0    8      4.71      0.00
   64    0    8     -0.66      0.00
   65    0    8     -1.40      0.00
   66    0    8      2.05      0.00
   67    0    8     -5.43      0.00
   68    0    8      9.56      0.00
    1    1    8     11.14      0.00
    2    1    8      0.62      0.00
    3    1    8    -15.19      0.00
    4    1    8    -30.26      0.00
    5    1    8    -13.93      0.00
    6    1    8     36.71      0.00
    7    1    8     20.54      0.00
    8    1    8     13.52      0.00
    9    1    8    -26.89      0.00
   10    1    8    -18.78      0.00
   11    1    8     25.40      0.00
   12    1    8     11.05      0.00
   13    1    8     -9.77      0.00
   14    1    8     -9.79      0.00
   15    1    8     -6.94      0.00
   16    1    8     13.48      0.00
   17    1    8      0.91      0.00
   18    1    8     -0.85      0.00
   19    1    8      6.05      0.00
   20    1    8      6.37      0.00
   21    1    8      7.79      0.00
   22    1    8      6.96      0.00
   23    1    8    -13.56      0.00
   24    1    8     -8.84      0.00
   25    1    8      2.57      0.00
   26    1    8      0.91      0.00
   27    1    8      8.30      0.00
   28    1    8     -5.60      0.00
   29    1    8     12.52      0.00
   30    1    8     15.98      0.00
   31    1    8    -15.31      0.00
   32    1    8    -10.15      0.00
   33    1    8      4.64      0.00
   34    1    8    -12.62      0.00
   35    1    8      4.66      0.00
   36    1    8     20.09      0.00
   37    1    8      0.90      0.00
   38    1    8     -5.28      0.00
   39    1    8      2.80      0.00
   40    1    8     -4.83      0.00
   41    1    8     -2.44      0.00
   42    1    8      6.20      0.00
   43    1    8      1.81      0.00
   44    1    8     -2.90      0.00
   45    1    8     -3.77      0.00
   46    1    8     -5.72      0.00
   47    1    8      3.40      0.00
   48    1    8      3.27      0.00
   49    1    8      5.07      0.00
   50    1    8      9.24      0.00
   51    1    8     -7.68      0.00
   52    1    8     -8.31      0.00
   53    1    8     -2.52      0.00
   54    1    8     -3.20      0.00
   55    1    8      1.65      0.00
   56    1    8     -0.27      0.00
   57    1    8     11.83      0.00
   58    1    8    -10.39      0.00
   59    1    8     -3.50      0.00
   60    1    8     17.54      0.00
   61    1    8    -11.90      0.00
   62    1    8     -6.73      0.00
   63    1    8      6.36      0.00
   64    1    8     -6.08      0.00
   65    1    8      9.63      0.00
   66    1    8     -9.28      0.00
   67    1    8      1.36      0.00
   68    1    8      3.07      0.00
   69    1    8     -2.77      0.00
   70    1    8      6.79      0.00
    0    2    8     32.88      0.00
    1    2    8     14.64      0.00
    2    2    8      1.00      0.00
    3    2    8      0.53      0.00
    4    2    8    -16.36      0.00
    5    2    8      3.93      0.00
    6    2    8     13.58      0.00
    7    2    8     -9.57      0.00
    8    2    8      2.30      0.00
    9    2    8     -8.46      0.00
   10    2    8      2.83      0.00
   11    2    8     15.76      0.00
   12    2    8     16.43      0.00
   13    2    8     -9.20      0.00
   14    2    8     -7.57      0.00
   15    2    8      9.51      0.00
   16    2    8     -9.47      0.00
   17    2    8     -3.32      0.00
   18    2    8      9.13      0.00
   19    2    8     -8.95      0.00
   20    2    8     -5.32      0.00
   21    2    8      3.79      0.00
   22    2    8      0.80      0.00
   23    2    8     10.30      0.00
   24    2    8      8.15      0.00
   25    2    8     -9.87      0.00
   26    2    8     -3.22      0.00
   27    2    8     -5.21      0.00
   28    2    8     -4.91      0.00
   29    2    8     13.19      0.00
   30    2    8      0.08      0.00
   31    2    8      0.55      0.00
   32    2    8     14.80      0.00
   33    2    8     -6.30      0.00
   34    2    8    -16.25      0.00
   35    2    8     -4.04      0.00
   36    2    8      1.18      0.00
   37    2    8      4.52      0.00
   38    2    8      6.84      0.00
   39    2    8      4.50      0.00
   40    2    8      3.03      0.00
   41    2    8     -5.46      0.00
   42    2    8     -3.82      0.00
   43    2    8      6.26      0.00
   44    2    8      2.86      0.00
   45    2    8     -0.75      0.00
   46    2    8     -2.61      0.00
   47    2    8     -3.70      0.00
   48    2    8     -2.61      0.00
   49    2    8      3.36      0.00
   50    2    8     -2.11      0.00
   51    2    8      9.31      0.00
   52    2    8      6.01      0.00
   53    2    8     -8.06      0.00
   54    2    8      3.38      0.00
   55    2    8      4.68      0.00
   56    2    8     -6.76      0.00
   57    2    8     -2.16      0.00
   58    2    8     -2.16      0.00
   59    2    8      8.34      0.00
   60    2    8     -2.98      0.00
   61    2    8      9.27      0.00
   62    2    8     -0.17      0.00
   63    2    8    -13.50      0.00
   64    2    8     17.60      0.00
   65    2    8     -1.01      0.00
   66    2    8     -5.58      0.00
   67    2    8      3.60      0.00
   68    2    8    -14.70      0.00
   69    2    8     16.07      0.00
    1    3    8     -6.74      0.00
    2    3    8      7.26      0.00
    3    3    8      4.10      0.00
    4    3    8      4.67      0.00
    5    3    8     12.19      0.00
    6    3    8     -9.46      0.00
    7    3    8    -11.35      0.00
    8    3    8     -1.60      0.00
    9    3    8     17.05      0.00
   10    3    8     -1.79      0.00
   11    3    8    -24.85      0.00
   12    3    8     -5.37      0.00
   13    3    8      6.24      0.00
   14    3    8     12.41      0.00
   15    3    8     11.29      0.00
   16    3    8     -6.15      0.00
   17    3    8     -2.11      0.00
   18    3    8      2.17      0.00
   19    3    8     -0.64      0.00
   20    3    8     -4.58      0.00
   21    3    8     -6.25      0.00
   22    3    8     -2.65      0.00
   23    3    8      5.31      0.00
   24    3    8      4.59      0.00
   25    3    8     -7.13      0.00
   26    3    8      1.94      0.00
   27    3    8      4.98      0.00
   28    3    8     -2.19      0.00
   29    3    8    -11.40      0.00
   30    3    8     -0.18      0.00
   31    3    8     10.63      0.00
   32    3    8      3.57      0.00
   33    3    8      2.81      0.00
   34    3    8      6.99      0.00
   35    3    8    -13.00      0.00
   36    3    8    -15.50      0.00
   37    3    8      1.80      0.00
   38    3    8      0.97      0.00
   39    3    8      2.41      0.00
   40    3    8     12.43      0.00
   41    3    8     -5.48      0.00
   42    3    8    -10.68      0.00
   43    3    8      1.49      0.00
   44    3    8      0.25      0.00
   45    3    8      7.29      0.00
   46    3    8      6.30      0.00
   47    3    8     -7.45      0.00
   48    3    8     -5.25      0.00
   49    3    8      1.40      0.00
   50    3    8      0.84      0.00
   51    3    8      3.19      0.00
   52    3    8     -5.20      0.00
   53    3    8     -7.83      0.00
   54    3    8      4.76      0.00
   55    3    8     11.15      0.00
   56    3    8      3.38      0.00
   57    3    8     -6.51      0.00
   58    3    8      8.69      0.00
   59    3    8    -10.97      0.00
   60    3    8    -12.89      0.00
   61    3    8     17.02      0.00
   62    3    8     -2.00      0.00
   63    3    8      3.13      0.00
   64    3    8      7.62      0.00
   65    3    8    -16.29      0.00
   66    3    8     -2.37      0.00
   67    3    8     -5.37      0.00
   68    3    8      9.57      0.00
   69    3    8     12.95      0.00
    0    4    8    -10.17      0.00
    1    4    8    -12.33      0.00
    2    4    8     -2.10      0.00
    3    4    8     -1.93      0.00
    4    4    8      7.33      0.00
    5    4    8     -1.74      0.00
    6    4    8     -1.00      0.00
    7    4    8      9.38      0.00
    8    4    8      3.73      0.00
    9    4    8      3.71      0.00
   10    4    8     -4.33      0.00
   11    4    8     -5.07      0.00
   12    4    8     -4.82      0.00
   13    4    8      8.87      0.00
   14    4    8      5.89      0.00
   15    4    8    -18.79      0.00
   16    4    8     -2.70      0.00
   17    4    8     10.81      0.00
   18    4    8     -1.71      0.00
   19    4    8      9.83      0.00
   20    4    8     13.15      0.00
   21    4    8     -7.82      0.00
   22    4    8    -12.79      0.00
   23    4    8     -0.85      0.00
   24    4    8     -0.20      0.00
   25    4    8      5.77      0.00
   26    4    8      8.62      0.00
   27    4    8     -3.84      0.00
   28    4    8    -13.10      0.00
   29    4    8     -6.08      0.00
   30    4    8      5.68      0.00
   31    4    8      3.08      0.00
   32    4    8     -3.20      0.00
   33    4    8      1.97      0.00
   34    4    8      4.85      0.00
   35    4    8      0.86      0.00
   36    4    8     -1.51      0.00
   37    4    8     -0.94      0.00
   38    4    8    -11.99      0.00
   39    4    8     -3.01      0.00
   40    4    8      4.93      0.00
   41    4    8      2.14      0.00
   42    4    8      6.08      0.00
   43    4    8     -6.50      0.00
   44    4    8     -5.77      0.00
   45    4    8      3.67      0.00
   46    4    8     -3.78      0.00
   47    4    8     -0.30      0.00
   48    4    8      0.57      0.00
   49    4    8     -2.88      0.00
   50    4    8      7.21      0.00
   51    4    8      5.10      0.00
   52    4    8     -6.83      0.00
   53    4    8     -6.70      0.00
   54    4    8     -2.58      0.00
   55    4    8     -1.69      0.00
   56    4    8     -3.18      0.00
   57    4    8      6.73      0.00
   58    4    8      6.69      0.00
   59    4    8    -12.81      0.00
   60    4    8      3.35      0.00
   61    4    8      1.42      0.00
   62    4    8    -12.04      0.00
   63    4    8     11.02      0.00
   64    4    8      3.87      0.00
   65    4    8     -7.38      0.00
   66    4    8     -4.83      0.00
   67    4    8     -2.90      0.00
    1    5    8      7.20      0.00
    2    5    8     -5.41      0.00
    3    5    8     -0.79      0.00
    4    5    8     -8.00      0.00
    5    5    8    -12.12      0.00
    6    5    8      3.28      0.00
    7    5    8     11.74      0.00
    8    5    8      6.32      0.00
    9    5    8    -12.23      0.00
   10    5    8      0.84      0.00
   11    5    8     12.46      0.00
   12    5    8     -9.68      0.00
   13    5    8      0.75      0.00
   14    5    8      9.57      0.00
   15    5    8     -2.65      0.00
   16    5    8    -11.34      0.00
   17    5    8     -1.34      0.00
   18    5    8      4.98      0.00
   19    5    8     -6.08      0.00
   20    5    8     -3.08      0.00
   21    5    8      9.48      0.00
   22    5    8     -0.10      0.00
   23    5    8     -4.43      0.00
   24    5    8      1.18      0.00
   25    5    8      0.38      0.00
   26    5    8      1.16      0.00
   27    5    8      2.88      0.00
   28    5    8     -4.25      0.00
   29    5    8      3.38      0.00
   30    5    8     -0.84      0.00
   31    5    8     -6.24      0.00
   32    5    8     -0.03      0.00
   33    5    8     -0.35      0.00
   34    5    8      1.93      0.00
   35    5    8      3.32      0.00
   36    5    8      8.45      0.00
   37    5    8      2.33      0.00
   38    5    8     -5.86      0.00
   39    5    8     -4.68      0.00
   40    5    8     -8.33      0.00
   41    5    8      7.70      0.00
   42    5    8      9.97      0.00
   43    5    8     -5.28      0.00
   44    5    8      6.06      0.00
   45    5    8      0.39      0.00
   46    5    8     -6.13      0.00
   47    5    8      2.16      0.00
   48    5    8      0.53      0.00
   49    5    8     -6.53      0.00
   50    5    8      2.80      0.00
   51    5    8      3.69      0.00
   52    5    8      1.25      0.00
   53    5    8      3.09      0.00
   54    5    8     -2.52      0.00
   55    5    8     -2.74      0.00
   56    5    8     -0.93      0.00
   57    5    8     -2.74      0.00
   58    5    8      1.43      0.00
   59    5    8      8.43      0.00
   60    5    8      5.10      0.00
   61    5    8    -11.20      0.00
   62    5    8     -6.15      0.00
   63    5    8      0.86      0.00
   64    5    8      4.89      0.00
   65    5    8     13.53      0.00
   66    5    8     -0.10      0.00
    0    6    8     14.90      0.00
    1    6    8      0.48      0.00
    2    6    8     -3.97      0.00
    3    6    8      4.87      0.00
    4    6    8     -5.48      0.00
    5    6    8      0.64      0.00
    6    6    8     -2.92      0.00
    7    6    8     -5.26      0.00
    8    6    8     -4.80      0.00
    9    6    8      3.29      0.00
   10    6    8      3.34      0.00
   11    6    8     -8.58      0.00
   12    6    8      7.97      0.00
   13    6    8      0.62      0.00
   14    6    8    -10.91      0.00
   15    6    8      6.33      0.00
   16    6    8      2.85      0.00
   17    6    8     -2.25      0.00
   18    6    8      1.83      0.00
   19    6    8     -0.62      0.00
   20    6    8     -3.49      0.00
   21    6    8     -3.24      0.00
   22    6    8     -1.47      0.00
   23    6    8      4.03      0.00
   24    6    8      3.76      0.00
   25    6    8     -5.31      0.00
   26    6    8     -2.88      0.00
   27    6    8     -0.03      0.00
   28    6    8      5.40      0.00
   29    6    8      6.07      0.00
   30    6    8     -0.46      0.00
   31    6    8     -1.79      0.00
   32    6    8     -6.57      0.00
   33    6    8     -2.27      0.00
   34    6    8      1.70      0.00
   35    6    8      3.31      0.00
   36    6    8      4.19      0.00
   37    6    8     -4.31      0.00
   38    6    8      5.95      0.00
   39    6    8      2.51      0.00
   40    6    8     -2.55      0.00
   41    6    8     -1.73      0.00
   42    6    8    -11.97      0.00
   43    6    8     -0.94      0.00
   44    6    8     12.41      0.00
   45    6    8      6.62      0.00
   46    6    8     -0.35      0.00
   47    6    8     -4.58      0.00
   48    6    8     -4.95      0.00
   49    6    8     -0.48      0.00
   50    6    8      2.62      0.00
   51    6    8      4.18      0.00
   52    6    8     13.41      0.00
   53    6    8     -6.57      0.00
   54    6    8    -13.70      0.00
   55    6    8      3.03      0.00
   56    6    8     -2.33      0.00
   57    6    8      0.82      0.00
   58    6    8     11.03      0.00
   59    6    8      2.45      0.00
   60    6    8     -1.58      0.00
   61    6    8     -0.55      0.00
   62    6    8      3.39      0.00
   63    6    8     -2.37      0.00
   64    6    8     -3.52      0.00
    1    7    8     -2.24      0.00
    2    7    8      2.73      0.00
    3    7    8      2.56      0.00
    4    7    8     11.10      0.00
    5    7    8     -1.67      0.00
    6    7    8     -5.36      0.00
    7    7    8     -3.01      0.00
    8    7    8     -7.12      0.00
    9    7    8      6.63      0.00
   10    7    8     -0.16      0.00
   11    7    8     -1.17      0.00
   12    7    8      6.99      0.00
   13    7    8     -4.89      0.00
   14    7    8     -4.25      0.00
   15    7    8     -1.14      0.00
   16    7    8      0.26      0.00
   17    7    8      5.97      0.00
   18    7    8      2.40      0.00
   19    7    8     -5.51      0.00
   20    7    8     -3.30      0.00
   21    7    8      5.27      0.00
   22    7    8      0.13      0.00
   23    7    8     -1.84      0.00
   24    7    8      2.07      0.00
   25    7    8     -2.85      0.00
   26    7    8     -7.61      0.00
   27    7    8      4.36      0.00
   28    7    8      5.31      0.00
   29    7    8     -7.68      0.00
   30    7    8      1.56      0.00
   31    7    8      7.24      0.00
   32    7    8     -7.18      0.00
   33    7    8     -2.86      0.00
   34    7    8      4.61      0.00
   35    7    8     -0.76      0.00
   36    7    8     -7.21      0.00
   37    7    8      3.91      0.00
   38    7    8     -4.28      0.00
   39    7    8     -1.49      0.00
   40    7    8     12.88      0.00
   41    7    8     -1.13      0.00
   42    7    8     -6.80      0.00
   43    7    8     -3.25      0.00
   44    7    8     -7.03      0.00
   45    7    8      5.58      0.00
   46    7    8      7.04      0.00
   47    7    8      1.59      0.00
   48    7    8     -7.44      0.00
   49    7    8     -5.47      0.00
   50    7    8     -2.36      0.00
   51    7    8      7.34      0.00
   52    7    8      3.92      0.00
   53    7    8      0.91      0.00
   54    7    8      7.88      0.00
   55    7    8     -6.89      0.00
   56    7    8     -9.71      0.00
   57    7    8      1.90      0.00
   58    7    8    -10.01      0.00
   59    7    8      1.27      0.00
   60    7    8     11.00      0.00
   61    7    8      0.27      0.00
    0    8    8     -9.12      0.00
    1    8    8      5.22      0.00
    2    8    8     -0.30      0.00
    3    8    8      6.13      0.00
    4    8    8      2.17      0.00
    5    8    8     -5.55      0.00
    6    8    8      4.67      0.00
    7    8    8     -0.51      0.00
    8    8    8     -2.76      0.00
    9    8    8      0.77      0.00
   10    8    8     -5.96      0.00
   11    8    8      1.61      0.00
   12    8    8      4.04      0.00
   13    8    8     -1.65      0.00
   14    8    8      0.39      0.00
   15    8    8      1.41      0.00
   16    8    8     -2.57      0.00
   17    8    8      0.63      0.00
   18    8    8      3.30      0.00
   19    8    8     -1.35      0.00
   20    8    8     -4.10      0.00
   21    8    8      3.09      0.00
   22    8    8      3.79      0.00
   23    8    8     -3.38      0.00
   24    8    8     -0.35      0.00
   25    8    8      2.76      0.00
   26    8    8      5.16      0.00
   27    8    8      2.39      0.00
   28    8    8    -12.91      0.00
   29    8    8     -3.84      0.00
   30    8    8     16.54      0.00
   31    8    8      1.77      0.00
   32    8    8     -7.57      0.00
   33    8    8      1.38      0.00
   34    8    8      1.78      0.00
   35    8    8      2.37      0.00
   36    8    8      6.00      0.00
   37    8    8     -5.55      0.00
   38    8    8     -7.17      0.00
   39    8    8     11.14      0.00
   40    8    8      6.90      0.00
   41    8    8     -0.10      0.00
   42    8    8     -7.12      0.00
   43    8    8    -11.23      0.00
   44    8    8      9.31      0.00
   45    8    8      8.96      0.00
   46    8    8     -1.87      0.00
   47    8    8     -0.97      0.00
   48    8    8     -1.08      0.00
   49    8    8      1.66      0.00
   50    8    8      1.67      0.00
   51    8    8      0.29      0.00
   52    8    8    -12.92      0.00
   53    8    8     -0.73      0.00
   54    8    8     23.23      0.00
   55    8    8      3.97      0.00
   56    8    8    -12.33      0.00
   57    8    8     -1.85      0.00
   58    8    8     -4.87      0.00
    1    9    8     -6.69      0.00
    2    9    8      3.93      0.00
    3    9    8      6.12      0.00
    4    9    8     -9.30      0.00
    5    9    8      2.14      0.00
    6    9    8     10.07      0.00
    7    9    8     -0.69      0.00
    8    9    8      0.33      0.00
    9    9    8     -2.12      0.00
   10    9    8     -5.43      0.00
   11    9    8      3.42      0.00
   12    9    8      2.59      0.00
   13    9    8     -3.33      0.00
   14    9    8      2.84      0.00
   15    9    8     -2.84      0.00
   16    9    8      4.38      0.00
   17    9    8      2.82      0.00
   18    9    8     -5.55      0.00
   19    9    8      1.32      0.00
   20    9    8      6.58      0.00
   21    9    8     -3.36      0.00
   22    9    8     -0.84      0.00
   23    9    8      2.13      0.00
   24    9    8     -0.67      0.00
   25    9    8      0.49      0.00
   26    9    8      8.68      0.00
   27    9    8     -6.03      0.00
   28    9    8     -3.08      0.00
   29    9    8      8.62      0.00
   30    9    8     -2.52      0.00
   31    9    8     -2.19      0.00
   32    9    8     10.82      0.00
   33    9    8     -6.93      0.00
   34    9    8     -7.22      0.00
   35    9    8      2.29      0.00
   36    9    8      1.88      0.00
   37    9    8      2.30      0.00
   38    9    8      9.62      0.00
   39    9    8     -2.44      0.00
   40    9    8     -6.39      0.00
   41    9    8      1.52      0.00
   42    9    8      2.43      0.00
   43    9    8      7.28      0.00
   44    9    8      2.32      0.00
   45    9    8    -13.53      0.00
   46    9    8     -6.36      0.00
   47    9    8     -1.32      0.00
   48    9    8     12.99      0.00
   49    9    8      6.03      0.00
   50    9    8    -10.56      0.00
   51    9    8      1.11      0.00
   52    9    8      1.52      0.00
   53    9    8     -3.89      0.00
   54    9    8      8.09      0.00
   55    9    8     -0.69      0.00
    0   10    8     -1.96      0.00
    1   10    8     -0.31      0.00
    2   10    8     -0.06      0.00
    3   10    8     -8.17      0.00
    4   10    8      6.03      0.00
    5   10    8      6.04      0.00
    6   10    8     -3.53      0.00
    7   10    8      0.29      0.00
    8   10    8      7.84      0.00
    9   10    8     -5.52      0.00
   10   10    8     -2.19      0.00
   11   10    8      3.98      0.00
   12   10    8     -5.37      0.00
   13   10    8     -0.33      0.00
   14   10    8     10.49      0.00
   15   10    8     -2.69      0.00
   16   10    8     -6.99      0.00
   17   10    8     -0.85      0.00
   18   10    8      4.07      0.00
   19   10    8     -0.11      0.00
   20   10    8      1.42      0.00
   21   10    8     -3.55      0.00
   22   10    8     -7.15      0.00
   23   10    8      5.31      0.00
   24   10    8      7.54      0.00
   25   10    8     -2.55      0.00
   26   10    8     -8.17      0.00
   27   10    8     -7.05      0.00
   28   10    8      8.00      0.00
   29   10    8      2.52      0.00
   30   10    8    -10.43      0.00
   31   10    8      6.15      0.00
   32   10    8      4.46      0.00
   33   10    8     -2.63      0.00
   34   10    8     -1.94      0.00
   35   10    8    -11.19      0.00
   36   10    8    -12.85      0.00
   37   10    8      6.07      0.00
   38   10    8     13.50      0.00
   39   10    8     -3.24      0.00
   40   10    8     -8.43      0.00
   41   10    8     -3.35      0.00
   42   10    8     -0.53      0.00
   43   10    8      6.56      0.00
   44   10    8      0.06      0.00
   45   10    8     -2.10      0.00
   46   10    8     -4.98      0.00
   47   10    8     -2.52      0.00
   48   10    8     10.07      0.00
   49   10    8     -8.75      0.00
   50   10    8    -20.41      0.00
    1   11    8     -3.38      0.00
    2   11    8     -2.71      0.00
    3   11    8      9.65      0.00
    4   11    8     -5.84      0.00
    5   11    8    -14.69      0.00
    6   11    8      6.61      0.00
    7   11    8      7.46      0.00
    8   11    8     -0.41      0.00
    9   11    8      8.15      0.00
   10   11    8     -0.89      0.00
   11   11    8    -13.37      0.00
   12   11    8     -1.12      0.00
   13   11    8      4.23      0.00
   14   11    8      0.16      0.00
   15   11    8      4.62      0.00
   16   11    8     -0.96      0.00
   17   11    8      3.11      0.00
   18   11    8      2.95      0.00
   19   11    8    -10.26      0.00
   20   11    8    -11.66      0.00
   21   11    8     10.68      0.00
   22   11    8      7.72      0.00
   23   11    8     -1.87      0.00
   24   11    8     -0.30      0.00
   25   11    8      0.35      0.00
   26   11    8    -12.92      0.00
   27   11    8      4.85      0.00
   28   11    8      6.78      0.00
   29   11    8     -9.50      0.00
   30   11    8      6.09      0.00
   31   11    8      6.49      0.00
   32   11    8    -11.64      0.00
   33   11    8      4.14      0.00
   34   11    8     -1.51      0.00
   35   11    8      1.25      0.00
   36   11    8      5.54      0.00
   37   11    8    -10.23      0.00
   38   11    8     -9.11      0.00
   39   11    8     10.39      0.00
   40   11    8      1.09      0.00
   41   11    8     -5.94      0.00
   42   11    8      5.56      0.00
   43   11    8     -0.87      0.00
   44   11    8     -6.62      0.00
   45   11    8      6.51      0.00
    0   12    8      7.54      0.00
    1   12    8     -7.87      0.00
    2   12    8     -4.35      0.00
    3   12    8      4.43      0.00
    4   12    8     -0.18      0.00
    5   12    8     -2.84      0.00
    6   12    8      4.91      0.00
    7   12    8      3.44      0.00
    8   12    8    -12.20      0.00
    9   12    8      0.83      0.00
   10   12    8      4.40      0.00
   11   12    8      1.10      0.00
   12   12    8      4.13      0.00
   13   12    8      6.50      0.00
   14   12    8     -9.63      0.00
   15   12    8     -9.67      0.00
   16   12    8     11.26      0.00
   17   12    8     11.22      0.00
   18   12    8     -4.56      0.00
   19   12    8     -1.79      0.00
   20   12    8     -5.22      0.00
   21   12    8     -2.60      0.00
   22   12    8      4.90      0.00
   23   12    8      4.35      0.00
   24   12    8     -1.37      0.00
   25   12    8      2.18      0.00
   26   12    8      2.20      0.00
   27   12    8     -2.62      0.00
   28   12    8     -7.73      0.00
   29   12    8      4.57      0.00
   30   12    8      7.44      0.00
   31   12    8     -1.91      0.00
   32   12    8     14.78      0.00
   33   12    8     -4.55      0.00
   34   12    8    -21.31      0.00
   35   12    8     12.12      0.00
   36   12    8     12.91      0.00
   37   12    8     -4.11      0.00
   38   12    8      6.62      0.00
   39   12    8     -5.08      0.00
    1   13    8     12.01      0.00
    2   13    8     -1.23      0.00
    3   13    8    -24.67      0.00
    4   13    8      5.80      0.00
    5   13    8     25.52      0.00
    6   13    8     -8.32      0.00
    7   13    8    -15.53      0.00
    8   13    8      7.94      0.00
    9   13    8     -0.23      0.00
   10   13    8      3.89      0.00
   11   13    8     11.83      0.00
   12   13    8    -15.57      0.00
   13   13    8    -15.44      0.00
   14   13    8     -5.52      0.00
   15   13    8     10.61      0.00
   16   13    8     23.49      0.00
   17   13    8     -5.64      0.00
   18   13    8     -6.64      0.00
   19   13    8     -2.32      0.00
   20   13    8    -10.25      0.00
   21   13    8      2.80      0.00
   22   13    8     11.13      0.00
   23   13    8     -4.28      0.00
   24   13    8     -3.38      0.00
   25   13    8     -3.85      0.00
   26   13    8      5.93      0.00
   27   13    8      4.34      0.00
   28   13    8    -11.76      0.00
   29   13    8      0.62      0.00
   30   13    8      7.25      0.00
   31   13    8     -8.83      0.00
    1   14    8      1.51      0.00
    2   14    8     -3.12      0.00
    3   14    8     -2.76      0.00
    4   14    8      6.36      0.00
    6   14    8     -4.91      0.00
    7   14    8      0.50      0.00
    8   14    8     -7.70      0.00
    9   14    8     -2.55      0.00
   10   14    8     23.25      0.00
   11   14    8     -1.87      0.00
   12   14    8    -10.26      0.00
   13   14    8      0.57      0.00
   14   14    8     -9.18      0.00
   15   14    8     -1.21      0.00
   16   14    8     -1.09      0.00
   17   14    8     -3.26      0.00
   18   14    8     14.23      0.00
    1    0    9      3.71      0.00
    2    0    9      4.27      0.00
    3    0    9    -20.21      0.00
    4    0    9     -1.76      0.00
    5    0    9      0.62      0.00
    6    0    9     17.70      0.00
    7    0    9     18.74      0.00
    8    0    9     -9.73      0.00
    9    0    9    -26.87      0.00
   10    0    9      4.89      0.00
   11    0    9     -6.83      0.00
   12    0    9     -5.44      0.00
   13    0    9     17.31      0.00
   14    0    9     10.55      0.00
   15    0    9     -1.30      0.00
   16    0    9     -4.97      0.00
   17    0    9     -7.78      0.00
   18    0    9      8.46      0.00
   19    0    9      4.45      0.00
   20    0    9      6.13      0.00
   21    0    9      0.62      0.00
   22    0    9      1.54      0.00
   23    0    9    -10.47      0.00
   24    0    9    -12.68      0.00
   25    0    9     25.03      0.00
   26    0    9     10.08      0.00
   27    0    9    -14.16      0.00
   28    0    9      6.66      0.00
   29    0    9      9.11      0.00
   30    0    9    -16.83      0.00
   31    0    9      1.88      0.00
   32    0    9     10.94      0.00
   33    0    9     -8.09      0.00
   34    0    9     -7.22      0.00
   35    0    9      8.64      0.00
   36    0    9     13.27      0.00
   37    0    9      3.04      0.00
   38    0    9     -6.40      0.00
   39    0    9     -0.78      0.00
   40    0    9     -6.34      0.00
   41    0    9     -1.96      0.00
   42    0    9      8.02      0.00
   43    0    9      1.04      0.00
   44    0    9     -7.39      0.00
   45    0    9      3.35      0.00
   46    0    9      8.43      0.00
   47    0    9     -3.76      0.00
   48    0    9     -5.91      0.00
   49    0    9      3.67      0.00
   50    0    9     -4.90      0.00
   51    0    9     -5.09      0.00
   52    0    9      1.26      0.00
   53    0    9      1.76      0.00
   54    0    9      3.77      0.00
   55    0    9      9.27      0.00
   56    0    9     -7.07      0.00
   57    0    9     -4.33      0.00
   58    0    9     -6.03      0.00
   59    0    9     -1.38      0.00
   60    0    9      2.24      0.00
   61    0    9    -10.30      0.00
   62    0    9      0.64      0.00
   63    0    9     16.10      0.00
   64    0    9     -8.89      0.00
   65    0    9     12.90      0.00
   66    0    9      6.44      0.00
   67    0    9    -23.78      0.00
   68    0    9    -14.81      0.00
    0    1    9     29.11      0.00
    1    1    9     -7.08      0.00
    2    1    9    -14.81      0.00
    3    1    9     -1.61      0.00
    4    1    9     -1.89      0.00
    5    1    9      7.66      0.00
    6    1    9     22.23      0.00
    7    1    9     -9.64      0.00
    8    1    9     -1.73      0.00
    9    1    9     13.92      0.00
   10    1    9     -4.20      0.00
   11    1    9      9.65      0.00
   12    1    9     14.51      0.00
   13    1    9    -34.14      0.00
   14    1    9     -7.20      0.00
   15    1    9     25.42      0.00
   16    1    9     -5.70      0.00
   17    1    9     11.53      0.00
   18    1    9      5.84      0.00
   19    1    9    -16.74      0.00
   20    1    9     -4.61      0.00
   21    1    9      8.95      0.00
   22    1    9     17.53      0.00
   23    1    9     -2.92      0.00
   24    1    9    -18.80      0.00
   25    1    9     -0.54      0.00
   26    1    9      9.85      0.00
   27    1    9      2.11      0.00
   28    1    9      3.53      0.00
   29    1    9      1.46      0.00
   30    1    9     -6.34      0.00
   31    1    9      3.17      0.00
   32    1    9      7.49      0.00
   33    1    9     -4.91      0.00
   34    1    9     -7.94      0.00
   35    1    9     -0.05      0.00
   36    1    9      3.81      0.00
   37    1    9     -0.36      0.00
   38    1    9      6.30      0.00
   39    1    9      3.82      0.00
   40    1    9     -4.05      0.00
   41    1    9      0.53      0.00
   42    1    9      1.46      0.00
   43    1    9     -3.52      0.00
   44    1    9     -2.69      0.00
   45    1    9      3.48      0.00
   46    1    9     -0.93      0.00
   47    1    9      2.51      0.00
   48    1    9      3.80      0.00
   49    1    9     -0.85      0.00
   50    1    9     -0.94      0.00
   51    1    9      3.58      0.00
   52    1    9     -8.56      0.00
   53    1    9     -1.26      0.00
   54    1    9      1.68      0.00
   55    1    9     -4.22      0.00
   56    1    9      5.52      0.00
   57    1    9      9.91      0.00
   58    1    9     -0.06      0.00
   59    1    9     10.56      0.00
   60    1    9    -10.20      0.00
   61    1    9    -18.28      0.00
   62    1    9      2.81      0.00
   63    1    9     -1.01      0.00
   64    1    9     10.75      0.00
   65    1    9     23.63      0.00
   66    1    9     -5.06      0.00
   67    1    9    -22.83      0.00
   68    1    9     -3.95      0.00
   69    1    9     12.01      0.00
    1    2    9     -1.56      0.00
    2    2    9      0.25      0.00
    3    2    9     16.55      0.00
    4    2    9      2.36      0.00
    5    2    9    -13.93      0.00
    6    2    9    -19.42      0.00
    7    2    9      1.54      0.00
    8    2    9     16.75      0.00
    9    2    9      8.02      0.00
   10    2    9     -5.89      0.00
   11    2    9      0.55      0.00
   12    2    9     -7.90      0.00
   13    2    9      7.26      0.00
   14    2    9      2.76      0.00
   15    2    9    -14.42      0.00
   16    2    9     10.97      0.00
   17    2    9     -1.46      0.00
   18    2    9    -20.76      0.00
   19    2    9     16.42      0.00
   20    2    9      0.25      0.00
   21    2    9     -7.57      0.00
   22    2    9     15.11      0.00
   23    2    9     -5.42      0.00
   24    2    9    -16.27      0.00
   25    2    9     -2.39      0.00
   26    2    9      9.68      0.00
   27    2    9      7.26      0.00
   28    2    9     -3.80      0.00
   29    2    9    -11.41      0.00
   30    2    9      0.00      0.00
   31    2    9      1.14      0.00
   32    2    9      2.13      0.00
   33    2    9     10.07      0.00
   34    2    9      5.60      0.00
   35    2    9    -14.03      0.00
   36    2    9    -11.80      0.00
   37    2    9      3.57      0.00
   38    2    9      3.98      0.00
   39    2    9      0.82      0.00
   40    2    9      5.65      0.00
   41    2    9     -1.34      0.00
   42    2    9     -6.70      0.00
   43    2    9     -0.94      0.00
   44    2    9      4.31      0.00
   45    2    9      0.61      0.00
   46    2    9     -4.61      0.00
   47    2    9     -0.96      0.00
   48    2    9      4.53      0.00
   49    2    9     -0.19      0.00
   50    2    9      2.86      0.00
   51    2    9      3.76      0.00
   52    2    9     -1.53      0.00
   53    2    9     -3.12      0.00
   54    2    9      2.39      0.00
   55    2    9      2.24      0.00
   56    2    9     -5.62      0.00
   57    2    9     -5.03      0.00
   58    2    9      9.09      0.00
   59    2    9     -5.87      0.00
   60    2    9     12.34      0.00
   61    2    9     13.33      0.00
   62    2    9    -21.68      0.00
   63    2    9     -4.19      0.00
   64    2    9     13.32      0.00
   65    2    9     -5.26      0.00
   66    2    9      1.98      0.00
   67    2    9      3.10      0.00
   68    2    9      3.19      0.00
   69    2    9     -7.68      0.00
    0    3    9    -28.42      0.00
    1    3    9     13.31      0.00
    2    3    9     19.37      0.00
    3    3    9     -2.91      0.00
    4    3    9     -0.87      0.00
    5    3    9     -1.41      0.00
    6    3    9    -20.02      0.00
    7    3    9      7.69      0.00
    8    3    9     14.77      0.00
    9    3    9    -10.58      0.00
   10    3    9     -2.73      0.00
   11    3    9     -4.49      0.00
   12    3    9     -4.54      0.00
   13    3    9     21.03      0.00
   14    3    9     -0.31      0.00
   15    3    9     -9.85      0.00
   16    3    9      9.82      0.00
   17    3    9     -9.95      0.00
   18    3    9    -12.02      0.00
   19    3    9     12.82      0.00
   20    3    9      7.91      0.00
   21    3    9     -8.58      0.00
   22    3    9     -7.39      0.00
   23    3    9      9.85      0.00
   24    3    9      5.92      0.00
   25    3    9     -3.59      0.00
   26    3    9     -0.65      0.00
   27    3    9     -5.90      0.00
   28    3    9     -3.68      0.00
   29    3    9      5.57      0.00
   30    3    9      0.16      0.00
   31    3    9     -2.97      0.00
   32    3    9     -7.48      0.00
   33    3    9     -1.42      0.00
   34    3    9      6.45      0.00
   35    3    9      2.40      0.00
   36    3    9      1.09      0.00
   37    3    9     -0.52      0.00
   38    3    9     -8.57      0.00
   39    3    9     -3.77      0.00
   40    3    9      4.48      0.00
   41    3    9      4.61      0.00
   42    3    9     -4.41      0.00
   43    3    9     -6.03      0.00
   44    3    9      7.35      0.00
   45    3    9      0.29      0.00
   46    3    9     -7.84      0.00
   47    3    9     -2.89      0.00
   48    3    9     -3.37      0.00
   49    3    9      5.04      0.00
   50    3    9      7.19      0.00
   51    3    9     -8.12      0.00
   52    3    9      1.56      0.00
   53    3    9     -2.11      0.00
   54    3    9     -1.66      0.00
   55    3    9     10.72      0.00
   56    3    9     -2.71      0.00
   57    3    9     -6.05      0.00
   58    3    9     -3.66      0.00
   59    3    9     -5.46      0.00
   60    3    9      4.69      0.00
   61    3    9     -6.79      0.00
   62    3    9      5.96      0.00
   63    3    9      6.67      0.00
   64    3    9    -13.18      0.00
   65    3    9      5.53      0.00
   66    3    9      2.46      0.00
   67    3    9     -5.48      0.00
   68    3    9     -3.42      0.00
    1    4    9      5.96      0.00
    2    4    9     12.45      0.00
    3    4    9    -11.44      0.00
    4    4    9    -15.79      0.00
    5    4    9      4.68      0.00
    6    4    9     16.75      0.00
    7    4    9      8.14      0.00
    8    4    9    -12.53      0.00
    9    4    9     -0.11      0.00
   10    4    9      4.77      0.00
   11    4    9    -12.47      0.00
   12    4    9     -3.09      0.00
   13    4    9     10.21      0.00
   14    4    9      7.70      0.00
   15    4    9      0.84      0.00
   16    4    9     -4.48      0.00
   17    4    9     -0.60      0.00
   18    4    9     -0.19      0.00
   19    4    9     -1.42      0.00
   20    4    9      3.42      0.00
   21    4    9     -2.98      0.00
   22    4    9    -10.18      0.00
   23    4    9      2.96      0.00
   24    4    9      5.89      0.00
   25    4    9      4.56      0.00
   26    4    9     -2.66      0.00
   27    4    9     -3.74      0.00
   28    4    9      4.55      0.00
   29    4    9     -1.09      0.00
   30    4    9     -1.39      0.00
   31    4    9      6.63      0.00
   32    4    9     -1.99      0.00
   33    4    9    -11.26      0.00
   34    4    9     -5.83      0.00
   35    4    9     11.14      0.00
   36    4    9      5.93      0.00
   37    4    9     -3.94      0.00
   38    4    9      3.57      0.00
   39    4    9     -7.43      0.00
   40    4    9     -9.73      0.00
   41    4    9     15.20      0.00
   42    4    9      7.58      0.00
   43    4    9     -6.68      0.00
   44    4    9      0.95      0.00
   45    4    9     -5.89      0.00
   46    4    9      3.54      0.00
   47    4    9      5.99      0.00
   48    4    9     -5.49      0.00
   49    4    9     -2.30      0.00
   50    4    9     -5.59      0.00
   51    4    9      1.37      0.00
   52    4    9      5.94      0.00
   53    4    9     -3.56      0.00
   54    4    9      1.28      0.00
   55    4    9     -0.89      0.00
   56    4    9      1.51      0.00
   57    4    9      0.82      0.00
   58    4    9     -6.58      0.00
   59    4    9     16.24      0.00
   60    4    9      1.87      0.00
   61    4    9    -24.45      0.00
   62    4    9     -1.83      0.00
   63    4    9      3.72      0.00
   64    4    9      2.64      0.00
   65    4    9     15.99      0.00
   66    4    9      4.73      0.00
   67    4    9    -18.26      0.00
    0    5    9      1.32      0.00
    1    5    9     -2.60      0.00
    2    5    9     -4.23      0.00
    3    5    9      8.17      0.00
    4    5    9      6.42      0.00
    5    5    9    -13.21      0.00
    6    5    9     -1.77      0.00
    7    5    9      1.26      0.00
    8    5    9     -8.78      0.00
    9    5    9      6.69      0.00
   10    5    9      5.39      0.00
   11    5    9     -1.48      0.00
   12    5    9     -0.52      0.00
   13    5    9     -9.09      0.00
   14    5    9     -3.05      0.00
   15    5    9      0.14      0.00
   16    5    9     -2.26      0.00
   17    5    9      8.99      0.00
   18    5    9      7.44      0.00
   19    5    9     -9.94      0.00
   20    5    9     -5.56      0.00
   21    5    9      1.34      0.00
   22    5    9      3.61      0.00
   23    5    9      0.28      0.00
   24    5    9     -7.57      0.00
   25    5    9     -1.36      0.00
   26    5    9      4.89      0.00
   27    5    9      3.77      0.00
   28    5    9     -0.08      0.00
   29    5    9     -2.04      0.00
   30    5    9      0.59      0.00
   31    5    9     -0.55      0.00
   32    5    9      3.54      0.00
   33    5    9      1.13      0.00
   34    5    9     -0.34      0.00
   35    5    9      2.92      0.00
   36    5    9      0.80      0.00
   37    5    9     -3.12      0.00
   38    5    9      0.34      0.00
   39    5    9      5.17      0.00
   40    5    9      0.24      0.00
   41    5    9     -5.48      0.00
   42    5    9     -0.01      0.00
   43    5    9      4.92      0.00
   44    5    9     -6.92      0.00
   45    5    9      2.90      0.00
   46    5    9     14.87      0.00
   47    5    9     -0.68      0.00
   48    5    9     -1.04      0.00
   49    5    9     -4.19      0.00
   50    5    9     -5.04      0.00
   51    5    9      4.81      0.00
   52    5    9      0.50      0.00
   53    5    9      8.98      0.00
   54    5    9     -0.67      0.00
   55    5    9    -14.21      0.00
   56    5    9     -1.71      0.00
   57    5    9      0.99      0.00
   58    5    9     10.73      0.00
   59    5    9     14.03      0.00
   60    5    9     -1.03      0.00
   61    5    9     -1.67      0.00
   62    5    9     -6.78      0.00
   63    5    9    -11.82      0.00
   64    5    9      5.66      0.00
   65    5    9     10.20      0.00
    1    6    9     -6.03      0.00
    2    6    9     -6.96      0.00
    3    6    9      9.43      0.00
    4    6    9     11.08      0.00
    5    6    9     -5.33      0.00
    6    6    9     -2.79      0.00
    7    6    9     -7.73      0.00
    8    6    9      3.69      0.00
    9    6    9      0.47      0.00
   10    6    9    -12.32      0.00
   11    6    9     11.71      0.00
   12    6    9      4.82      0.00
   13    6    9    -11.03      0.00
   14    6    9      3.00      0.00
   15    6    9     -0.10      0.00
   16    6    9     -0.81      0.00
   17    6    9      4.94      0.00
   18    6    9      1.09      0.00
   19    6    9     -5.70      0.00
   20    6    9     -4.81      0.00
   21    6    9      6.96      0.00
   22    6    9      7.29      0.00
   23    6    9     -7.15      0.00
   24    6    9     -4.42      0.00
   25    6    9     -0.92      0.00
   26    6    9      0.96      0.00
   27    6    9      7.52      0.00
   28    6    9      0.43      0.00
   29    6    9     -1.66      0.00
   30    6    9     -2.97      0.00
   31    6    9     -5.95      0.00
   32    6    9      2.26      0.00
   33    6    9      7.52      0.00
   34    6    9     -2.42      0.00
   35    6    9     -7.13      0.00
   36    6    9     -2.07      0.00
   37    6    9      0.35      0.00
   38    6    9      3.74      0.00
   39    6    9     10.26      0.00
   40    6    9      2.57      0.00
   41    6    9     -6.48      0.00
   42    6    9     -7.62      0.00
   43    6    9     -5.97      0.00
   44    6    9     -1.86      0.00
   45    6    9      9.66      0.00
   46    6    9     -1.58      0.00
   47    6    9     -0.58      0.00
   48    6    9     -0.04      0.00
   49    6    9     -7.04      0.00
   50    6    9      5.39      0.00
   51    6    9      6.15      0.00
   52    6    9     -0.13      0.00
   53    6    9      4.40      0.00
   54    6    9     -4.48      0.00
   55    6    9     -2.51      0.00
   56    6    9     -1.35      0.00
   57    6    9     -2.95      0.00
   58    6    9     -9.99      0.00
   59    6    9     -4.11      0.00
   60    6    9     14.76      0.00
   61    6    9     10.03      0.00
   62    6    9     -0.04      0.00
   63    6    9      2.18      0.00
    0    7    9     -4.51      0.00
    1    7    9      1.56      0.00
    2    7    9      2.80      0.00
    3    7    9     -3.77      0.00
    4    7    9     -8.35      0.00
    5    7    9     11.29      0.00
    6    7    9      6.66      0.00
    7    7    9     -6.06      0.00
    8    7    9      8.59      0.00
    9    7    9     -6.62      0.00
   10    7    9     -6.28      0.00
   11    7    9      4.26      0.00
   12    7    9     -1.11      0.00
   13    7    9      7.05      0.00
   14    7    9     -7.36      0.00
   15    7    9     -1.38      0.00
   16    7    9     11.65      0.00
   17    7    9    -10.21      0.00
   18    7    9     -4.88      0.00
   19    7    9     10.07      0.00
   20    7    9      5.03      0.00
   21    7    9     -0.68      0.00
   22    7    9     -3.14      0.00
   23    7    9     -4.78      0.00
   24    7    9     -3.24      0.00
   25    7    9      4.94      0.00
   26    7    9      8.74      0.00
   27    7    9     -6.34      0.00
   28    7    9     -8.66      0.00
   29    7    9      4.33      0.00
   30    7    9      8.10      0.00
   31    7    9      0.10      0.00
   32    7    9     -0.93      0.00
   33    7    9      1.32      0.00
   34    7    9     -5.15      0.00
   35    7    9     -4.78      0.00
   36    7    9      6.75      0.00
   37    7    9     -0.94      0.00
   38    7    9     -3.82      0.00
   39    7    9      3.40      0.00
   40    7    9     -4.17      0.00
   41    7    9      3.91      0.00
   42    7    9     11.61      0.00
   43    7    9     -7.93      0.00
   44    7    9     -0.91      0.00
   45    7    9      3.22      0.00
   46    7    9     -8.78      0.00
   47    7    9     -0.44      0.00
   48    7    9      5.70      0.00
   49    7    9      0.12      0.00
   50    7    9     -5.31      0.00
   51    7    9     -5.63      0.00
   52    7    9      1.28      0.00
   53    7    9      4.47      0.00
   54    7    9      9.38      0.00
   55    7    9      7.30      0.00
   56    7    9     -4.66      0.00
   57    7    9    -11.65      0.00
   58    7    9     -6.57      0.00
   59    7    9      2.76      0.00
   60    7    9     -2.41      0.00
   61    7    9     -1.16      0.00
    1    8    9     -1.08      0.00
    2    8    9      4.79      0.00
    3    8    9     -1.23      0.00
    4    8    9     -4.66      0.00
    5    8    9      2.55      0.00
    6    8    9     -0.32      0.00
    7    8    9     -0.47      0.00
    8    8    9     -3.68      0.00
    9    8    9      2.92      0.00
   10    8    9     12.68      0.00
   11    8    9    -11.45      0.00
   12    8    9     -2.46      0.00
   13    8    9      5.45      0.00
   14    8    9     -2.17      0.00
   15    8    9      5.71      0.00
   16    8    9     -2.74      0.00
   17    8    9     -4.82      0.00
   18    8    9      3.10      0.00
   19    8    9      0.42      0.00
   20    8    9      9.07      0.00
   21    8    9     -2.18      0.00
   22    8    9    -10.82      0.00
   23    8    9     -2.30      0.00
   24    8    9     11.27      0.00
   25    8    9     10.04      0.00
   26    8    9      0.13      0.00
   27    8    9     -5.80      0.00
   28    8    9     -6.72      0.00
   29    8    9     -2.27      0.00
   30    8    9      5.69      0.00
   31    8    9      8.25      0.00
   32    8    9      2.35      0.00
   33    8    9     -9.98      0.00
   34    8    9      3.11      0.00
   35    8    9      9.60      0.00
   36    8    9     -4.69      0.00
   37    8    9     -7.46      0.00
   38    8    9     10.24      0.00
   39    8    9      0.88      0.00
   40    8    9     -4.10      0.00
   41    8    9      5.31      0.00
   42    8    9     -0.19      0.00
   43    8    9      2.86      0.00
   44    8    9     -0.93      0.00
   45    8    9    -11.44      0.00
   46    8    9      5.32      0.00
   47    8    9      2.80      0.00
   48    8    9      3.51      0.00
   49    8    9      8.73      0.00
   50    8    9      0.55      0.00
   51    8    9    -15.43      0.00
   52    8    9     -7.95      0.00
   53    8    9      8.69      0.00
   54    8    9      4.22      0.00
   55    8    9      4.84      0.00
   56    8    9     11.97      0.00
   57    8    9     -9.88      0.00
   58    8    9     -7.79      0.00
    0    9    9      0.96      0.00
    1    9    9     -0.32      0.00
    2    9    9     -2.90      0.00
    3    9    9      6.19      0.00
    4    9    9      8.13      0.00
    5    9    9     -9.13      0.00
    6    9    9     -0.10      0.00
    7    9    9      6.62      0.00
    8    9    9     -2.87      0.00
    9    9    9     -3.03      0.00
   10    9    9     -0.09      0.00
   11    9    9      4.19      0.00
   12    9    9      4.01      0.00
   13    9    9     -4.85      0.00
   14    9    9      4.00      0.00
   15    9    9     -5.62      0.00
   16    9    9     -6.92      0.00
   17    9    9     15.22      0.00
   18    9    9      4.17      0.00
   19    9    9     -7.16      0.00
   20    9    9     -3.11      0.00
   21    9    9      3.35      0.00
   22    9    9     -5.66      0.00
   23    9    9     -7.92      0.00
   24    9    9     10.97      0.00
   25    9    9      1.46      0.00
   26    9    9     -6.10      0.00
   27    9    9      7.88      0.00
   28    9    9      0.35      0.00
   29    9    9     -5.19      0.00
   30    9    9     -3.17      0.00
   31    9    9      2.01      0.00
   32    9    9     -2.95      0.00
   33    9    9      1.69      0.00
   34    9    9     -0.78      0.00
   35    9    9     -3.03      0.00
   36    9    9     -2.07      0.00
   37    9    9     -5.00      0.00
   38    9    9     -1.93      0.00
   39    9    9      1.32      0.00
   40    9    9      1.63      0.00
   41    9    9      0.87      0.00
   42    9    9      7.12      0.00
   43    9    9      6.32      0.00
   44    9    9    -12.83      0.00
   45    9    9     -6.52      0.00
   46    9    9     -3.15      0.00
   47    9    9      3.71      0.00
   48    9    9      2.86      0.00
   49    9    9    -10.50      0.00
   50    9    9      0.26      0.00
   51    9    9      6.52      0.00
   52    9    9      3.43      0.00
   53    9    9      0.59      0.00
   54    9    9     -9.33      0.00
    1   10    9     -6.62      0.00
    2   10    9    -12.23      0.00
    3   10    9     13.45      0.00
    4   10    9      6.77      0.00
    5   10    9    -10.18      0.00
    6   10    9     -3.08      0.00
    7   10    9     11.07      0.00
    8   10    9      7.90      0.00
    9   10    9     -6.18      0.00
   10   10    9     -9.64      0.00
   11   10    9     -1.57      0.00
   12   10    9     -3.65      0.00
   13   10    9     10.26      0.00
   14   10    9      6.33      0.00
   15   10    9     -5.74      0.00
   16   10    9     -1.19      0.00
   17   10    9     -6.86      0.00
   18   10    9     -1.87      0.00
   19   10    9     15.73      0.00
   20   10    9     -4.97      0.00
   21   10    9     -4.34      0.00
   22   10    9      1.36      0.00
   23   10    9      2.08      0.00
   24   10    9     -9.12      0.00
   25   10    9    -10.49      0.00
   26   10    9      0.17      0.00
   27   10    9      4.67      0.00
   28   10    9     11.51      0.00
   29   10    9     10.20      0.00
   30   10    9    -11.64      0.00
   31   10    9    -19.65      0.00
   32   10    9     -2.84      0.00
   33   10    9     21.51      0.00
   34   10    9      4.30      0.00
   35   10    9     -9.40      0.00
   36   10    9     -3.34      0.00
   37   10    9     -3.99      0.00
   38   10    9    -13.11      0.00
   39   10    9      1.24      0.00
   40   10    9      7.03      0.00
   41   10    9     -5.08      0.00
   42   10    9      4.45      0.00
   43   10    9      5.49      0.00
   44   10    9     -2.83      0.00
   45   10    9      1.65      0.00
   46   10    9     -1.10      0.00
   47   10    9      2.44      0.00
   48   10    9     -0.70      0.00
   49   10    9     -8.30      0.00
    0   11    9     -3.40      0.00
    1   11    9     -0.28      0.00
    2   11    9      5.96      0.00
    3   11    9    -12.36      0.00
    4   11    9     -4.59      0.00
    5   11    9     14.49      0.00
    6   11    9    -13.09      0.00
    7   11    9     -3.47      0.00
    8   11    9     14.01      0.00
    9   11    9     -1.43      0.00
   10   11    9      0.84      0.00
   11   11    9      6.13      0.00
   12   11    9     -9.53      0.00
   13   11    9     -3.28      0.00
   14   11    9     -2.41      0.00
   15   11    9     -1.87      0.00
   16   11    9      6.73      0.00
   17   11    9      4.80      0.00
   18   11    9      0.03      0.00
   19   11    9      0.26      0.00
   20   11    9      0.79      0.00
   21   11    9     -8.06      0.00
   22   11    9      0.73      0.00
   23   11    9     17.28      0.00
   24   11    9     -1.54      0.00
   25   11    9     -5.59      0.00
   26   11    9     -2.73      0.00
   27   11    9    -16.21      0.00
   28   11    9      1.95      0.00
   29   11    9     14.59      0.00
   30   11    9      7.87      0.00
   31   11    9      1.40      0.00
   32   11    9     -3.11      0.00
   33   11    9     -8.96      0.00
   34   11    9      9.20      0.00
   35   11    9      9.19      0.00
   36   11    9     -6.15      0.00
   37   11    9      2.83      0.00
   38   11    9      5.06      0.00
   39   11    9    -11.07      0.00
   40   11    9     -0.34      0.00
   41   11    9      9.26      0.00
   42   11    9     -4.80      0.00
   43   11    9     -8.11      0.00
   44   11    9      6.93      0.00
    1   12    9     10.15      0.00
    2   12    9     -4.06      0.00
    3   12    9    -14.01      0.00
    4   12    9     10.62      0.00
    5   12    9      5.57      0.00
    6   12    9     -6.00      0.00
    7   12    9     -4.05      0.00
    8   12    9     -2.62      0.00
    9   12    9      0.45      0.00
   10   12    9      2.54      0.00
   11   12    9      7.98      0.00
   12   12    9      0.99      0.00
   13   12    9    -11.05      0.00
   14   12    9      8.49      0.00
   15   12    9      3.06      0.00
   16   12    9    -17.20      0.00
   17   12    9      0.97      0.00
   18   12    9     13.21      0.00
   19   12    9     -6.31      0.00
   20   12    9     -1.00      0.00
   21   12    9      4.82      0.00
   22   12    9      2.91      0.00
   23   12    9    -14.53      0.00
   24   12    9     -1.09      0.00
   25   12    9     22.17      0.00
   26   12    9      3.71      0.00
   27   12    9     -8.98      0.00
   28   12    9      3.10      0.00
   29   12    9    -18.51      0.00
   30   12    9    -15.92      0.00
   31   12    9     20.95      0.00
   32   12    9     22.20      0.00
   33   12    9     -4.90      0.00
   34   12    9     -4.87      0.00
   35   12    9     -9.03      0.00
   36   12    9     -6.37      0.00
   37   12    9     16.84      0.00
   38   12    9     13.92      0.00
    0   13    9     -4.52      0.00
    1   13    9     10.32      0.00
    2   13    9     -2.12      0.00
    3   13    9      8.49      0.00
    4   13    9      6.95      0.00
    5   13    9    -13.15      0.00
    6   13    9      1.63      0.00
    7   13    9      2.50      0.00
    8   13    9     -8.55      0.00
    9   13    9     -4.21      0.00
   10   13    9      6.98      0.00
   11   13    9      6.20      0.00
   12   13    9     -0.43      0.00
   13   13    9     -9.65      0.00
   14   13    9     -4.44      0.00
   15   13    9      0.97      0.00
   16   13    9      0.86      0.00
   17   13    9      4.66      0.00
   18   13    9      6.48      0.00
   19   13    9     -6.26      0.00
   20   13    9     -7.55      0.00
   21   13    9      0.31      0.00
   22   13    9     -0.87      0.00
   23   13    9      0.20      0.00
   24   13    9      0.14      0.00
   25   13    9     -3.54      0.00
   26   13    9      7.34      0.00
   27   13    9      2.79      0.00
   28   13    9     -9.55      0.00
   29   13    9      4.13      0.00
    1   14    9      0.60      0.00
    4   14    9     -7.74      0.00
    5   14    9      7.50      0.00
    6   14    9     11.29      0.00
    7   14    9     -2.24      0.00
    8   14    9      2.37      0.00
    9   14    9     -1.28      0.00
   10   14    9    -18.71      0.00
   11   14    9      0.28      0.00
   12   14    9     22.40      0.00
   13   14    9      2.82      0.00
   14   14    9    -13.22      0.00
   15   14    9     -1.56      0.00
    0    0   10     33.79      0.00
    1    0   10    -37.03      0.00
    2    0   10    -20.37      0.00
    3    0   10     30.49      0.00
    4    0   10      3.85      0.00
    5    0   10      6.56      0.00
    6    0   10      6.58      0.00
    7    0   10    -24.25      0.00
    8    0   10     -3.16      0.00
    9    0   10     22.55      0.00
   10    0   10      8.89      0.00
   11    0   10     -9.89      0.00
   12    0   10     -6.82      0.00
   13    0   10     -4.91      0.00
   14    0   10      9.88      0.00
   15    0   10     27.40      0.00
   16    0   10     -1.37      0.00
   17    0   10    -11.90      0.00
   18    0   10     -5.92      0.00
   19    0   10     -6.77      0.00
   20    0   10     -4.48      0.00
   21    0   10     21.26      0.00
   22    0   10      7.70      0.00
   23    0   10     -7.65      0.00
   24    0   10      8.85      0.00
   25    0   10     -8.68      0.00
   26    0   10     -2.67      0.00
   27    0   10     11.00      0.00
   28    0   10      4.73      0.00
   29    0   10     -1.83      0.00
   30    0   10     -2.81      0.00
   31    0   10      7.27      0.00
   32    0   10     -4.24      0.00
   33    0   10    -13.27      0.00
   34    0   10      0.19      0.00
   35    0   10      1.71      0.00
   36    0   10     10.63      0.00
   37    0   10     19.88      0.00
   38    0   10     -1.17      0.00
   39    0   10    -15.15      0.00
   40    0   10     -1.24      0.00
   41    0   10     -7.12      0.00
   42    0   10      1.66      0.00
   43    0   10      9.91      0.00
   44    0   10     -4.87      0.00
   45    0   10      3.83      0.00
   46    0   10      2.15      0.00
   47    0   10     -2.94      0.00
   48    0   10     -7.39      0.00
   49    0   10      1.41      0.00
   50    0   10      6.31      0.00
   51    0   10     -4.79      0.00
   52    0   10      2.55      0.00
   53    0   10      3.36      0.00
   54    0   10      1.26      0.00
   55    0   10      4.12      0.00
   56    0   10    -18.01      0.00
   57    0   10      5.25      0.00
   58    0   10      9.25      0.00
   59    0   10    -15.27      0.00
   60    0   10      4.02      0.00
   61    0   10      6.91      0.00
   62    0   10     -5.72      0.00
   63    0   10      2.36      0.00
   64    0   10     12.44      0.00
   65    0   10     -1.16      0.00
   66    0   10    -10.46      0.00
   67    0   10     -0.36      0.00
    1    1   10     -9.92      0.00
    2    1   10      5.27      0.00
    3    1   10     21.65      0.00
    4    1   10      4.18      0.00
    5    1   10     -6.83      0.00
    6    1   10    -22.92      0.00
    7    1   10     11.74      0.00
    8    1   10     15.92      0.00
    9    1   10      0.78      0.00
   10    1   10      0.34      0.00
   11    1   10     -1.44      0.00
   12    1   10    -14.84      0.00
   13    1   10     -3.22      0.00
   14    1   10      4.39      0.00
   15    1   10     -0.29      0.00
   16    1   10     11.20      0.00
   17    1   10      5.82      0.00
   18    1   10     -6.97      0.00
   19    1   10     -2.71      0.00
   20    1   10     -9.62      0.00
   21    1   10     -0.45      0.00
   22    1   10      6.61      0.00
   23    1   10     -2.37      0.00
   24    1   10    -11.35      0.00
   25    1   10      3.29      0.00
   26    1   10     10.14      0.00
   27    1   10     -5.81      0.00
   28    1   10     -0.92      0.00
   29    1   10     -9.00      0.00
   30    1   10      3.90      0.00
   31    1   10     12.17      0.00
   32    1   10     -0.81      0.00
   33    1   10      2.07      0.00
   34    1   10     -7.61      0.00
   35    1   10    -21.55      0.00
   36    1   10      0.49      0.00
   37    1   10     13.51      0.00
   38    1   10      1.29      0.00
   39    1   10      8.19      0.00
   40    1   10      6.46      0.00
   41    1   10    -14.99      0.00
   42    1   10     -7.49      0.00
   43    1   10      3.04      0.00
   44    1   10      5.76      0.00
   45    1   10     -3.91      0.00
   46    1   10      5.11      0.00
   47    1   10      5.99      0.00
   48    1   10     -9.45      0.00
   49    1   10      2.42      0.00
   50    1   10      0.71      0.00
   51    1   10     -3.24      0.00
   52    1   10      8.98      0.00
   53    1   10    -11.64      0.00
   54    1   10      6.47      0.00
   55    1   10      7.00      0.00
   56    1   10     -5.46      0.00
   57    1   10      9.30      0.00
   58    1   10      5.60      0.00
   59    1   10    -12.97      0.00
   60    1   10     -1.41      0.00
   61    1   10      1.21      0.00
   62    1   10      1.12      0.00
   63    1   10      4.15      0.00
   64    1   10      3.35      0.00
   65    1   10     -6.99      0.00
   66    1   10      9.69      0.00
   67    1   10      4.05      0.00
   68    1   10     -6.15      0.00
    0    2   10    -22.94      0.00
    1    2   10     19.07      0.00
    2    2   10     12.48      0.00
    3    2   10    -11.08      0.00
    4    2   10      4.60      0.00
    5    2   10    -13.39      0.00
    6    2   10    -15.55      0.00
    7    2   10     15.79      0.00
    8    2   10      5.59      0.00
    9    2   10     -1.54      0.00
   10    2   10     -3.07      0.00
   11    2   10     -3.86      0.00
   12    2   10     11.39      0.00
   13    2   10      0.69      0.00
   14    2   10    -18.30      0.00
   15    2   10     -1.51      0.00
   16    2   10      2.56      0.00
   17    2   10     -9.03      0.00
   18    2   10     12.75      0.00
   19    2   10      2.88      0.00
   20    2   10    -10.39      0.00
   21    2   10      6.08      0.00
   22    2   10      3.81      0.00
   23    2   10     -5.93      0.00
   24    2   10     -0.30      0.00
   25    2   10      1.87      0.00
   26    2   10     -7.83      0.00
   27    2   10      3.23      0.00
   28    2   10     -1.90      0.00
   29    2   10     -8.83      0.00
   30    2   10      4.38      0.00
   31    2   10     -3.95      0.00
   32    2   10     -5.14      0.00
   33    2   10     13.60      0.00
   34    2   10      7.14      0.00
   35    2   10     -6.34      0.00
   36    2   10     -5.94      0.00
   37    2   10     -4.55      0.00
   38    2   10     -4.83      0.00
   39    2   10      2.39      0.00
   40    2   10      4.00      0.00
   41    2   10      3.47      0.00
   42    2   10     -3.27      0.00
   43    2   10      2.17      0.00
   44    2   10      0.18      0.00
   45    2   10    -17.62      0.00
   46    2   10      3.01      0.00
   47    2   10      5.47      0.00
   48    2   10      3.72      0.00
   49    2   10     10.07      0.00
   50    2   10     -6.27      0.00
   51    2   10     -6.18      0.00
   52    2   10      0.19      0.00
   53    2   10      2.26      0.00
   54    2   10      2.66      0.00
   55    2   10     -9.56      0.00
   56    2   10      5.06      0.00
   57    2   10     -0.58      0.00
   58    2   10     -7.09      0.00
   59    2   10     15.54      0.00
   60    2   10     -0.21      0.00
   61    2   10    -17.37      0.00
   62    2   10     12.65      0.00
   63    2   10     -0.32      0.00
   64    2   10    -22.12      0.00
   65    2   10     17.47      0.00
   66    2   10      9.91      0.00
   67    2   10     -8.69      0.00
   68    2   10      2.46      0.00
    1    3   10      5.35      0.00
    2    3   10     -9.40      0.00
    3    3   10      0.37      0.00
    4    3   10      5.98      0.00
    5    3   10    -10.10      0.00
    6    3   10     17.26      0.00
    7    3   10      2.97      0.00
    8    3   10    -22.08      0.00
    9    3   10     -3.92      0.00
   10    3   10      1.58      0.00
   11    3   10      5.31      0.00
   12    3   10     13.40      0.00
   13    3   10     10.63      0.00
   14    3   10      0.22      0.00
   15    3   10    -12.14      0.00
   16    3   10     -3.78      0.00
   17    3   10      4.20      0.00
   18    3   10     -5.11      0.00
   19    3   10      0.94      0.00
   20    3   10      6.03      0.00
   21    3   10    -11.81      0.00
   22    3   10     -2.45      0.00
   23    3   10     14.54      0.00
   24    3   10      4.72      0.00
   25    3   10     -3.71      0.00
   26    3   10     -4.92      0.00
   27    3   10      5.47      0.00
   28    3   10      4.82      0.00
   29    3   10      0.66      0.00
   30    3   10     -2.22      0.00
   31    3   10     -9.22      0.00
   32    3   10     -9.20      0.00
   33    3   10     -3.94      0.00
   34    3   10      5.78      0.00
   35    3   10     14.34      0.00
   36    3   10      2.36      0.00
   37    3   10     -4.97      0.00
   38    3   10     -0.65      0.00
   39    3   10     -8.59      0.00
   40    3   10     -1.30      0.00
   41    3   10     14.83      0.00
   42    3   10     -1.73      0.00
   43    3   10     -7.39      0.00
   44    3   10      0.66      0.00
   45    3   10      2.18      0.00
   46    3   10     -0.35      0.00
   47    3   10     -2.72      0.00
   48    3   10     -0.65      0.00
   49    3   10    -10.05      0.00
   50    3   10     -1.31      0.00
   51    3   10     10.81      0.00
   52    3   10      0.18      0.00
   53    3   10     10.35      0.00
   54    3   10     -7.17      0.00
   55    3   10    -12.25      0.00
   56    3   10     10.35      0.00
   57    3   10     -6.59      0.00
   58    3   10     -9.34      0.00
   59    3   10     15.16      0.00
   60    3   10     -3.87      0.00
   61    3   10     -1.35      0.00
   62    3   10      6.37      0.00
   63    3   10    -19.85      0.00
   64    3   10     -5.09      0.00
   65    3   10     15.03      0.00
   66    3   10      0.22      0.00
   67    3   10      8.00      0.00
    0    4   10      8.11      0.00
    1    4   10      4.18      0.00
    2    4   10     -5.19      0.00
    3    4   10      7.58      0.00
    4    4   10     -4.69      0.00
    5    4   10      5.26      0.00
    6    4   10      7.34      0.00
    7    4   10    -13.97      0.00
    8    4   10      6.08      0.00
    9    4   10     -4.47      0.00
   10    4   10     -4.84      0.00
   11    4   10      8.20      0.00
   12    4   10    -16.68      0.00
   13    4   10     -7.51      0.00
   14    4   10     15.07      0.00
   15    4   10      5.20      0.00
   16    4   10      3.44      0.00
   17    4   10      8.53      0.00
   18    4   10     -5.83      0.00
   19    4   10    -17.07      0.00
   20    4   10     -1.52      0.00
   21    4   10      8.62      0.00
   22    4   10      1.78      0.00
   23    4   10     -5.01      0.00
   24    4   10     -1.40      0.00
   25    4   10     -8.50      0.00
   26    4   10      0.29      0.00
   27    4   10     11.42      0.00
   28    4   10      0.91      0.00
   29    4   10      4.72      0.00
   30    4   10      3.68      0.00
   31    4   10      2.48      0.00
   32    4   10      2.42      0.00
   33    4   10    -16.41      0.00
   34    4   10     -5.46      0.00
   35    4   10      7.51      0.00
   36    4   10      4.44      0.00
   37    4   10      5.82      0.00
   38    4   10      0.18      0.00
   39    4   10     -8.03      0.00
   40    4   10      1.06      0.00
   41    4   10      9.30      0.00
   42    4   10      0.94      0.00
   43    4   10     -1.87      0.00
   44    4   10     -5.12      0.00
   45    4   10      5.99      0.00
   46    4   10      8.11      0.00
   47    4   10     -5.33      0.00
   48    4   10     -1.54      0.00
   49    4   10      5.48      0.00
   50    4   10      0.24      0.00
   51    4   10     -8.66      0.00
   52    4   10      0.18      0.00
   53    4   10      4.82      0.00
   54    4   10     -7.05      0.00
   55    4   10     11.58      0.00
   56    4   10      7.84      0.00
   57    4   10     -9.66      0.00
   58    4   10     -2.89      0.00
   59    4   10      0.97      0.00
   60    4   10      7.63      0.00
   61    4   10      5.78      0.00
   62    4   10     -5.32      0.00
   63    4   10     -0.77      0.00
   64    4   10     -0.61      0.00
   65    4   10     -4.42      0.00
   66    4   10      1.06      0.00
    1    5   10    -16.76      0.00
    2    5   10      6.05      0.00
    3    5   10     16.00      0.00
    4    5   10     -6.92      0.00
    5    5   10      1.32      0.00
    6    5   10     -4.81      0.00
    7    5   10     -6.60      0.00
    8    5   10      9.39      0.00
    9    5   10      2.88      0.00
   10    5   10     -1.22      0.00
   11    5   10     -7.64      0.00
   12    5   10      0.21      0.00
   13    5   10     -2.69      0.00
   14    5   10    -11.17      0.00
   15    5   10      4.85      0.00
   16    5   10      8.45      0.00
   17    5   10     -2.81      0.00
   18    5   10     -2.07      0.00
   19    5   10      1.44      0.00
   20    5   10      0.51      0.00
   21    5   10      4.77      0.00
   22    5   10      1.25      0.00
   23    5   10     -6.11      0.00
   24    5   10     -0.16      0.00
   25    5   10      0.61      0.00
   26    5   10     -0.37      0.00
   27    5   10     -3.08      0.00
   28    5   10      3.36      0.00
   29    5   10     -3.15      0.00
   30    5   10     -6.28      0.00
   31    5   10     12.74      0.00
   32    5   10      5.80      0.00
   33    5   10      2.22      0.00
   34    5   10     -5.68      0.00
   35    5   10     -9.25      0.00
   36    5   10      2.32      0.00
   37    5   10      0.30      0.00
   38    5   10     12.03      0.00
   39    5   10      1.78      0.00
   40    5   10    -15.68      0.00
   41    5   10     -0.84      0.00
   42    5   10     10.21      0.00
   43    5   10      4.41      0.00
   44    5   10     -7.45      0.00
   45    5   10     -1.76      0.00
   46    5   10     -3.59      0.00
   47    5   10      0.33      0.00
   48    5   10      7.59      0.00
   49    5   10      4.65      0.00
   50    5   10     -1.83      0.00
   51    5   10     -2.33      0.00
   52    5   10      3.52      0.00
   53    5   10     -9.18      0.00
   54    5   10      0.15      0.00
   55    5   10     14.33      0.00
   56    5   10     -2.48      0.00
   57    5   10     -5.33      0.00
   58    5   10    -10.96      0.00
   59    5   10     -0.11      0.00
   60    5   10      9.25      0.00
   61    5   10      1.89      0.00
   62    5   10     11.18      0.00
   63    5   10     -1.74      0.00
   64    5   10    -15.51      0.00
    0    6   10     -3.23      0.00
    1    6   10     -1.37      0.00
    2    6   10      0.23      0.00
    3    6   10    -10.16      0.00
    4    6   10      6.87      0.00
    5    6   10      4.30      0.00
    6    6   10     -8.80      0.00
    7    6   10      9.78      0.00
    8    6   10      1.20      0.00
    9    6   10     -7.82      0.00
   10    6   10      6.75      0.00
   11    6   10      4.23      0.00
   12    6   10     -3.43      0.00
   13    6   10     -1.38      0.00
   14    6   10      2.96      0.00
   15    6   10      1.61      0.00
   16    6   10     -5.45      0.00
   17    6   10     -1.46      0.00
   18    6   10      6.90      0.00
   19    6   10      2.65      0.00
   20    6   10     -3.38      0.00
   21    6   10     -1.06      0.00
   22    6   10      0.94      0.00
   23    6   10     -0.72      0.00
   24    6   10     -0.06      0.00
   25    6   10      5.31      0.00
   26    6   10      0.20      0.00
   27    6   10     -1.50      0.00
   28    6   10      1.61      0.00
   29    6   10     -7.21      0.00
   30    6   10      1.99      0.00
   31    6   10     -0.60      0.00
   32    6   10      2.31      0.00
   33    6   10      5.60      0.00
   34    6   10    -10.00      0.00
   35    6   10      0.13      0.00
   36    6   10      1.50      0.00
   37    6   10     -1.48      0.00
   38    6   10     -0.94      0.00
   39    6   10     -4.01      0.00
   40    6   10      9.05      0.00
   41    6   10     -0.33      0.00
   42    6   10     -0.23      0.00
   43    6   10     -0.95      0.00
   44    6   10     -7.43      0.00
   45    6   10     -2.06      0.00
   46    6   10      5.48      0.00
   47    6   10      4.06      0.00
   48    6   10     -6.63      0.00
   49    6   10     -6.41      0.00
   50    6   10      1.35      0.00
   51    6   10      1.12      0.00
   52    6   10     -3.92      0.00
   53    6   10      1.73      0.00
   54    6   10     12.07      0.00
   55    6   10     -3.03      0.00
   56    6   10     -2.52      0.00
   57    6   10     -5.26      0.00
   58    6   10     -3.86      0.00
   59    6   10      5.41      0.00
   60    6   10     -8.17      0.00
   61    6   10     -0.52      0.00
   62    6   10      3.90      0.00
    1    7   10      7.62      0.00
    2    7   10     -3.85      0.00
    3    7   10    -10.99      0.00
    4    7   10      2.15      0.00
    5    7   10      0.70      0.00
    6    7   10     -0.48      0.00
    7    7   10      5.71      0.00
    8    7   10     -0.82      0.00
    9    7   10     -2.54      0.00
   10    7   10      0.27      0.00
   11    7   10      0.47      0.00
   12    7   10      4.60      0.00
   13    7   10     -0.23      0.00
   14    7   10      2.66      0.00
   15    7   10     -0.11      0.00
   16    7   10     -6.79      0.00
   17    7   10     -3.92      0.00
   18    7   10      4.79      0.00
   19    7   10     11.67      0.00
   20    7   10     -2.96      0.00
   21    7   10     -9.58      0.00
   22    7   10      4.59      0.00
   23    7   10     -0.34      0.00
   24    7   10      0.40      0.00
   25    7   10      5.93      0.00
   26    7   10     -1.45      0.00
   27    7   10     -5.03      0.00
   28    7   10      0.83      0.00
   29    7   10      6.88      0.00
   30    7   10     -4.97      0.00
   31    7   10     -3.23      0.00
   32    7   10     11.83      0.00
   33    7   10     -5.02      0.00
   34    7   10     -1.20      0.00
   35    7   10      6.36      0.00
   36    7   10     -3.61      0.00
   37    7   10      0.74      0.00
   38    7   10     -2.45      0.00
   39    7   10     -5.71      0.00
   40    7   10      4.40      0.00
   41    7   10      5.55      0.00
   42    7   10      1.75      0.00
   43    7   10      2.99      0.00
   44    7   10     -0.94      0.00
   45    7   10    -13.57      0.00
   46    7   10      4.14      0.00
   47    7   10     11.68      0.00
   48    7   10      2.64      0.00
   49    7   10      2.19      0.00
   50    7   10     -9.17      0.00
   51    7   10    -16.28      0.00
   52    7   10      9.02      0.00
   53    7   10      9.60      0.00
   54    7   10     -5.13      0.00
   55    7   10      6.13      0.00
   56    7   10     -0.81      0.00
   57    7   10     -5.46      0.00
   58    7   10     14.03      0.00
   59    7   10     -7.22      0.00
   60    7   10     -8.49      0.00
    0    8   10      4.29      0.00
    1    8   10     -6.93      0.00
    2    8   10      0.11      0.00
    3    8   10      6.55      0.00
    4    8   10     -2.03      0.00
    5    8   10      0.60      0.00
    6    8   10      5.32      0.00
    7    8   10     -7.73      0.00
    8    8   10     -4.42      0.00
    9    8   10      7.39      0.00
   10    8   10     -3.36      0.00
   11    8   10     -5.18      0.00
   12    8   10      2.74      0.00
   13    8   10     10.76      0.00
   14    8   10      2.28      0.00
   15    8   10     -8.27      0.00
   16    8   10      5.79      0.00
   17    8   10     -1.37      0.00
   18    8   10    -10.17      0.00
   19    8   10      3.13      0.00
   20    8   10      5.95      0.00
   21    8   10      5.37      0.00
   22    8   10     -9.20      0.00
   23    8   10      2.32      0.00
   24    8   10      1.14      0.00
   25    8   10    -11.93      0.00
   26    8   10      7.42      0.00
   27    8   10     10.47      0.00
   28    8   10     -0.67      0.00
   29    8   10      1.86      0.00
   30    8   10     -7.91      0.00
   31    8   10     -7.27      0.00
   32    8   10     -1.56      0.00
   33    8   10      7.82      0.00
   34    8   10      0.82      0.00
   35    8   10     -3.77      0.00
   36    8   10      4.45      0.00
   37    8   10      5.31      0.00
   38    8   10     -6.58      0.00
   39    8   10     -7.04      0.00
   40    8   10     -0.16      0.00
   41    8   10      3.42      0.00
   42    8   10      3.44      0.00
   43    8   10      2.41      0.00
   44    8   10     -5.53      0.00
   45    8   10      0.95      0.00
   46    8   10      2.19      0.00
   47    8   10     -4.37      0.00
   48    8   10     -4.70      0.00
   49    8   10      5.10      0.00
   50    8   10      1.52      0.00
   51    8   10      6.63      0.00
   52    8   10      7.99      0.00
   53    8   10    -16.53      0.00
   54    8   10    -16.26      0.00
   55    8   10     10.00      0.00
   56    8   10     13.03      0.00
   57    8   10      4.45      0.00
    1    9   10     -1.41      0.00
    2    9   10      2.79      0.00
    3    9   10      7.63      0.00
    4    9   10     -0.32      0.00
    5    9   10     -8.24      0.00
    6    9   10     -2.90      0.00
    7    9   10     15.06      0.00
    8    9   10      1.92      0.00
    9    9   10     -9.00      0.00
   10    9   10      2.83      0.00
   11    9   10     -4.15      0.00
   12    9   10     -8.61      0.00
   13    9   10     12.93      0.00
   14    9   10     -5.35      0.00
   15    9   10     -0.18      0.00
   16    9   10      6.18      0.00
   17    9   10     -1.17      0.00
   18    9   10      8.13      0.00
   19    9   10    -10.96      0.00
   20    9   10    -12.31      0.00
   21    9   10     13.53      0.00
   22    9   10      3.79      0.00
   23    9   10     -5.63      0.00
   24    9   10    -11.38      0.00
   25    9   10      3.62      0.00
   26    9   10      3.56      0.00
   27    9   10     -3.05      0.00
   28    9   10      1.25      0.00
   29    9   10     -6.44      0.00
   30    9   10      2.64      0.00
   31    9   10     11.51      0.00
   32    9   10     -1.16      0.00
   33    9   10    -13.32      0.00
   34    9   10    -10.48      0.00
   35    9   10      5.53      0.00
   36    9   10     -0.02      0.00
   37    9   10      0.48      0.00
   38    9   10      4.30      0.00
   39    9   10     -5.91      0.00
   40    9   10     -6.45      0.00
   41    9   10      6.79      0.00
   42    9   10      1.13      0.00
   43    9   10    -13.18      0.00
   44    9   10      0.24      0.00
   45    9   10     13.37      0.00
   46    9   10      4.15      0.00
   47    9   10     -5.98      0.00
   48    9   10    -14.37      0.00
   49    9   10     -5.57      0.00
   50    9   10      9.73      0.00
   51    9   10      6.99      0.00
   52    9   10     -3.97      0.00
   53    9   10      0.66      0.00
    0   10   10     -3.94      0.00
    1   10   10     -4.33      0.00
    2   10   10     -0.47      0.00
    3   10   10      6.60      0.00
    4   10   10      4.07      0.00
    5   10   10     -7.57      0.00
    6   10   10     -7.45      0.00
    7   10   10      3.44      0.00
    8   10   10      1.57      0.00
    9   10   10      8.28      0.00
   10   10   10      3.46      0.00
   11   10   10    -14.17      0.00
   12   10   10      0.18      0.00
   13   10   10     -0.20      0.00
   14   10   10     -4.53      0.00
   15   10   10     13.50      0.00
   16   10   10     -6.07      0.00
   17   10   10     -8.93      0.00
   18   10   10     13.41      0.00
   19   10   10      0.53      0.00
   20   10   10     -5.63      0.00
   21   10   10      0.37      0.00
   22   10   10      7.26      0.00
   23   10   10     -8.59      0.00
   24   10   10     -0.98      0.00
   25   10   10      9.56      0.00
   26   10   10    -12.49      0.00
   27   10   10     -4.99      0.00
   28   10   10      9.76      0.00
   29   10   10      1.24      0.00
   30   10   10      4.99      0.00
   31   10   10     -2.59      0.00
   32   10   10     -1.11      0.00
   33   10   10     -6.53      0.00
   34   10   10      8.01      0.00
   35   10   10     16.50      0.00
   36   10   10     -6.09      0.00
   37   10   10    -14.56      0.00
   38   10   10     -0.95      0.00
   39   10   10      3.33      0.00
   40   10   10      3.55      0.00
   41   10   10      2.75      0.00
   42   10   10     -0.31      0.00
   43   10   10     -3.93      0.00
   44   10   10      6.48      0.00
   45   10   10      2.51      0.00
   46   10   10     -1.84      0.00
   47   10   10      1.06      0.00
   48   10   10     -3.52      0.00
    1   11   10      2.51      0.00
    2   11   10    -11.67      0.00
    3   11   10     -8.90      0.00
    4   11   10     14.30      0.00
    5   11   10      7.16      0.00
    6   11   10     -1.56      0.00
    7   11   10     -4.61      0.00
    8   11   10     -9.24      0.00
    9   11   10     -1.23      0.00
   10   11   10     10.07      0.00
   11   11   10      4.56      0.00
   12   11   10      0.41      0.00
   13   11   10     -5.80      0.00
   14   11   10     -2.31      0.00
   15   11   10     -5.14      0.00
   16   11   10      1.14      0.00
   17   11   10      0.49      0.00
   18   11   10     -3.30      0.00
   19   11   10     10.86      0.00
   20   11   10     12.38      0.00
   21   11   10    -11.48      0.00
   22   11   10     -8.60      0.00
   23   11   10     -2.07      0.00
   24   11   10     11.13      0.00
   25   11   10      9.68      0.00
   26   11   10     -2.42      0.00
   27   11   10    -11.90      0.00
   28   11   10     -3.70      0.00
   29   11   10     11.44      0.00
   30   11   10     -1.27      0.00
   31   11   10      0.02      0.00
   32   11   10      4.19      0.00
   33   11   10    -14.15      0.00
   34   11   10      8.18      0.00
   35   11   10     16.07      0.00
   36   11   10      4.38      0.00
   37   11   10      2.90      0.00
   38   11   10    -13.25      0.00
   39   11   10     -7.00      0.00
   40   11   10     11.07      0.00
   41   11   10      3.85      0.00
   42   11   10     -3.31      0.00
   43   11   10      2.43      0.00
    0   12   10     -8.17      0.00
    1   12   10      7.34      0.00
    2   12   10      8.27      0.00
    3   12   10     -1.02      0.00
    4   12   10     -4.49      0.00
    5   12   10     -0.77      0.00
    6   12   10     -3.92      0.00
    7   12   10     -5.97      0.00
    8   12   10      9.26      0.00
    9   12   10      2.32      0.00
   10   12   10      0.41      0.00
   11   12   10      0.13      0.00
   12   12   10    -10.08      0.00
   13   12   10      2.22      0.00
   14   12   10      8.58      0.00
   15   12   10     -2.68      0.00
   16   12   10     -0.47      0.00
   17   12   10     -8.83      0.00
   18   12   10    -12.85      0.00
   19   12   10     11.89      0.00
   20   12   10     13.15      0.00
   21   12   10     -8.46      0.00
   22   12   10     -5.05      0.00
   23   12   10      4.07      0.00
   24   12   10     -9.02      0.00
   25   12   10      0.79      0.00
   26   12   10     14.15      0.00
   27   12   10     -4.56      0.00
   28   12   10     -7.55      0.00
   29   12   10      8.26      0.00
   30   12   10     -3.51      0.00
   31   12   10     -3.03      0.00
   32   12   10     -6.12      0.00
   33   12   10      1.37      0.00
   34   12   10      3.73      0.00
   35   12   10     -8.85      0.00
   36   12   10      2.72      0.00
   37   12   10      8.28      0.00
    1   13   10     -9.52      0.00
    2   13   10      3.65      0.00
    3   13   10     12.97      0.00
    4   13   10     -6.98      0.00
    5   13   10     -0.64      0.00
    6   13   10      7.59      0.00
    7   13   10     -3.67      0.00
    8   13   10     -6.24      0.00
    9   13   10     -1.95      0.00
   10   13   10     -7.95      0.00
   11   13   10     -0.92      0.00
   12   13   10     20.15      0.00
   13   13   10      7.53      0.00
   14   13   10    -12.03      0.00
   15   13   10     -3.67      0.00
   16   13   10     -7.45      0.00
   17   13   10      1.46      0.00
   18   13   10      8.49      0.00
   19   13   10      7.07      0.00
   20   13   10     -4.72      0.00
   21   13   10    -12.47      0.00
   22   13   10      2.81      0.00
   23   13   10      8.81      0.00
   24   13   10     -6.22      0.00
   25   13   10      2.82      0.00
   26   13   10     -0.01      0.00
   27   13   10     -6.69      0.00
    1   14   10      0.96      0.00
    4   14   10      0.04      0.00
    5   14   10      2.35      0.00
    7   14   10     10.61      0.00
    8   14   10      6.71      0.00
    9   14   10    -10.74      0.00
   10   14   10    -11.64      0.00
   11   14   10      4.96      0.00
    1    0   11     -4.53      0.00
    2    0   11      3.29      0.00
    3    0   11     11.40      0.00
    4    0   11     -4.82      0.00
    5    0   11      0.33      0.00
    6    0   11     -6.48      0.00
    7    0   11      3.75      0.00
    8    0   11      8.05      0.00
    9    0   11      1.69      0.00
   10    0   11      1.29      0.00
   11    0   11      2.17      0.00
   12    0   11     -3.00      0.00
   13    0   11    -13.73      0.00
   14    0   11      0.75      0.00
   15    0   11     26.06      0.00
   16    0   11      0.42      0.00
   17    0   11    -14.84      0.00
   18    0   11     -0.78      0.00
   19    0   11     -8.85      0.00
   20    0   11      6.68      0.00
   21    0   11      9.00      0.00
   22    0   11    -14.00      0.00
   23    0   11      4.25      0.00
   24    0   11      6.87      0.00
   25    0   11     -0.57      0.00
   26    0   11      4.50      0.00
   27    0   11     -6.99      0.00
   28    0   11     -8.34      0.00
   29    0   11      1.34      0.00
   30    0   11      8.49      0.00
   31    0   11     -9.37      0.00
   32    0   11     -0.93      0.00
   33    0   11     12.39      0.00
   34    0   11     -6.09      0.00
   35    0   11     -4.45      0.00
   36    0   11      4.78      0.00
   37    0   11     -2.75      0.00
   38    0   11     -3.12      0.00
   39    0   11      8.15      0.00
   40    0   11      0.55      0.00
   41    0   11    -11.15      0.00
   42    0   11      7.17      0.00
   43    0   11      2.20      0.00
   44    0   11     -7.14      0.00
   45    0   11     -3.71      0.00
   46    0   11      0.66      0.00
   47    0   11      0.54      0.00
   48    0   11      7.12      0.00
   49    0   11      5.77      0.00
   50    0   11     -0.23      0.00
   51    0   11      1.70      0.00
   52    0   11     -1.52      0.00
   53    0   11    -11.28      0.00
   54    0   11      6.03      0.00
   55    0   11     -7.50      0.00
   56    0   11     10.39      0.00
   57    0   11      9.86      0.00
   58    0   11    -19.49      0.00
   59    0   11      0.59      0.00
   60    0   11     14.89      0.00
   61    0   11      8.53      0.00
   62    0   11      2.45      0.00
   63    0   11    -16.97      0.00
   64    0   11      2.56      0.00
   65    0   11     -4.78      0.00
   66    0   11     -1.08      0.00
   67    0   11     14.34      0.00
    0    1   11      5.37      0.00
    1    1   11     31.71      0.00
    2    1   11     -5.12      0.00
    3    1   11    -13.73      0.00
    4    1   11      8.72      0.00
    5    1   11    -17.99      0.00
    6    1   11     -5.41      0.00
    7    1   11     22.60      0.00
    8    1   11     -8.68      0.00
    9    1   11     -6.15      0.00
   10    1   11      8.47      0.00
   11    1   11    -12.58      0.00
   12    1   11      0.54      0.00
   13    1   11      7.07      0.00
   14    1   11     -6.72      0.00
   15    1   11     -6.62      0.00
   16    1   11      1.98      0.00
   17    1   11      0.85      0.00
   18    1   11     -1.07      0.00
   19    1   11      2.11      0.00
   20    1   11      4.67      0.00
   21    1   11    -13.38      0.00
   22    1   11    -10.09      0.00
   23    1   11      5.09      0.00
   24    1   11      6.28      0.00
   25    1   11     -1.73      0.00
   26    1   11     -8.81      0.00
   27    1   11      5.07      0.00
   28    1   11     -1.64      0.00
   29    1   11     -2.48      0.00
   30    1   11     -1.48      0.00
   31    1   11     -6.39      0.00
   32    1   11      4.08      0.00
   33    1   11      0.84      0.00
   34    1   11     -3.37      0.00
   35    1   11     -0.30      0.00
   36    1   11     -0.51      0.00
   37    1   11      2.67      0.00
   38    1   11     -3.07      0.00
   39    1   11     -3.95      0.00
   40    1   11     -0.74      0.00
   41    1   11      6.29      0.00
   42    1   11      2.32      0.00
   43    1   11     -2.08      0.00
   44    1   11     -1.75      0.00
   45    1   11     -5.65      0.00
   46    1   11      1.67      0.00
   47    1   11      1.22      0.00
   48    1   11      2.12      0.00
   49    1   11     -2.58      0.00
   50    1   11     -1.72      0.00
   51    1   11      8.14      0.00
   52    1   11     -1.20      0.00
   53    1   11      3.00      0.00
   54    1   11      3.01      0.00
   55    1   11     -2.50      0.00
   56    1   11     -1.87      0.00
   57    1   11    -11.50      0.00
   58    1   11     10.34      0.00
   59    1   11      2.45      0.00
   60    1   11    -14.52      0.00
   61    1   11     17.21      0.00
   62    1   11      5.19      0.00
   63    1   11     -6.01      0.00
   64    1   11     -0.28      0.00
   65    1   11     -2.40      0.00
   66    1   11     -4.34      0.00
   67    1   11     -2.64      0.00
   68    1   11      5.67      0.00
    1    2   11      2.24      0.00
    2    2   11    -10.31      0.00
    3    2   11     -6.50      0.00
    4    2   11      5.15      0.00
    5    2   11      9.50      0.00
    6    2   11     12.76      0.00
    7    2   11    -16.89      0.00
    8    2   11    -14.80      0.00
    9    2   11      6.24      0.00
   10    2   11      3.33      0.00
   11    2   11      7.81      0.00
   12    2   11      7.38      0.00
   13    2   11     -2.07      0.00
   14    2   11     -5.40      0.00
   15    2   11    -14.40      0.00
   16    2   11      0.74      0.00
   17    2   11     20.08      0.00
   18    2   11     -2.16      0.00
   19    2   11     -9.64      0.00
   20    2   11      2.25      0.00
   21    2   11     -7.58      0.00
   22    2   11      0.57      0.00
   23    2   11     21.00      0.00
   24    2   11      0.63      0.00
   25    2   11    -16.92      0.00
   26    2   11      5.27      0.00
   27    2   11      1.13      0.00
   28    2   11     -8.79      0.00
   29    2   11      9.82      0.00
   30    2   11      1.60      0.00
   31    2   11     -2.58      0.00
   32    2   11     -4.99      0.00
   33    2   11     -5.79      0.00
   34    2   11      4.71      0.00
   35    2   11      2.99      0.00
   36    2   11      1.23      0.00
   37    2   11      1.27      0.00
   38    2   11      1.96      0.00
   39    2   11     -1.24      0.00
   40    2   11     -4.11      0.00
   41    2   11     -2.32      0.00
   42    2   11     -3.24      0.00
   43    2   11      6.58      0.00
   44    2   11      3.06      0.00
   45    2   11     -0.54      0.00
   46    2   11     -6.13      0.00
   47    2   11     -0.84      0.00
   48    2   11      2.05      0.00
   49    2   11     -5.16      0.00
   50    2   11      1.31      0.00
   51    2   11      1.23      0.00
   52    2   11      1.49      0.00
   53    2   11      5.43      0.00
   54    2   11    -10.29      0.00
   55    2   11      6.55      0.00
   56    2   11     -5.06      0.00
   57    2   11     -7.70      0.00
   58    2   11     11.03      0.00
   59    2   11      2.13      0.00
   60    2   11    -13.72      0.00
   61    2   11     -6.30      0.00
   62    2   11     10.22      0.00
   63    2   11      2.45      0.00
   64    2   11     -5.64      0.00
   65    2   11     10.01      0.00
   66    2   11     -3.91      0.00
   67    2   11     -4.63      0.00
    0    3   11      0.03      0.00
    1    3   11    -27.11      0.00
    2    3   11      9.51      0.00
    3    3   11     13.11      0.00
    4    3   11    -15.91      0.00
    5    3   11     12.09      0.00
    6    3   11      4.65      0.00
    7    3   11    -16.30      0.00
    8    3   11     10.89      0.00
    9    3   11      1.92      0.00
   10    3   11     -9.20      0.00
   11    3   11      0.38      0.00
   12    3   11      0.54      0.00
   13    3   11      4.31      0.00
   14    3   11      4.33      0.00
   15    3   11      0.62      0.00
   16    3   11      1.10      0.00
   17    3   11      1.27      0.00
   18    3   11     -0.03      0.00
   19    3   11     -7.77      0.00
   20    3   11     -8.03      0.00
   21    3   11     10.50      0.00
   22    3   11      7.38      0.00
   23    3   11    -11.18      0.00
   24    3   11     -2.67      0.00
   25    3   11      5.53      0.00
   26    3   11      4.34      0.00
   27    3   11      3.10      0.00
   28    3   11      2.51      0.00
   29    3   11     -4.79      0.00
   30    3   11     -0.04      0.00
   31    3   11      4.51      0.00
   32    3   11     -1.83      0.00
   33    3   11     -0.36      0.00
   34    3   11      0.98      0.00
   35    3   11     -2.12      0.00
   36    3   11     -6.32      0.00
   37    3   11     -0.87      0.00
   38    3   11     12.30      0.00
   39    3   11      5.19      0.00
   40    3   11      0.79      0.00
   41    3   11     -3.04      0.00
   42    3   11     -5.99      0.00
   43    3   11      0.28      0.00
   44    3   11      0.96      0.00
   45    3   11      5.61      0.00
   46    3   11      3.21      0.00
   47    3   11     -1.20      0.00
   48    3   11     -5.79      0.00
   49    3   11     -0.54      0.00
   50    3   11     -0.54      0.00
   51    3   11     -1.11      0.00
   52    3   11     10.09      0.00
   53    3   11     -1.49      0.00
   54    3   11     -6.26      0.00
   55    3   11     -0.27      0.00
   56    3   11      1.80      0.00
   57    3   11      7.17      0.00
   58    3   11     -5.85      0.00
   59    3   11      3.16      0.00
   60    3   11      2.90      0.00
   61    3   11     -9.50      0.00
   62    3   11      3.80      0.00
   63    3   11      3.31      0.00
   64    3   11     -4.34      0.00
   65    3   11    -10.07      0.00
   66    3   11      9.68      0.00
    1    4   11     -9.83      0.00
    2    4   11     11.14      0.00
    3    4   11      4.86      0.00
    4    4   11     -1.08      0.00
    5    4   11     -2.89      0.00
    6    4   11     -9.24      0.00
    7    4   11     10.47      0.00
    8    4   11      2.22      0.00
    9    4   11    -13.60      0.00
   10    4   11     -0.22      0.00
   11    4   11      5.40      0.00
   12    4   11      0.99      0.00
   13    4   11    -13.18      0.00
   14    4   11     -6.12      0.00
   15    4   11     10.08      0.00
   16    4   11      2.95      0.00
   17    4   11     -4.42      0.00
   18    4   11      2.14      0.00
   19    4   11      0.10      0.00
   20    4   11     -0.43      0.00
   21    4   11      6.41      0.00
   22    4   11     -5.15      0.00
   23    4   11     -8.49      0.00
   24    4   11      1.63      0.00
   25    4   11      3.39      0.00
   26    4   11      1.30      0.00
   27    4   11     -0.99      0.00
   28    4   11      1.85      0.00
   29    4   11     -5.24      0.00
   30    4   11     -0.93      0.00
   31    4   11      8.24      0.00
   32    4   11      4.42      0.00
   33    4   11      5.41      0.00
   34    4   11     -4.37      0.00
   35    4   11     -8.42      0.00
   36    4   11      3.02      0.00
   37    4   11      4.50      0.00
   38    4   11     -3.81      0.00
   39    4   11     -0.74      0.00
   40    4   11      5.91      0.00
   41    4   11     -2.36      0.00
   42    4   11      4.71      0.00
   43    4   11      0.21      0.00
   44    4   11     -5.52      0.00
   45    4   11      8.38      0.00
   46    4   11     -2.01      0.00
   47    4   11     -6.89      0.00
   48    4   11      3.77      0.00
   49    4   11      2.46      0.00
   50    4   11      4.29      0.00
   51    4   11      4.06      0.00
   52    4   11     -7.88      0.00
   53    4   11     -3.84      0.00
   54    4   11     12.03      0.00
   55    4   11     -4.18      0.00
   56    4   11     -0.68      0.00
   57    4   11      4.61      0.00
   58    4   11     -8.33      0.00
   59    4   11     -7.32      0.00
   60    4   11      4.90      0.00
   61    4   11     22.24      0.00
   62    4   11      1.80      0.00
   63    4   11    -12.24      0.00
   64    4   11      3.29      0.00
   65    4   11    -11.72      0.00
    0    5   11     -4.96      0.00
    1    5   11      2.18      0.00
    2    5   11     -6.67      0.00
    3    5   11    -14.00      0.00
    4    5   11     10.45      0.00
    5    5   11      4.40      0.00
    6    5   11     -3.95      0.00
    7    5   11      4.43      0.00
    8    5   11      3.04      0.00
    9    5   11     -0.24      0.00
   10    5   11     -3.83      0.00
   11    5   11      6.00      0.00
   12    5   11     -2.79      0.00
   13    5   11     -3.57      0.00
   14    5   11      8.42      0.00
   15    5   11      1.14      0.00
   16    5   11    -10.46      0.00
   17    5   11     -4.26      0.00
   18    5   11      8.50      0.00
   19    5   11      3.10      0.00
   20    5   11     -1.21      0.00
   21    5   11      0.92      0.00
   22    5   11     -2.04      0.00
   23    5   11      1.35      0.00
   24    5   11      5.14      0.00
   25    5   11      3.97      0.00
   26    5   11     -6.58      0.00
   27    5   11      0.76      0.00
   28    5   11      5.10      0.00
   29    5   11     -8.77      0.00
   30    5   11     -4.13      0.00
   31    5   11      0.68      0.00
   32    5   11      9.81      0.00
   33    5   11      0.43      0.00
   34    5   11    -12.34      0.00
   35    5   11      2.97      0.00
   36    5   11      5.74      0.00
   37    5   11      6.48      0.00
   38    5   11     -3.03      0.00
   39    5   11    -13.78      0.00
   40    5   11     -1.67      0.00
   41    5   11      2.84      0.00
   42    5   11      6.81      0.00
   43    5   11      4.15      0.00
   44    5   11     -0.41      0.00
   45    5   11    -12.20      0.00
   46    5   11     -2.91      0.00
   47    5   11      6.85      0.00
   48    5   11     -4.29      0.00
   49    5   11      2.06      0.00
   50    5   11      5.46      0.00
   51    5   11     -8.78      0.00
   52    5   11    -10.90      0.00
   53    5   11      0.94      0.00
   54    5   11     11.02      0.00
   55    5   11      6.91      0.00
   56    5   11      6.25      0.00
   57    5   11     -0.90      0.00
   58    5   11    -10.33      0.00
   59    5   11    -22.01      0.00
   60    5   11     -2.03      0.00
   61    5   11     11.61      0.00
   62    5   11     -3.34      0.00
   63    5   11     14.01      0.00
    1    6   11      9.74      0.00
    2    6   11    -11.05      0.00
    3    6   11     -7.48      0.00
    4    6   11      1.15      0.00
    5    6   11      2.24      0.00
    6    6   11      4.08      0.00
    7    6   11     -1.79      0.00
    8    6   11     -1.65      0.00
    9    6   11      2.68      0.00
   10    6   11      5.65      0.00
   11    6   11     -4.31      0.00
   12    6   11      0.83      0.00
   13    6   11     10.66      0.00
   14    6   11     -3.24      0.00
   15    6   11     -2.73      0.00
   16    6   11      1.32      0.00
   17    6   11      0.69      0.00
   18    6   11      2.98      0.00
   19    6   11     -0.39      0.00
   20    6   11     -3.81      0.00
   21    6   11     -4.31      0.00
   22    6   11      3.46      0.00
   23    6   11      4.33      0.00
   24    6   11     -0.91      0.00
   25    6   11     -2.07      0.00
   26    6   11     -0.53      0.00
   27    6   11      1.85      0.00
   28    6   11      1.88      0.00
   29    6   11      7.81      0.00
   30    6   11     -4.06      0.00
   31    6   11     -7.15      0.00
   32    6   11      1.53      0.00
   33    6   11    -10.94      0.00
   34    6   11      5.30      0.00
   35    6   11     14.84      0.00
   36    6   11     -6.18      0.00
   37    6   11     -6.61      0.00
   38    6   11     -0.81      0.00
   39    6   11      3.04      0.00
   40    6   11      0.49      0.00
   41    6   11     -1.67      0.00
   42    6   11      1.86      0.00
   43    6   11     -0.85      0.00
   44    6   11     -6.81      0.00
   45    6   11      0.12      0.00
   46    6   11     10.51      0.00
   47    6   11     -2.81      0.00
   48    6   11      1.01      0.00
   49    6   11      5.43      0.00
   50    6   11    -10.32      0.00
   51    6   11     -1.26      0.00
   52    6   11      5.28      0.00
   53    6   11    -11.88      0.00
   54    6   11     -8.69      0.00
   55    6   11      5.16      0.00
   56    6   11      7.09      0.00
   57    6   11     15.19      0.00
   58    6   11      6.90      0.00
   59    6   11     -6.14      0.00
   60    6   11     -4.23      0.00
   61    6   11    -18.13      0.00
    0    7   11     -1.67      0.00
    1    7   11     -0.78      0.00
    2    7   11      9.44      0.00
    3    7   11      5.30      0.00
    4    7   11     -6.69      0.00
    5    7   11     -1.43      0.00
    6    7   11     -3.48      0.00
    7    7   11     -4.15      0.00
    8    7   11      1.30      0.00
    9    7   11      4.81      0.00
   10    7   11     -1.46      0.00
   11    7   11     -0.22      0.00
   12    7   11      5.81      0.00
   13    7   11     -5.07      0.00
   14    7   11     -5.47      0.00
   15    7   11      3.02      0.00
   16    7   11      4.13      0.00
   17    7   11      6.85      0.00
   18    7   11     -3.97      0.00
   19    7   11     -7.48      0.00
   20    7   11     -1.28      0.00
   21    7   11      1.08      0.00
   22    7   11      4.96      0.00
   23    7   11      7.99      0.00
   24    7   11     -9.55      0.00
   25    7   11    -11.17      0.00
   26    7   11      4.84      0.00
   27    7   11      8.26      0.00
   28    7   11      1.47      0.00
   29    7   11      0.42      0.00
   30    7   11     -5.38      0.00
   31    7   11      1.90      0.00
   32    7   11      1.54      0.00
   33    7   11     -2.99      0.00
   34    7   11      1.54      0.00
   35    7   11     -1.75      0.00
   36    7   11     -0.74      0.00
   37    7   11      8.43      0.00
   38    7   11     -7.03      0.00
   39    7   11     -3.19      0.00
   40    7   11      8.35      0.00
   41    7   11     -2.97      0.00
   42    7   11      0.70      0.00
   43    7   11     10.88      0.00
   44    7   11    -11.46      0.00
   45    7   11     -6.59      0.00
   46    7   11      5.28      0.00
   47    7   11     -3.33      0.00
   48    7   11      2.61      0.00
   49    7   11     11.07      0.00
   50    7   11      0.12      0.00
   51    7   11      5.84      0.00
   52    7   11     -1.64      0.00
   53    7   11    -10.23      0.00
   54    7   11     -2.40      0.00
   55    7   11     -4.07      0.00
   56    7   11      4.39      0.00
   57    7   11      6.00      0.00
   58    7   11     -7.79      0.00
   59    7   11     11.57      0.00
    1    8   11      0.79      0.00
    2    8   11      3.09      0.00
    3    8   11      0.62      0.00
    4    8   11      1.96      0.00
    5    8   11      0.65      0.00
    6    8   11     -2.16      0.00
    7    8   11      7.36      0.00
    8    8   11      0.28      0.00
    9    8   11    -14.01      0.00
   10    8   11     -3.82      0.00
   11    8   11     13.56      0.00
   12    8   11     -2.55      0.00
   13    8   11     -3.57      0.00
   14    8   11      6.93      0.00
   15    8   11     -0.10      0.00
   16    8   11     -3.72      0.00
   17    8   11      4.67      0.00
   18    8   11     -5.93      0.00
   19    8   11     -5.15      0.00
   20    8   11      7.00      0.00
   21    8   11      1.05      0.00
   22    8   11     -1.16      0.00
   23    8   11     -1.04      0.00
   24    8   11     -3.66      0.00
   25    8   11      1.31      0.00
   26    8   11     -1.27      0.00
   27    8   11     -7.18      0.00
   28    8   11      1.37      0.00
   29    8   11      9.51      0.00
   30    8   11      0.33      0.00
   31    8   11     -5.26      0.00
   32    8   11     -4.44      0.00
   33    8   11      0.34      0.00
   34    8   11      3.51      0.00
   35    8   11     -9.74      0.00
   36    8   11      1.44      0.00
   37    8   11      9.48      0.00
   38    8   11     -8.89      0.00
   39    8   11     -1.23      0.00
   40    8   11      6.48      0.00
   41    8   11     -6.86      0.00
   42    8   11    -10.60      0.00
   43    8   11     -1.15      0.00
   44    8   11     15.51      0.00
   45    8   11     11.82      0.00
   46    8   11    -10.29      0.00
   47    8   11    -10.46      0.00
   48    8   11     -4.23      0.00
   49    8   11     -6.71      0.00
   50    8   11      8.92      0.00
   51    8   11     12.62      0.00
   52    8   11     -6.87      0.00
   53    8   11      1.67      0.00
   54    8   11      0.89      0.00
   55    8   11     -9.55      0.00
   56    8   11     -0.91      0.00
    0    9   11    -11.27      0.00
    1    9   11      6.77      0.00
    2    9   11      5.40      0.00
    3    9   11     -5.35      0.00
    4    9   11      3.31      0.00
    5    9   11      2.17      0.00
    6    9   11     -4.63      0.00
    7    9   11      3.55      0.00
    8    9   11      4.13      0.00
    9    9   11     -2.49      0.00
   10    9   11     -3.68      0.00
   11    9   11     -6.64      0.00
   12    9   11      2.13      0.00
   13    9   11      0.16      0.00
   14    9   11      3.31      0.00
   15    9   11      4.87      0.00
   16    9   11     -2.70      0.00
   17    9   11     -4.40      0.00
   18    9   11     -0.56      0.00
   19    9   11     -0.01      0.00
   20    9   11      2.53      0.00
   21    9   11      0.14      0.00
   22    9   11      2.04      0.00
   23    9   11     -4.38      0.00
   24    9   11     -1.38      0.00
   25    9   11      1.94      0.00
   26    9   11      4.72      0.00
   27    9   11     -5.46      0.00
   28    9   11     -7.97      0.00
   29    9   11     -3.63      0.00
   30    9   11     11.76      0.00
   31    9   11      7.48      0.00
   32    9   11     -9.09      0.00
   33    9   11      2.82      0.00
   34    9   11      5.14      0.00
   35    9   11    -19.57      0.00
   36    9   11      3.42      0.00
   37    9   11     14.07      0.00
   38    9   11     -2.21      0.00
   39    9   11      2.67      0.00
   40    9   11      4.12      0.00
   41    9   11    -11.00      0.00
   42    9   11     -7.69      0.00
   43    9   11      0.70      0.00
   44    9   11      5.21      0.00
   45    9   11      1.77      0.00
   46    9   11      3.40      0.00
   47    9   11     -1.60      0.00
   48    9   11     -2.15      0.00
   49    9   11      5.85      0.00
   50    9   11     -1.46      0.00
   51    9   11    -10.62      0.00
   52    9   11      9.04      0.00
    1   10   11      2.63      0.00
    2   10   11    -11.09      0.00
    3   10   11    -13.53      0.00
    4   10   11     13.94      0.00
    5   10   11     12.09      0.00
    6   10   11     -6.48      0.00
    7   10   11    -13.29      0.00
    8   10   11      3.58      0.00
    9   10   11      9.89      0.00
   10   10   11     -1.26      0.00
   11   10   11     -0.54      0.00
   12   10   11     -4.47      0.00
   13   10   11    -17.05      0.00
   14   10   11     10.00      0.00
   15   10   11     10.44      0.00
   16   10   11     -1.80      0.00
   17   10   11      0.88      0.00
   18   10   11     -2.20      0.00
   19   10   11     -3.38      0.00
   20   10   11      3.56      0.00
   21   10   11     -6.18      0.00
   22   10   11     -5.93      0.00
   23   10   11     12.60      0.00
   24   10   11     10.32      0.00
   25   10   11     -5.13      0.00
   26   10   11      1.48      0.00
   27   10   11     -0.98      0.00
   28   10   11    -10.41      0.00
   29   10   11      0.74      0.00
   30   10   11     10.50      0.00
   31   10   11      4.11      0.00
   32   10   11     -4.81      0.00
   33   10   11     -0.58      0.00
   34   10   11      5.85      0.00
   35   10   11      4.51      0.00
   36   10   11     -6.53      0.00
   37   10   11     -6.21      0.00
   38   10   11     12.97      0.00
   39   10   11      9.65      0.00
   40   10   11     -4.21      0.00
   41   10   11      0.27      0.00
   42   10   11     -3.56      0.00
   43   10   11      4.03      0.00
   44   10   11      3.49      0.00
   45   10   11     -7.63      0.00
   46   10   11      5.78      0.00
   47   10   11      0.24      0.00
    0   11   11     13.98      0.00
    1   11   11      1.52      0.00
    2   11   11     -7.82      0.00
    3   11   11     -0.45      0.00
    4   11   11     -5.84      0.00
    5   11   11      0.05      0.00
    6   11   11     11.42      0.00
    7   11   11     -5.18      0.00
    8   11   11     -3.39      0.00
    9   11   11      4.19      0.00
   10   11   11     -2.08      0.00
   11   11   11      5.31      0.00
   12   11   11     -1.44      0.00
   13   11   11     -8.61      0.00
   14   11   11      3.60      0.00
   15   11   11      5.73      0.00
   16   11   11    -11.34      0.00
   17   11   11     -8.31      0.00
   18   11   11     10.39      0.00
   19   11   11      9.31      0.00
   20   11   11      3.04      0.00
   21   11   11      3.11      0.00
   22   11   11    -19.01      0.00
   23   11   11    -11.50      0.00
   24   11   11      7.22      0.00
   25   11   11      9.05      0.00
   26   11   11      6.73      0.00
   27   11   11      2.33      0.00
   28   11   11     -6.18      0.00
   29   11   11      1.00      0.00
   30   11   11      0.48      0.00
   31   11   11     -2.18      0.00
   32   11   11     -2.89      0.00
   33   11   11     -4.38      0.00
   34   11   11     -8.61      0.00
   35   11   11     14.78      0.00
   36   11   11     14.75      0.00
   37   11   11    -10.73      0.00
   38   11   11    -11.97      0.00
   39   11   11      0.87      0.00
   40   11   11      5.48      0.00
   41   11   11      3.92      0.00
   42   11   11      3.71      0.00
    1   12   11     -7.23      0.00
    2   12   11     15.36      0.00
    3   12   11     11.62      0.00
    4   12   11    -10.75      0.00
    5   12   11     -0.55      0.00
    6   12   11     -7.71      0.00
    7   12   11     -6.70      0.00
    8   12   11      7.28      0.00
    9   12   11      5.31      0.00
   10   12   11     -1.33      0.00
   11   12   11     -1.15      0.00
   12   12   11      6.08      0.00
   13   12   11     -1.47      0.00
   14   12   11    -12.39      0.00
   15   12   11     13.37      0.00
   16   12   11      2.28      0.00
   17   12   11    -12.79      0.00
   18   12   11      3.23      0.00
   19   12   11     -3.60      0.00
   20   12   11     -7.27      0.00
   21   12   11     14.68      0.00
   22   12   11      6.82      0.00
   23   12   11     -1.99      0.00
   24   12   11     -2.60      0.00
   25   12   11    -10.17      0.00
   26   12   11     -9.98      0.00
   27   12   11     -0.75      0.00
   28   12   11      5.34      0.00
   29   12   11     14.02      0.00
   30   12   11     10.93      0.00
   31   12   11    -10.63      0.00
   32   12   11    -11.07      0.00
   33   12   11      0.78      0.00
   34   12   11     -5.64      0.00
   35   12   11     -6.55      0.00
    0   13   11     -8.52      0.00
    1   13   11    -30.57      0.00
    2   13   11      4.01      0.00
    3   13   11      2.91      0.00
    4   13   11      4.01      0.00
    5   13   11     12.63      0.00
    6   13   11     -3.51      0.00
    7   13   11     -3.21      0.00
    8   13   11      0.25      0.00
    9   13   11      0.63      0.00
   10   13   11     -3.99      0.00
   11   13   11     -6.44      0.00
   12   13   11      1.20      0.00
   13   13   11     10.26      0.00
   14   13   11      8.50      0.00
   15   13   11     -5.72      0.00
   16   13   11      3.77      0.00
   17   13   11      7.43      0.00
   18   13   11    -15.96      0.00
   19   13   11     -5.97      0.00
   20   13   11     14.11      0.00
   21   13   11     -0.55      0.00
   22   13   11     -4.06      0.00
   23   13   11      3.37      0.00
   24   13   11      4.67      0.00
   25   13   11      0.30      0.00
    1   14   11      5.87      0.00
    3   14   11     -4.23      0.00
    0    0   12     26.04      0.00
    1    0   12     14.89      0.00
    2    0   12    -11.15      0.00
    3    0   12    -20.12      0.00
    4    0   12     -6.29      0.00
    5    0   12      6.61      0.00
    6    0   12     11.46      0.00
    7    0   12      6.16      0.00
    8    0   12     -4.99      0.00
    9    0   12    -17.70      0.00
   10    0   12     -2.58      0.00
   11    0   12     14.70      0.00
   12    0   12     -0.35      0.00
   13    0   12      1.56      0.00
   14    0   12      0.62      0.00
   15    0   12    -18.93      0.00
   16    0   12      3.39      0.00
   17    0   12     -0.16      0.00
   18    0   12     -7.27      0.00
   19    0   12     13.97      0.00
   20    0   12     -1.39      0.00
   21    0   12    -16.33      0.00
   22    0   12      5.29      0.00
   23    0   12      1.75      0.00
   24    0   12     -4.48      0.00
   25    0   12      3.64      0.00
   26    0   12     -0.94      0.00
   27    0   12     -1.86      0.00
   28    0   12    -12.95      0.00
   29    0   12     -1.11      0.00
   30    0   12     -0.19      0.00
   31    0   12     -8.82      0.00
   32    0   12     11.89      0.00
   33    0   12      5.70      0.00
   34    0   12     -1.44      0.00
   35    0   12      6.24      0.00
   36    0   12    -12.07      0.00
   37    0   12    -12.58      0.00
   38    0   12      4.94      0.00
   39    0   12      2.17      0.00
   40    0   12      1.67      0.00
   41    0   12     10.81      0.00
   42    0   12     -8.84      0.00
   43    0   12     -4.45      0.00
   44    0   12      6.25      0.00
   45    0   12    -11.60      0.00
   46    0   12     -0.78      0.00
   47    0   12     13.28      0.00
   48    0   12     -0.03      0.00
   49    0   12     -4.27      0.00
   50    0   12      9.62      0.00
   51    0   12      2.81      0.00
   52    0   12    -13.74      0.00
   53    0   12     10.55      0.00
   54    0   12     -1.73      0.00
   55    0   12    -10.90      0.00
   56    0   12     14.65      0.00
   57    0   12     -5.92      0.00
   58    0   12    -10.70      0.00
   59    0   12     13.83      0.00
   60    0   12      2.03      0.00
   61    0   12      4.58      0.00
   62    0   12      5.39      0.00
   63    0   12     -4.07      0.00
   64    0   12     -3.74      0.00
   65    0   12     -2.30      0.00
   66    0   12    -11.89      0.00
    1    1   12      6.51      0.00
    2    1   12     -0.61      0.00
    3    1   12    -12.90      0.00
    4    1   12      6.41      0.00
    5    1   12      7.48      0.00
    6    1   12     -5.69      0.00
    7    1   12     -7.47      0.00
    8    1   12      2.09      0.00
    9    1   12      3.12      0.00
   10    1   12     -3.80      0.00
   11    1   12     -4.81      0.00
   12    1   12      5.19      0.00
   13    1   12      0.99      0.00
   14    1   12    -13.27      0.00
   15    1   12     10.95      0.00
   16    1   12      8.25      0.00
   17    1   12    -11.51      0.00
   18    1   12     -0.74      0.00
   19    1   12     -3.30      0.00
   20    1   12     -2.68      0.00
   21    1   12      4.70      0.00
   22    1   12     -3.10      0.00
   23    1   12      6.76      0.00
   24    1   12     -0.66      0.00
   25    1   12    -14.85      0.00
   26    1   12     13.13      0.00
   27    1   12      5.33      0.00
   28    1   12     -9.33      0.00
   29    1   12     11.15      0.00
   30    1   12    -10.88      0.00
   31    1   12    -13.30      0.00
   32    1   12      2.94      0.00
   33    1   12     -0.03      0.00
   34    1   12     11.24      0.00
   35    1   12      7.53      0.00
   36    1   12     -4.65      0.00
   37    1   12      0.41      0.00
   38    1   12     -5.91      0.00
   39    1   12    -12.61      0.00
   40    1   12      6.85      0.00
   41    1   12     12.20      0.00
   42    1   12     -2.15      0.00
   43    1   12      0.84      0.00
   44    1   12     -5.72      0.00
   45    1   12     -2.00      0.00
   46    1   12      0.55      0.00
   47    1   12      4.83      0.00
   48    1   12     -0.74      0.00
   49    1   12     -7.80      0.00
   50    1   12      2.43      0.00
   51    1   12     -0.34      0.00
   52    1   12     -0.68      0.00
   53    1   12     16.56      0.00
   54    1   12     -5.87      0.00
   55    1   12     -7.59      0.00
   56    1   12     -4.00      0.00
   57    1   12     -0.22      0.00
   58    1   12      4.69      0.00
   59    1   12     -1.65      0.00
   60    1   12     -7.93      0.00
   61    1   12      0.93      0.00
   62    1   12      4.24      0.00
   63    1   12      5.20      0.00
   64    1   12      5.73      0.00
   65    1   12     -4.12      0.00
   66    1   12    -11.85      0.00
   67    1   12     -0.59      0.00
    0    2   12    -11.58      0.00
    1    2   12     -6.23      0.00
    2    2   12      7.64      0.00
    3    2   12     -4.05      0.00
    4    2   12     -3.56      0.00
    5    2   12     13.82      0.00
    6    2   12     -1.14      0.00
    7    2   12     -9.30      0.00
    8    2   12      9.55      0.00
    9    2   12      2.42      0.00
   10    2   12     -1.82      0.00
   11    2   12      7.77      0.00
   12    2   12     -5.46      0.00
   13    2   12    -11.17      0.00
   14    2   12      5.97      0.00
   15    2   12      4.93      0.00
   16    2   12      0.60      0.00
   17    2   12     11.70      0.00
   18    2   12     -8.21      0.00
   19    2   12    -10.28      0.00
   20    2   12     13.40      0.00
   21    2   12      3.49      0.00
   22    2   12     -1.88      0.00
   23    2   12     -0.98      0.00
   24    2   12     -7.67      0.00
   25    2   12      6.06      0.00
   26    2   12      5.99      0.00
   27    2   12     -3.31      0.00
   28    2   12     11.22      0.00
   29    2   12     -4.97      0.00
   30    2   12     -6.58      0.00
   31    2   12     12.01      0.00
   32    2   12     -2.87      0.00
   33    2   12     -7.34      0.00
   34    2   12      0.66      0.00
   35    2   12     -3.00      0.00
   36    2   12      2.56      0.00
   37    2   12     11.44      0.00
   38    2   12      7.59      0.00
   39    2   12     -4.52      0.00
   40    2   12     -8.29      0.00
   41    2   12     -5.20      0.00
   42    2   12     -0.15      0.00
   43    2   12     -4.34      0.00
   44    2   12      9.66      0.00
   45    2   12     14.00      0.00
   46    2   12     -9.07      0.00
   47    2   12     -4.75      0.00
   48    2   12     -1.73      0.00
   49    2   12     -2.38      0.00
   50    2   12      5.51      0.00
   51    2   12     -0.23      0.00
   52    2   12     -1.77      0.00
   53    2   12     -7.22      0.00
   54    2   12      4.13      0.00
   55    2   12      9.09      0.00
   56    2   12     -6.84      0.00
   57    2   12     -4.86      0.00
   58    2   12      2.59      0.00
   59    2   12     -2.60      0.00
   60    2   12      3.21      0.00
   61    2   12      4.00      0.00
   62    2   12    -11.96      0.00
   63    2   12      2.18      0.00
   64    2   12     13.48      0.00
   65    2   12    -11.08      0.00
   66    2   12      7.93      0.00
    1    3   12     -2.00      0.00
    2    3   12     10.47      0.00
    3    3   12      4.14      0.00
    4    3   12     -6.48      0.00
    5    3   12     -9.82      0.00
    6    3   12    -11.64      0.00
    7    3   12      4.72      0.00
    8    3   12      9.94      0.00
    9    3   12     -0.92      0.00
   10    3   12      7.01      0.00
   11    3   12     -0.70      0.00
   12    3   12    -15.32      0.00
   13    3   12      1.10      0.00
   14    3   12     12.14      0.00
   15    3   12     -7.31      0.00
   16    3   12     -7.89      0.00
   17    3   12      6.59      0.00
   18    3   12     -1.52      0.00
   19    3   12     -6.53      0.00
   20    3   12      8.36      0.00
   21    3   12      7.92      0.00
   22    3   12     -9.58      0.00
   23    3   12     -4.06      0.00
   24    3   12      7.78      0.00
   25    3   12     -2.26      0.00
   26    3   12     -2.23      0.00
   27    3   12      4.47      0.00
   28    3   12     -5.63      0.00
   29    3   12     -2.36      0.00
   30    3   12      7.67      0.00
   31    3   12      1.86      0.00
   32    3   12      4.88      0.00
   33    3   12      2.08      0.00
   34    3   12     -7.61      0.00
   35    3   12     -4.08      0.00
   36    3   12      0.47      0.00
   37    3   12     -1.14      0.00
   38    3   12      5.48      0.00
   39    3   12     15.36      0.00
   40    3   12     -2.48      0.00
   41    3   12    -12.52      0.00
   42    3   12      4.24      0.00
   43    3   12     -0.57      0.00
   44    3   12      1.50      0.00
   45    3   12      1.11      0.00
   46    3   12     -6.13      0.00
   47    3   12     -1.96      0.00
   48    3   12     10.81      0.00
   49    3   12      9.32      0.00
   50    3   12     -9.03      0.00
   51    3   12     -5.57      0.00
   52    3   12      7.76      0.00
   53    3   12      0.38      0.00
   54    3   12      4.31      0.00
   55    3   12     -5.54      0.00
   56    3   12     -8.23      0.00
   57    3   12      7.99      0.00
   58    3   12     10.84      0.00
   59    3   12     -7.86      0.00
   60    3   12     -0.28      0.00
   61    3   12     -6.04      0.00
   62    3   12     -9.04      0.00
   63    3   12     25.21      0.00
   64    3   12      5.90      0.00
   65    3   12    -13.34      0.00
    0    4   12      0.61      0.00
    1    4   12     -2.86      0.00
    2    4   12     -5.82      0.00
    3    4   12      5.62      0.00
    4    4   12      2.96      0.00
    5    4   12     -9.57      0.00
    6    4   12      0.98      0.00
    7    4   12     10.60      0.00
    8    4   12     -7.18      0.00
    9    4   12     -6.53      0.00
   10    4   12     -2.46      0.00
   11    4   12     -2.40      0.00
   12    4   12      9.44      0.00
   13    4   12      9.25      0.00
   14    4   12     -2.99      0.00
   15    4   12     -4.34      0.00
   16    4   12    -12.78      0.00
   17    4   12     -0.83      0.00
   18    4   12     14.97      0.00
   19    4   12     -2.31      0.00
   20    4   12     -7.41      0.00
   21    4   12      3.35      0.00
   22    4   12     -0.14      0.00
   23    4   12      2.85      0.00
   24    4   12      3.95      0.00
   25    4   12     -3.05      0.00
   26    4   12      0.05      0.00
   27    4   12      5.28      0.00
   28    4   12     -0.75      0.00
   29    4   12     -9.87      0.00
   30    4   12     -4.95      0.00
   31    4   12      6.40      0.00
   32    4   12      3.95      0.00
   33    4   12      3.28      0.00
   34    4   12      1.13      0.00
   35    4   12     -3.10      0.00
   36    4   12      1.87      0.00
   37    4   12     -7.80      0.00
   38    4   12     -7.21      0.00
   39    4   12     10.53      0.00
   40    4   12      5.59      0.00
   41    4   12     -1.82      0.00
   42    4   12     -0.83      0.00
   43    4   12     -1.08      0.00
   44    4   12     -2.81      0.00
   45    4   12     -4.93      0.00
   46    4   12      8.40      0.00
   47    4   12      2.95      0.00
   48    4   12     -9.22      0.00
   49    4   12     -4.22      0.00
   50    4   12     -0.01      0.00
   51    4   12      0.35      0.00
   52    4   12      3.12      0.00
   53    4   12      9.75      0.00
   54    4   12      0.59      0.00
   55    4   12    -11.09      0.00
   56    4   12     -0.64      0.00
   57    4   12      5.21      0.00
   58    4   12     -0.10      0.00
   59    4   12     -0.90      0.00
   60    4   12     -1.70      0.00
   61    4   12    -12.90      0.00
   62    4   12      3.66      0.00
   63    4   12     11.31      0.00
   64    4   12     -4.56      0.00
    1    5   12      4.66      0.00
    2    5   12    -10.06      0.00
    3    5   12     -3.51      0.00
    4    5   12      5.89      0.00
    5    5   12     -0.82      0.00
    6    5   12     -1.00      0.00
    7    5   12     10.61      0.00
    8    5   12     -1.64      0.00
    9    5   12     -5.67      0.00
   10    5   12      6.27      0.00
   11    5   12      0.39      0.00
   12    5   12      3.16      0.00
   13    5   12      3.18      0.00
   14    5   12     -2.42      0.00
   15    5   12      1.14      0.00
   16    5   12      2.94      0.00
   17    5   12      4.30      0.00
   18    5   12     -2.71      0.00
   19    5   12     -3.92      0.00
   20    5   12     -0.87      0.00
   21    5   12     -3.68      0.00
   22    5   12      6.88      0.00
   23    5   12      5.39      0.00
   24    5   12     -9.80      0.00
   25    5   12      3.62      0.00
   26    5   12      9.27      0.00
   27    5   12     -4.72      0.00
   28    5   12     -0.73      0.00
   29    5   12      2.25      0.00
   30    5   12     -3.73      0.00
   31    5   12     -5.20      0.00
   32    5   12     -4.23      0.00
   33    5   12      1.81      0.00
   34    5   12      6.96      0.00
   35    5   12      2.17      0.00
   36    5   12     -4.70      0.00
   37    5   12     -0.55      0.00
   38    5   12     -7.12      0.00
   39    5   12     -2.30      0.00
   40    5   12      9.00      0.00
   41    5   12     -3.35      0.00
   42    5   12     -4.08      0.00
   43    5   12      1.05      0.00
   44    5   12     -5.21      0.00
   45    5   12      7.15      0.00
   46    5   12      4.26      0.00
   47    5   12     -7.13      0.00
   48    5   12      1.02      0.00
   49    5   12     -1.85      0.00
   50    5   12     -5.13      0.00
   51    5   12      3.33      0.00
   52    5   12     -0.88      0.00
   53    5   12     -5.54      0.00
   54    5   12     -8.05      0.00
   55    5   12      0.32      0.00
   56    5   12     10.89      0.00
   57    5   12     10.44      0.00
   58    5   12      3.58      0.00
   59    5   12     -2.71      0.00
   60    5   12    -17.37      0.00
   61    5   12    -10.67      0.00
   62    5   12     11.22      0.00
    0    6   12      6.00      0.00
    1    6   12     13.43      0.00
    2    6   12      3.47      0.00
    3    6   12    -11.60      0.00
    4    6   12     -1.38      0.00
    5    6   12      6.21      0.00
    6    6   12     -3.83      0.00
    7    6   12     -3.55      0.00
    8    6   12      1.70      0.00
    9    6   12      3.05      0.00
   10    6   12     -4.30      0.00
   11    6   12      5.79      0.00
   12    6   12      4.69      0.00
   13    6   12    -15.14      0.00
   14    6   12      1.59      0.00
   15    6   12      9.89      0.00
   16    6   12      4.65      0.00
   17    6   12      1.41      0.00
   18    6   12     -9.93      0.00
   19    6   12      0.39      0.00
   20    6   12      2.05      0.00
   21    6   12     -5.32      0.00
   22    6   12      3.01      0.00
   23    6   12     -2.27      0.00
   24    6   12     -6.82      0.00
   25    6   12      7.48      0.00
   26    6   12      0.31      0.00
   27    6   12     -1.87      0.00
   28    6   12      4.46      0.00
   29    6   12      4.29      0.00
   30    6   12     -2.05      0.00
   31    6   12     -8.87      0.00
   32    6   12     -7.85      0.00
   33    6   12      8.21      0.00
   34    6   12     10.75      0.00
   35    6   12    -12.07      0.00
   36    6   12     -1.45      0.00
   37    6   12     11.93      0.00
   38    6   12     -8.08      0.00
   39    6   12      4.39      0.00
   40    6   12      1.58      0.00
   41    6   12     -6.46      0.00
   42    6   12      1.54      0.00
   43    6   12      0.11      0.00
   44    6   12      4.18      0.00
   45    6   12     -3.25      0.00
   46    6   12     -9.66      0.00
   47    6   12      8.88      0.00
   48    6   12      3.56      0.00
   49    6   12      1.80      0.00
   50    6   12     11.97      0.00
   51    6   12      3.29      0.00
   52    6   12     -9.18      0.00
   53    6   12     -6.52      0.00
   54    6   12    -10.18      0.00
   55    6   12     -3.90      0.00
   56    6   12     11.28      0.00
   57    6   12      9.43      0.00
   58    6   12     -0.56      0.00
   59    6   12      3.09      0.00
   60    6   12      2.20      0.00
    1    7   12      1.38      0.00
    2    7   12      3.88      0.00
    3    7   12      1.59      0.00
    4    7   12     -2.31      0.00
    5    7   12     -2.24      0.00
    6    7   12      6.68      0.00
    7    7   12     -3.88      0.00
    8    7   12     -7.66      0.00
    9    7   12      4.76      0.00
   10    7   12      2.18      0.00
   11    7   12      1.92      0.00
   12    7   12     -6.68      0.00
   13    7   12      0.24      0.00
   14    7   12      2.44      0.00
   15    7   12     -9.16      0.00
   16    7   12      3.31      0.00
   17    7   12      6.86      0.00
   18    7   12     -3.69      0.00
   19    7   12     -0.90      0.00
   20    7   12      3.08      0.00
   21    7   12      3.34      0.00
   22    7   12     -2.62      0.00
   23    7   12     -4.65      0.00
   24    7   12     -0.67      0.00
   25    7   12    -10.14      0.00
   26    7   12      0.25      0.00
   27    7   12     11.55      0.00
   28    7   12      1.24      0.00
   29    7   12     -1.42      0.00
   30    7   12      1.72      0.00
   31    7   12     -3.15      0.00
   32    7   12     -2.24      0.00
   33    7   12      5.19      0.00
   34    7   12     -7.99      0.00
   35    7   12     -9.47      0.00
   36    7   12     15.56      0.00
   37    7   12     -1.81      0.00
   38    7   12     -0.17      0.00
   39    7   12      3.19      0.00
   40    7   12    -15.46      0.00
   41    7   12      5.58      0.00
   42    7   12     10.02      0.00
   43    7   12      0.47      0.00
   44    7   12      8.83      0.00
   45    7   12     -8.40      0.00
   46    7   12    -14.84      0.00
   47    7   12     -1.79      0.00
   48    7   12      0.45      0.00
   49    7   12      0.27      0.00
   50    7   12     14.83      0.00
   51    7   12     11.29      0.00
   52    7   12     -8.72      0.00
   53    7   12     -0.68      0.00
   54    7   12      2.26      0.00
   55    7   12    -11.68      0.00
   56    7   12      0.62      0.00
   57    7   12      1.06      0.00
   58    7   12     -7.68      0.00
    0    8   12      4.03      0.00
    1    8   12      6.32      0.00
    2    8   12     -0.85      0.00
    3    8   12      5.90      0.00
    4    8   12     -1.18      0.00
    5    8   12    -10.42      0.00
    6    8   12      1.23      0.00
    7    8   12      1.51      0.00
    8    8   12     -0.58      0.00
    9    8   12      1.63      0.00
   10    8   12      6.88      0.00
   11    8   12     -1.88      0.00
   12    8   12     -4.74      0.00
   13    8   12      0.43      0.00
   14    8   12      2.62      0.00
   15    8   12      1.98      0.00
   16    8   12     -3.22      0.00
   17    8   12     -9.49      0.00
   18    8   12      9.08      0.00
   19    8   12      4.40      0.00
   20    8   12     -9.11      0.00
   21    8   12     -4.28      0.00
   22    8   12      6.56      0.00
   23    8   12      6.39      0.00
   24    8   12      7.65      0.00
   25    8   12     -0.59      0.00
   26    8   12    -16.22      0.00
   27    8   12    -14.30      0.00
   28    8   12      7.56      0.00
   29    8   12      4.25      0.00
   30    8   12      7.60      0.00
   31    8   12      5.44      0.00
   32    8   12     -4.44      0.00
   33    8   12     -5.22      0.00
   34    8   12     -2.20      0.00
   35    8   12      3.54      0.00
   36    8   12     -0.45      0.00
   37    8   12     -5.03      0.00
   38    8   12      6.43      0.00
   39    8   12     -0.88      0.00
   40    8   12     -3.40      0.00
   41    8   12     -4.35      0.00
   42    8   12     -1.47      0.00
   43    8   12      4.47      0.00
   44    8   12     -1.98      0.00
   45    8   12      1.35      0.00
   46    8   12      9.02      0.00
   47    8   12     -4.30      0.00
   48    8   12     -0.93      0.00
   49    8   12     -6.32      0.00
   50    8   12     -8.60      0.00
   51    8   12      1.98      0.00
   52    8   12      2.27      0.00
   53    8   12      6.91      0.00
   54    8   12      8.28      0.00
    1    9   12     -7.04      0.00
    2    9   12     -5.30      0.00
    3    9   12      5.38      0.00
    4    9   12     10.43      0.00
    5    9   12      4.37      0.00
    6    9   12     -5.18      0.00
    7    9   12    -11.74      0.00
    8    9   12      3.54      0.00
    9    9   12     -2.04      0.00
   10    9   12    -10.71      0.00
   11    9   12      6.09      0.00
   12    9   12      9.38      0.00
   13    9   12     -5.00      0.00
   14    9   12      4.17      0.00
   15    9   12      3.36      0.00
   16    9   12     -6.85      0.00
   17    9   12     -4.18      0.00
   18    9   12     -0.99      0.00
   19    9   12      5.90      0.00
   20    9   12      3.41      0.00
   21    9   12    -13.46      0.00
   22    9   12     -1.01      0.00
   23    9   12      9.51      0.00
   24    9   12      2.38      0.00
   25    9   12      8.70      0.00
   26    9   12      2.93      0.00
   27    9   12     -7.20      0.00
   28    9   12     -5.20      0.00
   29    9   12      2.30      0.00
   30    9   12     -8.53      0.00
   31    9   12     -2.79      0.00
   32    9   12     14.40      0.00
   33    9   12      4.81      0.00
   34    9   12     -2.48      0.00
   35    9   12      3.73      0.00
   36    9   12     -3.64      0.00
   37    9   12     -5.57      0.00
   38    9   12      5.63      0.00
   39    9   12     12.56      0.00
   40    9   12     -2.52      0.00
   41    9   12     -2.37      0.00
   42    9   12      5.93      0.00
   43    9   12     -6.99      0.00
   44    9   12    -12.12      0.00
   45    9   12      9.32      0.00
   46    9   12      2.43      0.00
   47    9   12     -2.03      0.00
   48    9   12     11.45      0.00
   49    9   12     -5.71      0.00
   50    9   12     -5.24      0.00
   51    9   12     13.28      0.00
    0   10   12     -1.69      0.00
    1   10   12    -15.81      0.00
    2   10   12     -2.46      0.00
    3   10   12     -6.05      0.00
    4   10   12     -0.65      0.00
    5   10   12     20.86      0.00
    6   10   12      1.84      0.00
    7   10   12    -11.80      0.00
    8   10   12      1.01      0.00
    9   10   12      0.73      0.00
   10   10   12     -0.97      0.00
   11   10   12     -0.61      0.00
   12   10   12    -10.61      0.00
   13   10   12      4.21      0.00
   14   10   12      2.13      0.00
   15   10   12     -4.05      0.00
   16   10   12     13.58      0.00
   17   10   12      6.42      0.00
   18   10   12    -19.24      0.00
   19   10   12      6.75      0.00
   20   10   12      6.87      0.00
   21   10   12    -15.70      0.00
   22   10   12     -1.84      0.00
   23   10   12      7.24      0.00
   24   10   12    -10.90      0.00
   25   10   12      6.05      0.00
   26   10   12     17.18      0.00
   27   10   12      0.83      0.00
   28   10   12      1.04      0.00
   29   10   12      2.46      0.00
   30   10   12    -15.63      0.00
   31   10   12     -5.35      0.00
   32   10   12      1.78      0.00
   33   10   12      8.70      0.00
   34   10   12      6.75      0.00
   35   10   12     -4.69      0.00
   36   10   12     -5.10      0.00
   37   10   12     -4.14      0.00
   38   10   12      0.02      0.00
   39   10   12     10.13      0.00
   40   10   12      6.13      0.00
   41   10   12      0.83      0.00
   42   10   12      0.55      0.00
   43   10   12     -3.89      0.00
   44   10   12     -4.06      0.00
   45   10   12      6.92      0.00
    1   11   12      6.17      0.00
    2   11   12     10.64      0.00
    3   11   12     -7.93      0.00
    4   11   12    -17.27      0.00
    5   11   12      1.92      0.00
    6   11   12      6.80      0.00
    7   11   12      4.09      0.00
    8   11   12      2.65      0.00
    9   11   12      4.23      0.00
   10   11   12      0.33      0.00
   11   11   12     -6.15      0.00
   12   11   12     -6.97      0.00
   13   11   12      2.21      0.00
   14   11   12      2.78      0.00
   15   11   12      0.80      0.00
   16   11   12     -2.06      0.00
   17   11   12     -0.49      0.00
   18   11   12     -1.73      0.00
   19   11   12      5.23      0.00
   20   11   12      8.53      0.00
   21   11   12      2.15      0.00
   22   11   12     -4.94      0.00
   23   11   12    -12.95      0.00
   24   11   12     -9.70      0.00
   25   11   12      3.02      0.00
   26   11   12      8.62      0.00
   27   11   12      3.36      0.00
   28   11   12     -8.02      0.00
   29   11   12     -1.21      0.00
   30   11   12     18.66      0.00
   31   11   12      0.38      0.00
   32   11   12     -7.79      0.00
   33   11   12     -5.23      0.00
   34   11   12    -17.02      0.00
   35   11   12      2.30      0.00
   36   11   12     15.38      0.00
   37   11   12     -7.42      0.00
   38   11   12     -1.81      0.00
   39   11   12     -2.06      0.00
   40   11   12     -9.56      0.00
    0   12   12     -3.65      0.00
    1   12   12     -0.60      0.00
    2   12   12      3.96      0.00
    3   12   12      5.60      0.00
    4   12   12     -0.99      0.00
    5   12   12     -6.80      0.00
    6   12   12      0.77      0.00
    7   12   12     -1.11      0.00
    8   12   12     -3.03      0.00
    9   12   12      6.74      0.00
   10   12   12     -0.84      0.00
   11   12   12      4.07      0.00
   12   12   12     13.17      0.00
   13   12   12    -10.96      0.00
   14   12   12     -9.44      0.00
   15   12   12      3.92      0.00
   16   12   12      4.17      0.00
   17   12   12      6.43      0.00
   18   12   12     -2.19      0.00
   19   12   12    -12.16      0.00
   20   12   12      2.39      0.00
   21   12   12      7.90      0.00
   22   12   12      4.09      0.00
   23   12   12      7.09      0.00
   24   12   12      2.52      0.00
   25   12   12    -15.11      0.00
   26   12   12      0.42      0.00
   27   12   12      3.34      0.00
   28   12   12    -14.14      0.00
   29   12   12     -3.55      0.00
   30   12   12     10.80      0.00
   31   12   12      7.24      0.00
   32   12   12     11.75      0.00
   33   12   12     -3.12      0.00
    1   13   12      3.26      0.00
    2   13   12    -10.22      0.00
    3   13   12     -2.55      0.00
    4   13   12     15.16      0.00
    5   13   12      0.60      0.00
    6   13   12     -9.20      0.00
    7   13   12     -2.44      0.00
    8   13   12      3.34      0.00
    9   13   12      4.34      0.00
   10   13   12      3.82      0.00
   11   13   12     -4.70      0.00
   12   13   12     -8.76      0.00
   13   13   12     -0.21      0.00
   14   13   12      6.76      0.00
   15   13   12     11.46      0.00
   16   13   12     11.45      0.00
   17   13   12    -13.02      0.00
   18   13   12    -15.63      0.00
   19   13   12      1.35      0.00
   20   13   12      6.99      0.00
   21   13   12      6.85      0.00
   22   13   12     -3.06      0.00
   23   13   12     -8.90      0.00
    1    0   13      3.84      0.00
    2    0   13     -7.93      0.00
    3    0   13     -4.14      0.00
    4    0   13      9.44      0.00
    5    0   13     -3.15      0.00
    6    0   13     -3.40      0.00
    7    0   13      6.99      0.00
    8    0   13     -7.21      0.00
    9    0   13    -15.49      0.00
   10    0   13      7.50      0.00
   11    0   13     15.28      0.00
   12    0   13     -7.45      0.00
   13    0   13     -0.44      0.00
   14    0   13     -1.45      0.00
   15    0   13    -16.76      0.00
   16    0   13      1.19      0.00
   17    0   13      8.93      0.00
   18    0   13    -13.12      0.00
   19    0   13      3.78      0.00
   20    0   13      3.91      0.00
   21    0   13     -2.34      0.00
   22    0   13     17.17      0.00
   23    0   13    -13.28      0.00
   24    0   13    -22.05      0.00
   25    0   13     11.28      0.00
   26    0   13      1.93      0.00
   27    0   13     -6.02      0.00
   28    0   13      6.10      0.00
   29    0   13     -1.17      0.00
   30    0   13     -5.92      0.00
   31    0   13      8.60      0.00
   32    0   13     -5.33      0.00
   33    0   13    -12.11      0.00
   34    0   13     10.37      0.00
   35    0   13      2.65      0.00
   36    0   13     -8.69      0.00
   37    0   13      3.34      0.00
   38    0   13      3.84      0.00
   39    0   13     -0.22      0.00
   40    0   13      5.28      0.00
   41    0   13      0.94      0.00
   42    0   13    -14.14      0.00
   43    0   13      1.02      0.00
   44    0   13      9.93      0.00
   45    0   13     -0.80      0.00
   46    0   13     -0.52      0.00
   47    0   13     -3.88      0.00
   48    0   13     -7.78      0.00
   49    0   13      9.20      0.00
   50    0   13      0.76      0.00
   51    0   13      3.07      0.00
   52    0   13     12.10      0.00
   53    0   13     -1.05      0.00
   54    0   13     -8.53      0.00
   55    0   13     -2.53      0.00
   56    0   13    -15.80      0.00
   57    0   13      0.96      0.00
   58    0   13     20.10      0.00
   59    0   13     -5.08      0.00
   60    0   13    -13.47      0.00
   61    0   13     12.16      0.00
   62    0   13     16.22      0.00
   63    0   13     -0.02      0.00
   64    0   13    -17.46      0.00
   65    0   13     -4.04      0.00
    0    1   13    -21.05      0.00
    1    1   13    -12.47      0.00
    2    1   13     15.26      0.00
    3    1   13      2.46      0.00
    4    1   13     -5.38      0.00
    5    1   13     14.91      0.00
    6    1   13     -5.63      0.00
    7    1   13    -12.68      0.00
    8    1   13     11.42      0.00
    9    1   13     -2.61      0.00
   10    1   13     -0.19      0.00
   11    1   13     10.01      0.00
   12    1   13    -13.81      0.00
   13    1   13     -5.93      0.00
   14    1   13     16.73      0.00
   15    1   13      7.38      0.00
   16    1   13      3.44      0.00
   17    1   13     -8.81      0.00
   18    1   13    -16.19      0.00
   19    1   13      8.32      0.00
   20    1   13      6.01      0.00
   21    1   13      4.43      0.00
   22    1   13      6.60      0.00
   23    1   13     -8.13      0.00
   24    1   13      2.62      0.00
   25    1   13      6.40      0.00
   26    1   13     -3.79      0.00
   27    1   13     -2.51      0.00
   28    1   13      4.23      0.00
   29    1   13     -2.05      0.00
   30    1   13      3.76      0.00
   31    1   13      5.80      0.00
   32    1   13     -4.07      0.00
   33    1   13      4.41      0.00
   34    1   13     -0.37      0.00
   35    1   13     -5.22      0.00
   36    1   13      3.67      0.00
   37    1   13     -4.89      0.00
   38    1   13      0.81      0.00
   39    1   13      6.07      0.00
   40    1   13     -1.63      0.00
   41    1   13     -2.78      0.00
   42    1   13      4.69      0.00
   43    1   13      2.25      0.00
   44    1   13     -1.29      0.00
   45    1   13     -0.47      0.00
   46    1   13     -2.33      0.00
   47    1   13     -0.98      0.00
   48    1   13      3.00      0.00
   49    1   13     -8.72      0.00
   50    1   13     -3.49      0.00
   51    1   13      2.59      0.00
   52    1   13      0.59      0.00
   53    1   13      2.43      0.00
   54    1   13      7.79      0.00
   55    1   13     -1.08      0.00
   56    1   13      0.86      0.00
   57    1   13     -1.95      0.00
   58    1   13    -15.51      0.00
   59    1   13     -4.98      0.00
   60    1   13      8.64      0.00
   61    1   13     -5.36      0.00
   62    1   13      5.76      0.00
   63    1   13      6.29      0.00
   64    1   13     -1.84      0.00
   65    1   13      0.92      0.00
   66    1   13     -0.26      0.00
    1    2   13      0.98      0.00
    2    2   13     17.43      0.00
    3    2   13     -6.28      0.00
    4    2   13    -19.03      0.00
    5    2   13     -1.52      0.00
    6    2   13      3.49      0.00
    7    2   13     12.32      0.00
    8    2   13      3.57      0.00
    9    2   13      0.53      0.00
   10    2   13      4.70      0.00
   11    2   13    -15.08      0.00
   12    2   13     -0.16      0.00
   13    2   13      9.57      0.00
   14    2   13    -12.20      0.00
   15    2   13      3.94      0.00
   16    2   13     16.72      0.00
   17    2   13    -14.07      0.00
   18    2   13     -0.53      0.00
   19    2   13      9.33      0.00
   20    2   13     -6.29      0.00
   21    2   13      8.40      0.00
   22    2   13     -1.28      0.00
   23    2   13     -7.94      0.00
   24    2   13      8.75      0.00
   25    2   13      1.19      0.00
   26    2   13     -5.40      0.00
   27    2   13      6.00      0.00
   28    2   13      1.28      0.00
   29    2   13    -10.12      0.00
   30    2   13      2.88      0.00
   31    2   13      4.57      0.00
   32    2   13      3.40      0.00
   33    2   13      2.01      0.00
   34    2   13     -4.64      0.00
   35    2   13      4.67      0.00
   36    2   13      4.81      0.00
   37    2   13      1.25      0.00
   38    2   13     -5.38      0.00
   39    2   13     -9.12      0.00
   40    2   13      1.56      0.00
   41    2   13      3.50      0.00
   42    2   13      4.75      0.00
   43    2   13     -4.42      0.00
   44    2   13     -0.66      0.00
   45    2   13      2.97      0.00
   46    2   13      0.19      0.00
   47    2   13      4.61      0.00
   48    2   13      3.09      0.00
   49    2   13     -2.85      0.00
   50    2   13     -2.42      0.00
   51    2   13     -1.36      0.00
   52    2   13     -2.67      0.00
   53    2   13     -7.02      0.00
   54    2   13      4.42      0.00
   55    2   13      1.18      0.00
   56    2   13      9.67      0.00
   57    2   13      4.53      0.00
   58    2   13    -11.43      0.00
   59    2   13      2.38      0.00
   60    2   13      9.37      0.00
   61    2   13     -9.25      0.00
   62    2   13    -10.93      0.00
   63    2   13      6.92      0.00
   64    2   13     10.09      0.00
   65    2   13     -2.46      0.00
    0    3   13     -1.69      0.00
    1    3   13      6.35      0.00
    2    3   13     -4.81      0.00
    3    3   13     -1.82      0.00
    4    3   13      7.50      0.00
    5    3   13    -12.30      0.00
    6    3   13     -2.70      0.00
    7    3   13      4.93      0.00
    8    3   13    -15.33      0.00
    9    3   13      8.59      0.00
   10    3   13      2.60      0.00
   11    3   13     -2.32      0.00
   12    3   13     17.66      0.00
   13    3   13     -2.70      0.00
   14    3   13    -15.94      0.00
   15    3   13     -2.86      0.00
   16    3   13     -8.47      0.00
   17    3   13      4.32      0.00
   18    3   13     14.30      0.00
   19    3   13     -8.06      0.00
   20    3   13     -3.45      0.00
   21    3   13      0.48      0.00
   22    3   13     -3.11      0.00
   23    3   13      9.13      0.00
   24    3   13     -0.99      0.00
   25    3   13     -0.10      0.00
   26    3   13      0.28      0.00
   27    3   13     -6.50      0.00
   28    3   13      4.93      0.00
   29    3   13      1.66      0.00
   30    3   13     -5.06      0.00
   31    3   13      3.84      0.00
   32    3   13     -5.43      0.00
   33    3   13    -11.48      0.00
   34    3   13     10.28      0.00
   35    3   13     10.24      0.00
   36    3   13     -1.70      0.00
   37    3   13      0.82      0.00
   38    3   13     -0.27      0.00
   39    3   13      1.44      0.00
   40    3   13     -4.77      0.00
   41    3   13     -0.66      0.00
   42    3   13      3.00      0.00
   43    3   13     -1.63      0.00
   44    3   13     -0.63      0.00
   45    3   13     -3.91      0.00
   46    3   13      0.51      0.00
   47    3   13      0.35      0.00
   48    3   13      4.52      0.00
   49    3   13      8.05      0.00
   50    3   13     -9.10      0.00
   51    3   13     -2.58      0.00
   52    3   13      5.42      0.00
   53    3   13      9.72      0.00
   54    3   13      1.25      0.00
   55    3   13    -15.49      0.00
   56    3   13     -8.49      0.00
   57    3   13      3.12      0.00
   58    3   13      8.51      0.00
   59    3   13      7.71      0.00
   60    3   13      0.78      0.00
   61    3   13     -3.77      0.00
   62    3   13    -10.65      0.00
   63    3   13     -1.29      0.00
   64    3   13     10.48      0.00
    1    4   13     -0.56      0.00
    2    4   13     -7.23      0.00
    3    4   13     10.89      0.00
    4    4   13      6.42      0.00
    5    4   13     -8.60      0.00
    6    4   13      4.30      0.00
    7    4   13     -3.37      0.00
    8    4   13     -3.14      0.00
    9    4   13      4.32      0.00
   10    4   13     -4.28      0.00
   11    4   13      3.55      0.00
   12    4   13      4.86      0.00
   13    4   13      3.20      0.00
   14    4   13      4.13      0.00
   15    4   13     -4.97      0.00
   16    4   13      1.92      0.00
   17    4   13      6.95      0.00
   18    4   13     -7.20      0.00
   19    4   13     -5.58      0.00
   20    4   13     -0.97      0.00
   21    4   13     -0.12      0.00
   22    4   13     17.37      0.00
   23    4   13     -2.70      0.00
   24    4   13    -14.75      0.00
   25    4   13     10.90      0.00
   26    4   13     -3.96      0.00
   27    4   13     -5.97      0.00
   28    4   13     10.01      0.00
   29    4   13      4.57      0.00
   30    4   13      1.05      0.00
   31    4   13     -9.11      0.00
   32    4   13     -6.25      0.00
   33    4   13      1.16      0.00
   34    4   13      0.89      0.00
   35    4   13      7.86      0.00
   36    4   13     -7.77      0.00
   37    4   13    -12.11      0.00
   38    4   13      8.63      0.00
   39    4   13      5.92      0.00
   40    4   13     -2.25      0.00
   41    4   13      4.51      0.00
   42    4   13     -6.51      0.00
   43    4   13     -5.83      0.00
   44    4   13      2.60      0.00
   45    4   13      0.04      0.00
   46    4   13     -1.54      0.00
   47    4   13      1.79      0.00
   48    4   13      2.73      0.00
   49    4   13     -7.52      0.00
   50    4   13     -7.92      0.00
   51    4   13      3.53      0.00
   52    4   13     -3.00      0.00
   53    4   13      5.20      0.00
   54    4   13      8.88      0.00
   55    4   13      0.06      0.00
   56    4   13    -12.56      0.00
   57    4   13     -5.44      0.00
   58    4   13     11.10      0.00
   59    4   13     -0.20      0.00
   60    4   13     -6.86      0.00
   61    4   13      3.71      0.00
   62    4   13     -5.89      0.00
   63    4   13     -4.80      0.00
    0    5   13      3.79      0.00
    1    5   13      5.68      0.00
    2    5   13      1.44      0.00
    3    5   13     -3.59      0.00
    4    5   13      1.11      0.00
    5    5   13      2.48      0.00
    6    5   13      1.03      0.00
    7    5   13      1.68      0.00
    8    5   13      3.90      0.00
    9    5   13     -5.14      0.00
   10    5   13     -0.07      0.00
   11    5   13      5.26      0.00
   12    5   13     -4.82      0.00
   13    5   13     -3.84      0.00
   14    5   13      5.99      0.00
   15    5   13      7.18      0.00
   16    5   13      5.89      0.00
   17    5   13     -7.85      0.00
   18    5   13     -8.58      0.00
   19    5   13      6.75      0.00
   20    5   13     -5.97      0.00
   21    5   13     -1.88      0.00
   22    5   13     12.84      0.00
   23    5   13     -6.08      0.00
   24    5   13     -1.01      0.00
   25    5   13      2.57      0.00
   26    5   13     -7.77      0.00
   27    5   13      1.93      0.00
   28    5   13     -3.19      0.00
   29    5   13      5.94      0.00
   30    5   13     -0.67      0.00
   31    5   13     -9.71      0.00
   32    5   13      8.27      0.00
   33    5   13      3.23      0.00
   34    5   13     -4.19      0.00
   35    5   13     -6.63      0.00
   36    5   13      1.83      0.00
   37    5   13      5.21      0.00
   38    5   13     -4.62      0.00
   39    5   13      2.94      0.00
   40    5   13     -2.49      0.00
   41    5   13     -3.94      0.00
   42    5   13     -0.08      0.00
   43    5   13     -1.33      0.00
   44    5   13      2.85      0.00
   45    5   13      1.72      0.00
   46    5   13      0.09      0.00
   47    5   13      7.21      0.00
   48    5   13     -1.88      0.00
   49    5   13    -10.97      0.00
   50    5   13      6.59      0.00
   51    5   13      3.38      0.00
   52    5   13     -3.43      0.00
   53    5   13      5.06      0.00
   54    5   13     -6.88      0.00
   55    5   13     -2.08      0.00
   56    5   13      0.51      0.00
   57    5   13     -2.17      0.00
   58    5   13      7.72      0.00
   59    5   13      7.19      0.00
   60    5   13      3.41      0.00
   61    5   13     -2.28      0.00
    1    6   13      4.37      0.00
    2    6   13      9.45      0.00
    3    6   13     -6.16      0.00
    4    6   13    -10.43      0.00
    5    6   13      1.85      0.00
    6    6   13      4.78      0.00
    7    6   13     -7.05      0.00
    8    6   13      2.24      0.00
    9    6   13      6.38      0.00
   10    6   13     -5.42      0.00
   11    6   13     -2.43      0.00
   12    6   13     -2.41      0.00
   13    6   13      0.66      0.00
   14    6   13     -5.82      0.00
   15    6   13     -2.09      0.00
   16    6   13     11.59      0.00
   17    6   13     -2.07      0.00
   18    6   13     -2.33      0.00
   19    6   13      3.38      0.00
   20    6   13     -5.04      0.00
   21    6   13     -5.60      0.00
   22    6   13     -7.40      0.00
   23    6   13      4.84      0.00
   24    6   13      8.33      0.00
   25    6   13     -6.83      0.00
   26    6   13     10.07      0.00
   27    6   13     -0.28      0.00
   28    6   13    -13.26      0.00
   29    6   13     -0.63      0.00
   30    6   13      3.55      0.00
   31    6   13      8.76      0.00
   32    6   13     -2.81      0.00
   33    6   13     -5.30      0.00
   34    6   13     -3.15      0.00
   35    6   13     -4.51      0.00
   36    6   13     15.31      0.00
   37    6   13     -0.48      0.00
   38    6   13     -4.08      0.00
   39    6   13      0.57      0.00
   40    6   13      0.36      0.00
   41    6   13      9.35      0.00
   42    6   13     -2.67      0.00
   43    6   13     -9.20      0.00
   44    6   13      2.56      0.00
   45    6   13      0.44      0.00
   46    6   13      0.07      0.00
   47    6   13      1.95      0.00
   48    6   13     -2.86      0.00
   49    6   13      4.83      0.00
   50    6   13      9.63      0.00
   51    6   13     -6.87      0.00
   52    6   13      4.99      0.00
   53    6   13      4.91      0.00
   54    6   13     -5.18      0.00
   55    6   13     -0.49      0.00
   56    6   13     -4.87      0.00
   57    6   13     -7.07      0.00
   58    6   13      6.41      0.00
   59    6   13      8.63      0.00
    0    7   13     12.05      0.00
    1    7   13      6.65      0.00
    2    7   13     -6.33      0.00
    3    7   13      1.88      0.00
    4    7   13     -6.56      0.00
    5    7   13      0.17      0.00
    6    7   13      8.83      0.00
    7    7   13     -5.90      0.00
    8    7   13      1.48      0.00
    9    7   13      0.65      0.00
   10    7   13     -3.01      0.00
   11    7   13     -2.43      0.00
   12    7   13      9.85      0.00
   13    7   13      5.20      0.00
   14    7   13    -10.84      0.00
   15    7   13     -3.57      0.00
   16    7   13     -9.02      0.00
   17    7   13     -0.31      0.00
   18    7   13     20.88      0.00
   19    7   13     -2.52      0.00
   20    7   13     -1.31      0.00
   21    7   13      0.20      0.00
   22    7   13     -5.70      0.00
   23    7   13      1.29      0.00
   24    7   13     -3.44      0.00
   25    7   13     -0.73      0.00
   26    7   13      5.31      0.00
   27    7   13     -1.67      0.00
   28    7   13      2.52      0.00
   29    7   13     -3.18      0.00
   30    7   13      2.13      0.00
   31    7   13      1.41      0.00
   32    7   13     -2.95      0.00
   33    7   13      5.29      0.00
   34    7   13     -0.28      0.00
   35    7   13     -3.51      0.00
   36    7   13     -6.05      0.00
   37    7   13     -1.65      0.00
   38    7   13     12.00      0.00
   39    7   13     -5.91      0.00
   40    7   13     -5.24      0.00
   41    7   13      9.03      0.00
   42    7   13     -2.64      0.00
   43    7   13     -2.39      0.00
   44    7   13     10.39      0.00
   45    7   13     -3.51      0.00
   46    7   13     -6.59      0.00
   47    7   13      1.60      0.00
   48    7   13     -6.47      0.00
   49    7   13     -9.61      0.00
   50    7   13      3.56      0.00
   51    7   13      6.76      0.00
   52    7   13      6.40      0.00
   53    7   13      7.19      0.00
   54    7   13     -4.21      0.00
   55    7   13    -11.45      0.00
   56    7   13     -3.29      0.00
    1    8   13     -5.06      0.00
    2    8   13      7.61      0.00
    3    8   13      4.32      0.00
    4    8   13     -2.72      0.00
    5    8   13      4.12      0.00
    6    8   13     -7.84      0.00
    7    8   13     -8.78      0.00
    8    8   13      3.08      0.00
    9    8   13      2.93      0.00
   10    8   13      1.13      0.00
   11    8   13      0.70      0.00
   12    8   13      8.39      0.00
   13    8   13     -6.20      0.00
   14    8   13     -1.00      0.00
   15    8   13      8.37      0.00
   16    8   13     -8.71      0.00
   17    8   13     -3.47      0.00
   18    8   13     -2.44      0.00
   19    8   13      1.32      0.00
   20    8   13      1.45      0.00
   21    8   13      0.72      0.00
   22    8   13     10.10      0.00
   23    8   13     -0.43      0.00
   24    8   13     -3.85      0.00
   25    8   13      1.19      0.00
   26    8   13     -6.63      0.00
   27    8   13      5.19      0.00
   28    8   13      0.76      0.00
   29    8   13     -6.15      0.00
   30    8   13      4.95      0.00
   31    8   13      4.55      0.00
   32    8   13     -9.35      0.00
   33    8   13      0.23      0.00
   34    8   13      8.27      0.00
   35    8   13      8.55      0.00
   36    8   13     -2.53      0.00
   37    8   13     -6.29      0.00
   38    8   13      2.14      0.00
   39    8   13     -5.13      0.00
   40    8   13     -7.51      0.00
   41    8   13     13.19      0.00
   42    8   13      4.28      0.00
   43    8   13     -8.04      0.00
   44    8   13     -1.47      0.00
   45    8   13      6.00      0.00
   46    8   13      0.01      0.00
   47    8   13      4.99      0.00
   48    8   13     -0.29      0.00
   49    8   13    -11.74      0.00
   50    8   13     -1.04      0.00
   51    8   13      3.93      0.00
   52    8   13      0.90      0.00
   53    8   13     -1.38      0.00
    0    9   13      4.41      0.00
    1    9   13    -12.33      0.00
    2    9   13     -5.10      0.00
    3    9   13      1.21      0.00
    4    9   13     -1.06      0.00
    5    9   13      6.21      0.00
    6    9   13      1.38      0.00
    7    9   13     -0.13      0.00
    8    9   13     -4.87      0.00
    9    9   13     -4.23      0.00
   10    9   13     -4.72      0.00
   11    9   13      4.07      0.00
   12    9   13     -5.29      0.00
   13    9   13      0.05      0.00
   14    9   13      9.98      0.00
   15    9   13      3.15      0.00
   16    9   13      5.70      0.00
   17    9   13     -8.18      0.00
   18    9   13    -17.34      0.00
   19    9   13     12.20      0.00
   20    9   13     -0.98      0.00
   21    9   13     -5.16      0.00
   22    9   13     -2.46      0.00
   23    9   13      1.03      0.00
   24    9   13     13.36      0.00
   25    9   13      5.60      0.00
   26    9   13     -7.27      0.00
   27    9   13      0.23      0.00
   28    9   13      0.45      0.00
   29    9   13     -3.66      0.00
   30    9   13      0.02      0.00
   31    9   13      1.82      0.00
   32    9   13      0.20      0.00
   33    9   13     -3.07      0.00
   34    9   13     -4.09      0.00
   35    9   13     14.48      0.00
   36    9   13     -1.54      0.00
   37    9   13     -5.42      0.00
   38    9   13     12.05      0.00
   39    9   13     -7.97      0.00
   40    9   13     -1.32      0.00
   41    9   13     10.90      0.00
   42    9   13     -8.21      0.00
   43    9   13     -1.96      0.00
   44    9   13      6.85      0.00
   45    9   13     -5.27      0.00
   46    9   13     -0.39      0.00
   47    9   13     11.00      0.00
   48    9   13     -7.64      0.00
   49    9   13     -0.45      0.00
    1   10   13      1.02      0.00
    2   10   13      2.37      0.00
    3   10   13      1.73      0.00
    4   10   13      1.31      0.00
    5   10   13     -2.41      0.00
    6   10   13     -3.64      0.00
    7   10   13      2.85      0.00
    8   10   13      3.18      0.00
    9   10   13      1.51      0.00
   10   10   13     -2.89      0.00
   11   10   13     -5.54      0.00
   12   10   13      0.48      0.00
   13   10   13      8.20      0.00
   14   10   13     -8.72      0.00
   15   10   13     -1.44      0.00
   16   10   13      8.80      0.00
   17   10   13     -1.81      0.00
   18   10   13     12.49      0.00
   19   10   13     -2.05      0.00
   20   10   13    -12.35      0.00
   21   10   13      6.80      0.00
   22   10   13    -11.53      0.00
   23   10   13    -18.34      0.00
   24   10   13     14.36      0.00
   25   10   13     14.96      0.00
   26   10   13     -5.18      0.00
   27   10   13      0.13      0.00
   28   10   13      9.41      0.00
   29   10   13     -3.24      0.00
   30   10   13     -5.44      0.00
   31   10   13     -8.48      0.00
   32   10   13      0.72      0.00
   33   10   13     -0.33      0.00
   34   10   13      0.90      0.00
   35   10   13      6.29      0.00
   36   10   13     -0.24      0.00
   37   10   13     -7.05      0.00
   38   10   13    -13.33      0.00
   39   10   13      0.29      0.00
   40   10   13     17.56      0.00
   41   10   13     -0.22      0.00
   42   10   13     -1.09      0.00
   43   10   13     -2.72      0.00
   44   10   13     -7.55      0.00
   45   10   13     -0.35      0.00
    0   11   13     -8.95      0.00
    1   11   13     -2.55      0.00
    2   11   13      5.12      0.00
    3   11   13      3.72      0.00
    4   11   13      1.30      0.00
    5   11   13     -1.74      0.00
    6   11   13      4.38      0.00
    7   11   13     -2.51      0.00
    8   11   13     -3.91      0.00
    9   11   13      8.88      0.00
   10   11   13      8.43      0.00
   11   11   13     -7.80      0.00
   12   11   13     -1.80      0.00
   13   11   13     -6.95      0.00
   14   11   13     -7.14      0.00
   15   11   13      9.49      0.00
   16   11   13     10.53      0.00
   17   11   13      0.73      0.00
   18   11   13     -4.93      0.00
   19   11   13     -3.84      0.00
   20   11   13     14.82      0.00
   21   11   13      7.16      0.00
   22   11   13     -6.31      0.00
   23   11   13    -17.65      0.00
   24   11   13     -8.62      0.00
   25   11   13     12.12      0.00
   26   11   13      7.84      0.00
   27   11   13     -6.25      0.00
   28   11   13     -5.37      0.00
   29   11   13     -0.71      0.00
   30   11   13     10.01      0.00
   31   11   13      7.85      0.00
   32   11   13     -8.34      0.00
   33   11   13     -5.98      0.00
   34   11   13      3.50      0.00
   35   11   13     -9.98      0.00
   36   11   13      2.83      0.00
   37   11   13     13.12      0.00
   38   11   13    -13.04      0.00
   39   11   13     -5.54      0.00
    1   12   13      0.92      0.00
    2   12   13    -14.50      0.00
    3   12   13      1.59      0.00
    4   12   13      5.79      0.00
    5   12   13     -6.60      0.00
    6   12   13     12.15      0.00
    7   12   13      3.48      0.00
    8   12   13    -18.97      0.00
    9   12   13     -0.39      0.00
   10   12   13     18.24      0.00
   11   12   13      7.42      0.00
   12   12   13     -4.30      0.00
   13   12   13      0.12      0.00
   14   12   13     -0.94      0.00
   15   12   13    -16.98      0.00
   16   12   13      0.48      0.00
   17   12   13      4.48      0.00
   18   12   13     -3.07      0.00
   19   12   13     19.06      0.00
   20   12   13      2.67      0.00
   21   12   13    -13.50      0.00
   22   12   13      7.84      0.00
   23   12   13     -0.44      0.00
   24   12   13     -7.21      0.00
   25   12   13      6.44      0.00
   26   12   13     -1.12      0.00
   27   12   13      2.59      0.00
   28   12   13      1.26      0.00
   29   12   13    -13.75      0.00
   30   12   13     -0.63      0.00
   31   12   13     12.05      0.00
    0   13   13     23.79      0.00
    1   13   13      7.93      0.00
    2   13   13    -13.84      0.00
    3   13   13      3.20      0.00
    4   13   13     -1.82      0.00
    5   13   13     -3.46      0.00
    6   13   13      8.74      0.00
    7   13   13     -4.29      0.00
    8   13   13    -10.12      0.00
    9   13   13     -2.00      0.00
   10   13   13      4.52      0.00
   11   13   13      4.33      0.00
   12   13   13     -3.14      0.00
   13   13   13      3.66      0.00
   14   13   13      3.64      0.00
   15   13   13      2.16      0.00
   16   13   13     -2.96      0.00
   17   13   13    -13.54      0.00
   18   13   13     -1.60      0.00
   19   13   13      0.96      0.00
   20   13   13     -0.56      0.00
    0    0   14    -24.08      0.00
    1    0   14     15.84      0.00
    2    0   14      9.49      0.00
    3    0   14     -5.16      0.00
    4    0   14      9.43      0.00
    5    0   14     -6.29      0.00
    6    0   14    -13.32      0.00
    7    0   14      1.34      0.00
    8    0   14      6.51      0.00
    9    0   14     10.55      0.00
   10    0   14      4.04      0.00
   11    0   14    -12.02      0.00
   12    0   14     -2.32      0.00
   13    0   14      0.79      0.00
   14    0   14      0.94      0.00
   15    0   14      9.11      0.00
   16    0   14     -5.70      0.00
   17    0   14    -15.66      0.00
   18    0   14      6.87      0.00
   19    0   14      5.89      0.00
   20    0   14     -2.47      0.00
   21    0   14     12.84      0.00
   22    0   14     -4.05      0.00
   23    0   14     -9.43      0.00
   24    0   14     13.56      0.00
   25    0   14     -4.43      0.00
   26    0   14     -3.65      0.00
   27    0   14      4.58      0.00
   28    0   14     -9.02      0.00
   29    0   14     -3.50      0.00
   30    0   14     15.54      0.00
   31    0   14      8.25      0.00
   32    0   14     -8.20      0.00
   33    0   14      3.88      0.00
   34    0   14     -3.21      0.00
   35    0   14    -10.37      0.00
   36    0   14      9.14      0.00
   37    0   14     -3.31      0.00
   38    0   14      1.48      0.00
   39    0   14     10.15      0.00
   40    0   14     -5.55      0.00
   41    0   14     -3.39      0.00
   42    0   14      4.93      0.00
   43    0   14     -6.87      0.00
   44    0   14     -1.05      0.00
   45    0   14     14.72      0.00
   46    0   14     -0.37      0.00
   47    0   14    -15.37      0.00
   48    0   14      1.43      0.00
   49    0   14     -2.83      0.00
   50    0   14      5.05      0.00
   51    0   14      5.88      0.00
   52    0   14      0.34      0.00
   53    0   14     -3.77      0.00
   54    0   14     -1.26      0.00
   55    0   14     -0.24      0.00
   56    0   14     -7.86      0.00
   57    0   14      1.40      0.00
   58    0   14      5.02      0.00
   59    0   14    -10.14      0.00
   60    0   14     11.23      0.00
   61    0   14      3.06      0.00
   62    0   14     -6.60      0.00
   63    0   14      1.02      0.00
   64    0   14     -5.22      0.00
   65    0   14     -1.51      0.00
    1    1   14      2.61      0.00
    2    1   14     -2.66      0.00
    3    1   14     -3.74      0.00
    4    1   14     -0.03      0.00
    5    1   14      2.46      0.00
    6    1   14      2.51      0.00
    7    1   14     -2.98      0.00
    8    1   14      1.88      0.00
    9    1   14      1.08      0.00
   10    1   14     -4.93      0.00
   11    1   14      3.44      0.00
   12    1   14      8.49      0.00
   13    1   14     -1.69      0.00
   14    1   14      3.29      0.00
   15    1   14      7.50      0.00
   16    1   14     -3.72      0.00
   17    1   14     -8.26      0.00
   18    1   14      7.85      0.00
   19    1   14      2.95      0.00
   20    1   14     -2.92      0.00
   21    1   14      4.37      0.00
   22    1   14     -3.10      0.00
   23    1   14      1.12      0.00
   24    1   14      9.12      0.00
   25    1   14      4.85      0.00
   26    1   14     -3.09      0.00
   27    1   14     -2.07      0.00
   28    1   14     -1.82      0.00
   29    1   14     -4.75      0.00
   30    1   14     10.73      0.00
   31    1   14      3.94      0.00
   32    1   14     -3.10      0.00
   33    1   14      2.17      0.00
   34    1   14     -3.63      0.00
   35    1   14      6.98      0.00
   36    1   14      1.39      0.00
   37    1   14    -11.03      0.00
   38    1   14      0.23      0.00
   39    1   14      2.31      0.00
   40    1   14      0.28      0.00
   41    1   14      1.90      0.00
   42    1   14      1.74      0.00
   43    1   14     -3.95      0.00
   44    1   14      0.60      0.00
   45    1   14      2.23      0.00
   46    1   14     -1.80      0.00
   47    1   14      0.18      0.00
   48    1   14      1.25      0.00
   49    1   14     -2.46      0.00
   50    1   14     -8.44      0.00
   51    1   14      0.44      0.00
   52    1   14      7.25      0.00
   53    1   14     -9.00      0.00
   54    1   14      8.66      0.00
   55    1   14     11.60      0.00
   56    1   14     -8.76      0.00
   57    1   14     -9.71      0.00
   58    1   14     -4.36      0.00
   59    1   14     10.03      0.00
   60    1   14      0.84      0.00
   61    1   14    -14.26      0.00
   62    1   14     10.05      0.00
   63    1   14      8.88      0.00
   64    1   14     -9.91      0.00
    0    2   14      9.54      0.00
    1    2   14     -2.85      0.00
    2    2   14     -9.20      0.00
    3    2   14      9.96      0.00
    4    2   14     -3.85      0.00
    5    2   14     -9.29      0.00
    6    2   14     15.01      0.00
    7    2   14      3.76      0.00
    8    2   14    -14.52      0.00
    9    2   14     -4.33      0.00
   10    2   14     -0.73      0.00
   11    2   14      7.41      0.00
   12    2   14      7.50      0.00
   13    2   14     -6.06      0.00
   14    2   14    -12.56      0.00
   15    2   14      0.47      0.00
   16    2   14      3.00      0.00
   17    2   14      8.92      0.00
   18    2   14      8.52      0.00
   19    2   14    -12.04      0.00
   20    2   14     -6.86      0.00
   21    2   14      2.32      0.00
   22    2   14     -1.54      0.00
   23    2   14      5.55      0.00
   24    2   14      6.64      0.00
   25    2   14     -6.84      0.00
   26    2   14     -7.75      0.00
   27    2   14      4.82      0.00
   28    2   14     -3.30      0.00
   29    2   14      3.39      0.00
   30    2   14      4.27      0.00
   31    2   14    -10.02      0.00
   32    2   14     -0.93      0.00
   33    2   14      2.67      0.00
   34    2   14      4.42      0.00
   35    2   14      7.27      0.00
   36    2   14      2.56      0.00
   37    2   14     -2.90      0.00
   38    2   14     -9.98      0.00
   39    2   14     -5.93      0.00
   40    2   14     -0.33      0.00
   41    2   14      9.20      0.00
   42    2   14      5.76      0.00
   43    2   14      0.00      0.00
   44    2   14     -9.40      0.00
   45    2   14     -4.91      0.00
   46    2   14      7.75      0.00
   47    2   14      6.67      0.00
   48    2   14     10.18      0.00
   49    2   14     -6.42      0.00
   50    2   14    -18.10      0.00
   51    2   14     12.74      0.00
   52    2   14      1.57      0.00
   53    2   14     -5.58      0.00
   54    2   14     -5.21      0.00
   55    2   14     -3.31      0.00
   56    2   14     15.72      0.00
   57    2   14      8.13      0.00
   58    2   14     -4.06      0.00
   59    2   14      1.06      0.00
   60    2   14    -10.93      0.00
   61    2   14     -2.45      0.00
   62    2   14      7.41      0.00
   63    2   14     -3.07      0.00
   64    2   14     -0.85      0.00
    1    3   14     -8.53      0.00
    2    3   14    -10.01      0.00
    3    3   14     15.18      0.00
    4    3   14     -1.86      0.00
    5    3   14     -5.68      0.00
    6    3   14     10.12      0.00
    7    3   14     -1.31      0.00
    8    3   14     -5.90      0.00
    9    3   14     -4.41      0.00
   10    3   14      5.22      0.00
   11    3   14      6.35      0.00
   12    3   14      0.63      0.00
   13    3   14     -0.51      0.00
   14    3   14     -6.92      0.00
   15    3   14     -3.21      0.00
   16    3   14      2.41      0.00
   17    3   14      2.18      0.00
   18    3   14     -0.51      0.00
   19    3   14     -0.41      0.00
   20    3   14     -1.40      0.00
   21    3   14      1.20      0.00
   22    3   14      5.85      0.00
   23    3   14     -5.54      0.00
   24    3   14     -2.01      0.00
   25    3   14      1.56      0.00
   26    3   14     -2.32      0.00
   27    3   14      4.63      0.00
   28    3   14      1.30      0.00
   29    3   14     -1.27      0.00
   30    3   14     -0.50      0.00
   31    3   14     -5.78      0.00
   32    3   14     -5.23      0.00
   33    3   14      5.94      0.00
   34    3   14     -1.26      0.00
   35    3   14     -6.35      0.00
   36    3   14      9.55      0.00
   37    3   14      9.54      0.00
   38    3   14     -3.67      0.00
   39    3   14     -8.94      0.00
   40    3   14     -2.20      0.00
   41    3   14      1.23      0.00
   42    3   14      0.77      0.00
   43    3   14      4.42      0.00
   44    3   14     -7.21      0.00
   45    3   14     -2.73      0.00
   46    3   14      0.27      0.00
   47    3   14      3.36      0.00
   48    3   14      2.53      0.00
   49    3   14     -4.04      0.00
   50    3   14     11.84      0.00
   51    3   14     -5.99      0.00
   52    3   14    -13.94      0.00
   53    3   14     14.28      0.00
   54    3   14     -4.88      0.00
   55    3   14     -3.26      0.00
   56    3   14      2.26      0.00
   57    3   14    -11.02      0.00
   58    3   14      0.05      0.00
   59    3   14      8.04      0.00
   60    3   14      9.03      0.00
   61    3   14      9.60      0.00
   62    3   14    -11.97      0.00
   63    3   14    -19.07      0.00
    0    4   14      3.05      0.00
    1    4   14      7.90      0.00
    2    4   14      3.33      0.00
    3    4   14     -6.71      0.00
    4    4   14      7.40      0.00
    5    4   14      8.90      0.00
    6    4   14    -11.16      0.00
    7    4   14     -3.32      0.00
    8    4   14      3.11      0.00
    9    4   14      0.26      0.00
   10    4   14     10.16      0.00
   11    4   14     -1.77      0.00
   12    4   14      0.76      0.00
   13    4   14     -0.44      0.00
   14    4   14     -1.80      0.00
   15    4   14      6.31      0.00
   16    4   14     -0.26      0.00
   17    4   14     -5.28      0.00
   18    4   14      1.02      0.00
   19    4   14      5.09      0.00
   20    4   14     -4.76      0.00
   21    4   14      0.99      0.00
   22    4   14      6.31      0.00
   23    4   14     -6.58      0.00
   24    4   14      0.90      0.00
   25    4   14      4.79      0.00
   26    4   14     -5.80      0.00
   27    4   14     -7.63      0.00
   28    4   14      1.83      0.00
   29    4   14      7.91      0.00
   30    4   14     -3.95      0.00
   31    4   14      2.59      0.00
   32    4   14      5.50      0.00
   33    4   14    -11.52      0.00
   34    4   14     -4.36      0.00
   35    4   14      3.19      0.00
   36    4   14     -2.03      0.00
   37    4   14      2.71      0.00
   38    4   14      2.41      0.00
   39    4   14     -6.18      0.00
   40    4   14     -1.51      0.00
   41    4   14      1.83      0.00
   42    4   14     -1.69      0.00
   43    4   14      0.49      0.00
   44    4   14      3.41      0.00
   45    4   14     -3.32      0.00
   46    4   14     -2.33      0.00
   47    4   14      0.45      0.00
   48    4   14     -9.08      0.00
   49    4   14      9.43      0.00
   50    4   14     14.08      0.00
   51    4   14    -21.31      0.00
   52    4   14     -1.53      0.00
   53    4   14     10.22      0.00
   54    4   14     -0.29      0.00
   55    4   14      8.54      0.00
   56    4   14     -6.66      0.00
   57    4   14    -11.79      0.00
   58    4   14     -3.71      0.00
   59    4   14      3.82      0.00
   60    4   14     13.81      0.00
   61    4   14      0.16      0.00
   62    4   14     -2.38      0.00
    1    5   14     -0.25      0.00
    2    5   14     -0.28      0.00
    3    5   14     -3.35      0.00
    4    5   14      4.63      0.00
    5    5   14      6.50      0.00
    6    5   14     -5.46      0.00
    7    5   14     -7.05      0.00
    8    5   14      6.50      0.00
    9    5   14      8.03      0.00
   10    5   14    -15.08      0.00
   11    5   14     -4.20      0.00
   12    5   14      7.68      0.00
   13    5   14     -1.19      0.00
   14    5   14      1.90      0.00
   15    5   14     -2.09      0.00
   16    5   14     -2.84      0.00
   17    5   14     -0.95      0.00
   18    5   14     -1.65      0.00
   19    5   14      1.18      0.00
   20    5   14     -4.77      0.00
   21    5   14     -3.63      0.00
   22    5   14      3.29      0.00
   23    5   14      9.27      0.00
   24    5   14      0.13      0.00
   25    5   14    -10.77      0.00
   26    5   14      7.49      0.00
   27    5   14     -1.85      0.00
   28    5   14    -13.05      0.00
   29    5   14     -0.27      0.00
   30    5   14      5.02      0.00
   31    5   14      5.19      0.00
   32    5   14      1.96      0.00
   33    5   14     -4.02      0.00
   34    5   14     -8.33      0.00
   35    5   14      3.22      0.00
   36    5   14     12.67      0.00
   37    5   14     -4.69      0.00
   38    5   14      0.79      0.00
   39    5   14      1.45      0.00
   40    5   14     -2.98      0.00
   41    5   14     -0.77      0.00
   42    5   14     -1.98      0.00
   43    5   14      2.38      0.00
   44    5   14      0.02      0.00
   45    5   14     -4.01      0.00
   46    5   14      8.52      0.00
   47    5   14      4.27      0.00
   48    5   14      0.18      0.00
   49    5   14      4.63      0.00
   50    5   14    -10.68      0.00
   51    5   14     -5.28      0.00
   52    5   14     10.66      0.00
   53    5   14     -2.60      0.00
   54    5   14     16.03      0.00
   55    5   14      5.33      0.00
   56    5   14    -17.12      0.00
   57    5   14     -2.17      0.00
   58    5   14     -0.12      0.00
   59    5   14      0.15      0.00
   60    5   14      4.14      0.00
    0    6   14     -4.15      0.00
    1    6   14    -10.72      0.00
    2    6   14      3.57      0.00
    3    6   14      4.61      0.00
    4    6   14     -9.85      0.00
    5    6   14      1.42      0.00
    6    6   14      6.40      0.00
    7    6   14     -1.95      0.00
    8    6   14     -0.13      0.00
    9    6   14     -6.98      0.00
   10    6   14     -3.36      0.00
   11    6   14      4.23      0.00
   12    6   14      6.81      0.00
   13    6   14      2.16      0.00
   14    6   14    -10.71      0.00
   15    6   14     -2.69      0.00
   16    6   14      3.80      0.00
   17    6   14     -0.93      0.00
   18    6   14      6.17      0.00
   19    6   14     -5.19      0.00
   20    6   14     -5.11      0.00
   21    6   14      4.72      0.00
   22    6   14     -3.58      0.00
   23    6   14     -2.23      0.00
   24    6   14      7.05      0.00
   25    6   14      3.06      0.00
   26    6   14      2.80      0.00
   27    6   14     -0.90      0.00
   28    6   14     -5.54      0.00
   29    6   14     -3.99      0.00
   30    6   14      9.33      0.00
   31    6   14      5.36      0.00
   32    6   14     -8.01      0.00
   33    6   14     -7.14      0.00
   34    6   14      0.13      0.00
   35    6   14     12.74      0.00
   36    6   14      0.52      0.00
   37    6   14     -5.35      0.00
   38    6   14      1.22      0.00
   39    6   14     -6.28      0.00
   40    6   14     14.06      0.00
   41    6   14     11.97      0.00
   42    6   14    -15.26      0.00
   43    6   14     -6.38      0.00
   44    6   14      0.30      0.00
   45    6   14     -0.62      0.00
   46    6   14      6.97      0.00
   47    6   14      4.70      0.00
   48    6   14      0.23      0.00
   49    6   14    -10.07      0.00
   50    6   14     -6.77      0.00
   51    6   14     11.51      0.00
   52    6   14     -0.72      0.00
   53    6   14     -1.66      0.00
   54    6   14      7.93      0.00
   55    6   14     -7.60      0.00
   56    6   14     -6.02      0.00
   57    6   14      6.91      0.00
   58    6   14      8.30      0.00
    1    7   14      0.50      0.00
    2    7   14     12.38      0.00
    3    7   14     -5.67      0.00
    4    7   14     -9.82      0.00
    5    7   14      5.36      0.00
    6    7   14      0.73      0.00
    7    7   14      5.52      0.00
    8    7   14     -3.17      0.00
    9    7   14     -5.63      0.00
   10    7   14      6.20      0.00
   11    7   14     -1.09      0.00
   12    7   14      0.50      0.00
   13    7   14      0.16      0.00
   14    7   14      0.90      0.00
   15    7   14      4.06      0.00
   16    7   14     -0.05      0.00
   17    7   14     -0.91      0.00
   18    7   14     -4.71      0.00
   19    7   14      3.69      0.00
   20    7   14      3.33      0.00
   21    7   14      0.08      0.00
   22    7   14     -2.79      0.00
   23    7   14     -3.30      0.00
   24    7   14      2.88      0.00
   25    7   14      7.98      0.00
   26    7   14     -3.90      0.00
   27    7   14      0.35      0.00
   28    7   14      3.82      0.00
   29    7   14     -4.72      0.00
   30    7   14      0.38      0.00
   31    7   14      3.85      0.00
   32    7   14     -3.69      0.00
   33    7   14      3.36      0.00
   34    7   14      2.33      0.00
   35    7   14     -3.28      0.00
   36    7   14     -7.94      0.00
   37    7   14      7.57      0.00
   38    7   14      0.97      0.00
   39    7   14     -4.20      0.00
   40    7   14      8.69      0.00
   41    7   14     -3.76      0.00
   42    7   14     -4.17      0.00
   43    7   14      3.80      0.00
   44    7   14     -9.49      0.00
   45    7   14      5.86      0.00
   46    7   14      6.48      0.00
   47    7   14     -5.40      0.00
   48    7   14     -2.44      0.00
   49    7   14      0.82      0.00
   50    7   14     -5.65      0.00
   51    7   14     -4.38      0.00
   52    7   14      8.33      0.00
   53    7   14      1.39      0.00
   54    7   14     -7.34      0.00
   55    7   14      7.02      0.00
    0    8   14     -1.68      0.00
    1    8   14     -4.78      0.00
    2    8   14     -6.13      0.00
    3    8   14     -7.97      0.00
    4    8   14      7.39      0.00
    5    8   14      7.00      0.00
    6    8   14      2.42      0.00
    7    8   14      0.88      0.00
    8    8   14    -17.04      0.00
    9    8   14      0.64      0.00
   10    8   14      5.94      0.00
   11    8   14      0.49      0.00
   12    8   14     -1.86      0.00
   13    8   14      5.79      0.00
   14    8   14     -1.82      0.00
   15    8   14     -8.08      0.00
   16    8   14      6.44      0.00
   17    8   14      0.62      0.00
   18    8   14    -10.52      0.00
   19    8   14      7.48      0.00
   20    8   14      5.41      0.00
   21    8   14     -4.47      0.00
   22    8   14     -4.32      0.00
   23    8   14      5.16      0.00
   24    8   14     -1.47      0.00
   25    8   14     -5.72      0.00
   26    8   14      1.44      0.00
   27    8   14      6.36      0.00
   28    8   14     -1.13      0.00
   29    8   14      2.64      0.00
   30    8   14      4.23      0.00
   31    8   14     -8.31      0.00
   32    8   14     -1.01      0.00
   33    8   14      2.81      0.00
   34    8   14      0.61      0.00
   35    8   14     -0.86      0.00
   36    8   14     -4.43      0.00
   37    8   14      8.48      0.00
   38    8   14      2.61      0.00
   39    8   14     -4.60      0.00
   40    8   14      0.87      0.00
   41    8   14     -4.13      0.00
   42    8   14     -0.13      0.00
   43    8   14      6.22      0.00
   44    8   14      6.95      0.00
   45    8   14     -4.05      0.00
   46    8   14     -2.87      0.00
   47    8   14      3.35      0.00
   48    8   14     -7.42      0.00
   49    8   14      4.82      0.00
   50    8   14      1.70      0.00
   51    8   14     -5.95      0.00
   52    8   14      9.86      0.00
    1    9   14     10.25      0.00
    2    9   14      1.64      0.00
    3    9   14    -11.81      0.00
    4    9   14     -6.28      0.00
    5    9   14     -0.99      0.00
    6    9   14      7.21      0.00
    7    9   14     -1.02      0.00
    8    9   14     -0.83      0.00
    9    9   14      7.12      0.00
   10    9   14     -0.67      0.00
   11    9   14     -9.20      0.00
   12    9   14     -5.00      0.00
   13    9   14      5.39      0.00
   14    9   14      3.70      0.00
   15    9   14      4.23      0.00
   16    9   14      2.05      0.00
   17    9   14     -6.81      0.00
   18    9   14     -2.66      0.00
   19    9   14     -7.74      0.00
   20    9   14      6.07      0.00
   21    9   14      7.98      0.00
   22    9   14     -6.22      0.00
   23    9   14      1.01      0.00
   24    9   14      6.73      0.00
   25    9   14    -10.16      0.00
   26    9   14     -1.98      0.00
   27    9   14      7.04      0.00
   28    9   14     -3.53      0.00
   29    9   14     -7.12      0.00
   30    9   14      5.75      0.00
   31    9   14      7.54      0.00
   32    9   14      0.34      0.00
   33    9   14     -7.62      0.00
   34    9   14      1.97      0.00
   35    9   14     -4.84      0.00
   36    9   14     -0.52      0.00
   37    9   14      9.00      0.00
   38    9   14     -2.77      0.00
   39    9   14     -5.97      0.00
   40    9   14     -0.25      0.00
   41    9   14     -2.82      0.00
   42    9   14      3.87      0.00
   43    9   14      2.84      0.00
   44    9   14     -4.37      0.00
   45    9   14     -3.66      0.00
   46    9   14      7.98      0.00
   47    9   14      1.72      0.00
   48    9   14      3.42      0.00
    0   10   14      8.64      0.00
    1   10   14     -1.75      0.00
    2   10   14     -0.48      0.00
    3   10   14     16.42      0.00
    4   10   14     -3.92      0.00
    5   10   14    -10.50      0.00
    6   10   14      9.82      0.00
    7   10   14     -6.20      0.00
    8   10   14     -1.05      0.00
    9   10   14     11.25      0.00
   10   10   14     -2.50      0.00
   11   10   14    -11.95      0.00
   12   10   14      8.53      0.00
   13   10   14      1.18      0.00
   14   10   14      1.13      0.00
   15   10   14      7.89      0.00
   16   10   14     -6.30      0.00
   17   10   14     -1.72      0.00
   18   10   14      9.15      0.00
   19   10   14     -2.90      0.00
   20   10   14      3.95      0.00
   21   10   14     -4.75      0.00
   22   10   14    -16.11      0.00
   23   10   14      2.75      0.00
   24   10   14     20.65      0.00
   25   10   14      0.61      0.00
   26   10   14     -6.96      0.00
   27   10   14     -0.36      0.00
   28   10   14     -9.85      0.00
   29   10   14      0.00      0.00
   30   10   14     11.41      0.00
   31   10   14     -3.15      0.00
   32   10   14     -6.09      0.00
   33   10   14     -2.60      0.00
   34   10   14     -4.69      0.00
   35   10   14      6.88      0.00
   36   10   14     11.31      0.00
   37   10   14     -4.89      0.00
   38   10   14     -8.42      0.00
   39   10   14     -1.61      0.00
   40   10   14     -5.85      0.00
   41   10   14      4.34      0.00
   42   10   14      5.89      0.00
   43   10   14     -6.45      0.00
    1   11   14     -7.31      0.00
    2   11   14     -4.76      0.00
    3   11   14      8.83      0.00
    4   11   14     14.49      0.00
    5   11   14      1.69      0.00
    6   11   14    -15.84      0.00
    7   11   14     -4.87      0.00
    8   11   14      4.37      0.00
    9   11   14      8.14      0.00
   10   11   14     14.43      0.00
   11   11   14      0.72      0.00
   12   11   14    -15.68      0.00
   13   11   14    -13.41      0.00
   14   11   14      0.10      0.00
   15   11   14      9.92      0.00
   16   11   14     11.35      0.00
   17   11   14     -1.34      0.00
   18   11   14     -4.67      0.00
   19   11   14      3.70      0.00
   20   11   14     -0.14      0.00
   21   11   14      9.02      0.00
   22   11   14     -3.76      0.00
   23   11   14    -16.16      0.00
   24   11   14      1.10      0.00
   25   11   14      4.34      0.00
   26   11   14      2.64      0.00
   27   11   14      8.72      0.00
   28   11   14      1.42      0.00
   29   11   14     -1.66      0.00
   30   11   14     -8.35      0.00
   31   11   14     -2.80      0.00
   32   11   14      1.72      0.00
   33   11   14      1.76      0.00
   34   11   14      2.07      0.00
   35   11   14      0.02      0.00
   36   11   14     -1.93      0.00
   37   11   14      2.71      0.00
    0   12   14      2.83      0.00
    1   12   14     -8.11      0.00
    2   12   14     -5.91      0.00
    3   12   14     -6.63      0.00
    4   12   14      4.37      0.00
    5   12   14     14.51      0.00
    6   12   14      1.99      0.00
    7   12   14     -8.18      0.00
    8   12   14    -11.70      0.00
    9   12   14     -7.28      0.00
   10   12   14      8.67      0.00
   11   12   14     10.98      0.00
   12   12   14      1.86      0.00
   13   12   14      8.38      0.00
   14   12   14     -7.94      0.00
   15   12   14    -12.75      0.00
   16   12   14     -6.29      0.00
   17   12   14     -9.77      0.00
   18   12   14      8.56      0.00
   19   12   14     11.05      0.00
   20   12   14     -2.90      0.00
   21   12   14      8.04      0.00
   22   12   14      4.48      0.00
   23   12   14     -7.24      0.00
   24   12   14    -10.84      0.00
   25   12   14     -5.03      0.00
   26   12   14     -0.34      0.00
   27   12   14      3.78      0.00
   28   12   14     13.31      0.00
   29   12   14      5.40      0.00
    1   13   14      2.22      0.00
    2   13   14     -0.92      0.00
    3   13   14     -9.77      0.00
    4   13   14     -6.62      0.00
    5   13   14      7.76      0.00
    6   13   14     11.34      0.00
    7   13   14      5.45      0.00
    8   13   14     -9.51      0.00
    9   13   14    -17.36      0.00
   10   13   14     -2.99      0.00
   11   13   14      7.39      0.00
   12   13   14      4.68      0.00
   13   13   14      0.21      0.00
   14   13   14      5.43      0.00
   15   13   14      3.46      0.00
    1    0   15     -6.68      0.00
    2    0   15      0.68      0.00
    3    0   15     11.22      0.00
    4    0   15     -0.21      0.00
    5    0   15     -7.92      0.00
    6    0   15      5.00      0.00
    7    0   15      1.41      0.00
    8    0   15      0.36      0.00
    9    0   15      6.83      0.00
   10    0   15    -15.58      0.00
   11    0   15     -3.45      0.00
   12    0   15     18.21      0.00
   13    0   15     -5.86      0.00
   14    0   15      5.32      0.00
   15    0   15     12.33      0.00
   16    0   15    -11.27      0.00
   17    0   15      1.53      0.00
   18    0   15     13.84      0.00
   19    0   15    -10.47      0.00
   20    0   15     -2.96      0.00
   21    0   15      4.69      0.00
   22    0   15     -7.74      0.00
   23    0   15     13.36      0.00
   24    0   15     12.01      0.00
   25    0   15     -0.80      0.00
   26    0   15     -1.45      0.00
   27    0   15     -7.64      0.00
   28    0   15     -3.98      0.00
   29    0   15      3.00      0.00
   30    0   15      6.04      0.00
   31    0   15     -0.39      0.00
   32    0   15     11.38      0.00
   33    0   15      2.49      0.00
   34    0   15    -13.84      0.00
   35    0   15      7.04      0.00
   36    0   15      3.81      0.00
   37    0   15     -6.55      0.00
   38    0   15     -5.05      0.00
   39    0   15      3.40      0.00
   40    0   15      4.62      0.00
   41    0   15     -7.03      0.00
   42    0   15      0.68      0.00
   43    0   15     -5.06      0.00
   44    0   15     -3.46      0.00
   45    0   15     11.31      0.00
   46    0   15      8.80      0.00
   47    0   15      3.82      0.00
   48    0   15    -14.92      0.00
   49    0   15    -10.61      0.00
   50    0   15      7.57      0.00
   51    0   15      2.71      0.00
   52    0   15     -8.63      0.00
   53    0   15     -6.10      0.00
   54    0   15      5.64      0.00
   55    0   15      2.76      0.00
   56    0   15      3.17      0.00
   57    0   15     -2.41      0.00
   58    0   15     -3.01      0.00
   59    0   15     11.60      0.00
   60    0   15     -2.22      0.00
   61    0   15     -5.03      0.00
   62    0   15     -8.65      0.00
   63    0   15     -9.92      0.00
    0    1   15     11.52      0.00
    1    1   15     -2.21      0.00
    2    1   15     -5.07      0.00
    3    1   15     -0.50      0.00
    4    1   15    -11.94      0.00
    5    1   15      6.17      0.00
    6    1   15     19.32      0.00
    7    1   15     -8.29      0.00
    8    1   15     -7.19      0.00
    9    1   15      7.67      0.00
   10    1   15     -6.44      0.00
   11    1   15      3.49      0.00
   12    1   15      2.56      0.00
   13    1   15     -6.27      0.00
   14    1   15     -5.31      0.00
   15    1   15      3.08      0.00
   16    1   15     12.17      0.00
   17    1   15     11.58      0.00
   18    1   15     -7.40      0.00
   19    1   15    -12.47      0.00
   20    1   15      7.96      0.00
   21    1   15      3.55      0.00
   22    1   15     -8.33      0.00
   23    1   15      0.45      0.00
   24    1   15      0.89      0.00
   25    1   15     -0.07      0.00
   26    1   15      6.78      0.00
   27    1   15      7.71      0.00
   28    1   15    -11.90      0.00
   29    1   15     -5.42      0.00
   30    1   15      5.49      0.00
   31    1   15     -1.00      0.00
   32    1   15     -1.56      0.00
   33    1   15     -3.67      0.00
   34    1   15      8.21      0.00
   35    1   15      3.63      0.00
   36    1   15     -4.32      0.00
   37    1   15      1.86      0.00
   38    1   15    -10.81      0.00
   39    1   15      1.68      0.00
   40    1   15     10.98      0.00
   41    1   15      2.54      0.00
   42    1   15    -10.54      0.00
   43    1   15     -7.73      0.00
   44    1   15      1.67      0.00
   45    1   15      0.93      0.00
   46    1   15      7.33      0.00
   47    1   15      6.17      0.00
   48    1   15     -7.29      0.00
   49    1   15     -0.10      0.00
   50    1   15     -0.30      0.00
   51    1   15      4.54      0.00
   52    1   15     -2.70      0.00
   53    1   15     -0.51      0.00
   54    1   15      0.08      0.00
   55    1   15     -5.25      0.00
   56    1   15     -7.58      0.00
   57    1   15      5.15      0.00
   58    1   15     15.93      0.00
   59    1   15     -4.01      0.00
   60    1   15     -6.21      0.00
   61    1   15     10.07      0.00
   62    1   15     -9.21      0.00
   63    1   15      2.38      0.00
    1    2   15     -3.09      0.00
    2    2   15     -5.69      0.00
    3    2   15      0.59      0.00
    4    2   15      3.24      0.00
    5    2   15      7.11      0.00
    6    2   15      1.48      0.00
    7    2   15     -7.09      0.00
    8    2   15     -5.61      0.00
    9    2   15     -0.80      0.00
   10    2   15     12.09      0.00
   11    2   15      2.15      0.00
   12    2   15    -11.27      0.00
   13    2   15     -2.63      0.00
   14    2   15     -3.03      0.00
   15    2   15     -4.87      0.00
   16    2   15      1.81      0.00
   17    2   15      6.72      0.00
   18    2   15     -4.64      0.00
   19    2   15     -2.15      0.00
   20    2   15     11.71      0.00
   21    2   15     -2.47      0.00
   22    2   15     -5.28      0.00
   23    2   15     -3.21      0.00
   24    2   15    -11.59      0.00
   25    2   15      1.35      0.00
   26    2   15     13.02      0.00
   27    2   15     -3.41      0.00
   28    2   15     -4.10      0.00
   29    2   15      3.77      0.00
   30    2   15     -8.88      0.00
   31    2   15      1.70      0.00
   32    2   15      4.56      0.00
   33    2   15     -4.37      0.00
   34    2   15      2.10      0.00
   35    2   15      2.56      0.00
   36    2   15     -0.35      0.00
   37    2   15     -2.40      0.00
   38    2   15      4.76      0.00
   39    2   15     -3.32      0.00
   40    2   15     -8.91      0.00
   41    2   15      9.63      0.00
   42    2   15      3.25      0.00
   43    2   15     -2.59      0.00
   44    2   15     -2.39      0.00
   45    2   15     -3.45      0.00
   46    2   15      5.31      0.00
   47    2   15      1.13      0.00
   48    2   15      1.45      0.00
   49    2   15      6.73      0.00
   50    2   15     -4.64      0.00
   51    2   15    -14.16      0.00
   52    2   15      8.29      0.00
   53    2   15     12.19      0.00
   54    2   15    -11.30      0.00
   55    2   15      1.22      0.00
   56    2   15      0.15      0.00
   57    2   15     -5.48      0.00
   58    2   15      7.18      0.00
   59    2   15      0.08      0.00
   60    2   15      2.17      0.00
   61    2   15      1.33      0.00
   62    2   15     -2.63      0.00
   63    2   15     -0.26      0.00
    0    3   15     -4.36      0.00
    1    3   15     -2.62      0.00
    2    3   15      5.75      0.00
    3    3   15     -2.80      0.00
    4    3   15      6.27      0.00
    5    3   15     -0.70      0.00
    6    3   15    -12.86      0.00
    7    3   15      7.58      0.00
    8    3   15     11.30      0.00
    9    3   15     -3.79      0.00
   10    3   15      1.39      0.00
   11    3   15     -0.23      0.00
   12    3   15     -1.25      0.00
   13    3   15     -2.18      0.00
   14    3   15      8.32      0.00
   15    3   15      4.66      0.00
   16    3   15    -10.14      0.00
   17    3   15     -7.73      0.00
   18    3   15     -0.05      0.00
   19    3   15      5.77      0.00
   20    3   15      1.51      0.00
   21    3   15      6.81      0.00
   22    3   15      6.66      0.00
   23    3   15    -12.86      0.00
   24    3   15     -3.85      0.00
   25    3   15      8.34      0.00
   26    3   15     -4.60      0.00
   27    3   15     -3.16      0.00
   28    3   15      7.05      0.00
   29    3   15     -6.08      0.00
   30    3   15     -7.25      0.00
   31    3   15     11.51      0.00
   32    3   15      7.39      0.00
   33    3   15    -10.57      0.00
   34    3   15     -9.96      0.00
   35    3   15      4.67      0.00
   36    3   15      0.46      0.00
   37    3   15      1.83      0.00
   38    3   15     10.83      0.00
   39    3   15    -10.84      0.00
   40    3   15     -6.00      0.00
   41    3   15      5.56      0.00
   42    3   15     -0.83      0.00
   43    3   15     -1.24      0.00
   44    3   15     -1.18      0.00
   45    3   15     -2.38      0.00
   46    3   15     -6.20      0.00
   47    3   15     -3.05      0.00
   48    3   15     10.51      0.00
   49    3   15      9.63      0.00
   50    3   15      2.60      0.00
   51    3   15     -9.44      0.00
   52    3   15     -5.64      0.00
   53    3   15     -8.10      0.00
   54    3   15      0.48      0.00
   55    3   15     11.43      0.00
   56    3   15      3.99      0.00
   57    3   15     -3.99      0.00
   58    3   15     -8.00      0.00
   59    3   15     -3.92      0.00
   60    3   15      0.66      0.00
   61    3   15      5.83      0.00
   62    3   15     15.79      0.00
    1    4   15      3.64      0.00
    2    4   15     -4.15      0.00
    3    4   15     -2.43      0.00
    4    4   15      7.28      0.00
    5    4   15     -3.52      0.00
    6    4   15     -1.27      0.00
    7    4   15     10.76      0.00
    8    4   15      2.10      0.00
    9    4   15    -10.40      0.00
   10    4   15    -15.30      0.00
   11    4   15      9.57      0.00
   12    4   15     10.42      0.00
   13    4   15     -0.63      0.00
   14    4   15      0.77      0.00
   15    4   15     -6.33      0.00
   16    4   15     -1.29      0.00
   17    4   15     -0.27      0.00
   18    4   15      0.65      0.00
   19    4   15      5.80      0.00
   20    4   15     -4.73      0.00
   21    4   15     -7.40      0.00
   22    4   15     -0.05      0.00
   23    4   15      6.54      0.00
   24    4   15      2.47      0.00
   25    4   15     -1.82      0.00
   26    4   15      6.33      0.00
   27    4   15     -6.38      0.00
   28    4   15    -17.69      0.00
   29    4   15     -1.62      0.00
   30    4   15     12.24      0.00
   31    4   15      5.69      0.00
   32    4   15      1.21      0.00
   33    4   15     -3.11      0.00
   34    4   15     -4.41      0.00
   35    4   15     -2.08      0.00
   36    4   15      1.42      0.00
   37    4   15      1.71      0.00
   38    4   15     -5.25      0.00
   39    4   15      1.76      0.00
   40    4   15      5.64      0.00
   41    4   15     -7.38      0.00
   42    4   15      6.84      0.00
   43    4   15      2.61      0.00
   44    4   15     -6.67      0.00
   45    4   15      6.43      0.00
   46    4   15     -5.64      0.00
   47    4   15     -9.00      0.00
   48    4   15      7.80      0.00
   49    4   15      2.64      0.00
   50    4   15     -0.72      0.00
   51    4   15     13.35      0.00
   52    4   15      2.77      0.00
   53    4   15    -17.52      0.00
   54    4   15      3.19      0.00
   55    4   15      7.76      0.00
   56    4   15     -1.54      0.00
   57    4   15      0.30      0.00
   58    4   15      1.39      0.00
   59    4   15     -4.71      0.00
   60    4   15     -6.83      0.00
    0    5   15     -5.24      0.00
    1    5   15      1.66      0.00
    2    5   15      0.63      0.00
    3    5   15     -1.22      0.00
    4    5   15     -8.79      0.00
    5    5   15      2.41      0.00
    6    5   15      4.70      0.00
    7    5   15     -7.41      0.00
    8    5   15      5.02      0.00
    9    5   15      2.40      0.00
   10    5   15     -2.09      0.00
   11    5   15      1.06      0.00
   12    5   15     -4.19      0.00
   13    5   15     -2.65      0.00
   14    5   15     -9.28      0.00
   15    5   15      0.03      0.00
   16    5   15      6.31      0.00
   17    5   15     -0.55      0.00
   18    5   15      3.94      0.00
   19    5   15     -4.99      0.00
   20    5   15     -0.81      0.00
   21    5   15      0.94      0.00
   22    5   15     -9.17      0.00
   23    5   15      2.23      0.00
   24    5   15      9.61      0.00
   25    5   15      2.61      0.00
   26    5   15      4.16      0.00
   27    5   15     -1.44      0.00
   28    5   15     -7.24      0.00
   29    5   15     -4.21      0.00
   30    5   15     -1.05      0.00
   31    5   15     -2.36      0.00
   32    5   15     -0.10      0.00
   33    5   15     10.54      0.00
   34    5   15     12.35      0.00
   35    5   15      0.68      0.00
   36    5   15    -12.51      0.00
   37    5   15     -5.96      0.00
   38    5   15      6.66      0.00
   39    5   15      7.63      0.00
   40    5   15     -0.80      0.00
   41    5   15     -3.29      0.00
   42    5   15      1.87      0.00
   43    5   15      3.86      0.00
   44    5   15      3.02      0.00
   45    5   15     -4.53      0.00
   46    5   15     -3.94      0.00
   47    5   15      6.73      0.00
   48    5   15     -0.35      0.00
   49    5   15     -0.32      0.00
   50    5   15      1.31      0.00
   51    5   15     -2.72      0.00
   52    5   15     -2.30      0.00
   53    5   15      5.57      0.00
   54    5   15      1.22      0.00
   55    5   15     -2.61      0.00
   56    5   15      8.97      0.00
   57    5   15      3.89      0.00
   58    5   15    -11.11      0.00
   59    5   15     -7.59      0.00
    1    6   15     -2.28      0.00
    2    6   15      0.85      0.00
    3    6   15     -1.26      0.00
    4    6   15     -2.63      0.00
    5    6   15      7.23      0.00
    6    6   15     -0.32      0.00
    7    6   15     -5.37      0.00
    8    6   15     -7.22      0.00
    9    6   15      2.42      0.00
   10    6   15     10.53      0.00
   11    6   15     -2.81      0.00
   12    6   15      5.61      0.00
   13    6   15      1.31      0.00
   14    6   15     -1.72      0.00
   15    6   15      5.54      0.00
   16    6   15     -9.06      0.00
   17    6   15     -2.33      0.00
   18    6   15      0.58      0.00
   19    6   15      0.70      0.00
   20    6   15     10.47      0.00
   21    6   15      3.13      0.00
   22    6   15     -8.78      0.00
   23    6   15     -1.78      0.00
   24    6   15     -0.83      0.00
   25    6   15      2.57      0.00
   26    6   15      6.17      0.00
   27    6   15     10.60      0.00
   28    6   15      2.92      0.00
   29    6   15     -3.24      0.00
   30    6   15     -8.22      0.00
   31    6   15     -8.85      0.00
   32    6   15      5.84      0.00
   33    6   15      2.56      0.00
   34    6   15     -6.39      0.00
   35    6   15     11.62      0.00
   36    6   15      6.98      0.00
   37    6   15      0.06      0.00
   38    6   15     -7.12      0.00
   39    6   15     -5.81      0.00
   40    6   15     -1.20      0.00
   41    6   15      1.95      0.00
   42    6   15      8.99      0.00
   43    6   15     -1.27      0.00
   44    6   15    -12.91      0.00
   45    6   15      2.22      0.00
   46    6   15      9.30      0.00
   47    6   15     -2.45      0.00
   48    6   15     -0.39      0.00
   49    6   15      2.58      0.00
   50    6   15    -13.82      0.00
   51    6   15     -1.17      0.00
   52    6   15      5.12      0.00
   53    6   15     -5.39      0.00
   54    6   15     -3.62      0.00
   55    6   15      4.65      0.00
   56    6   15      6.25      0.00
    0    7   15     -8.57      0.00
    1    7   15     -0.63      0.00
    2    7   15      0.06      0.00
    3    7   15     -3.71      0.00
    4    7   15      9.34      0.00
    5    7   15     -3.58      0.00
    6    7   15     -0.97      0.00
    7    7   15     10.36      0.00
    8    7   15    -12.19      0.00
    9    7   15      1.03      0.00
   10    7   15      5.06      0.00
   11    7   15     -5.29      0.00
   12    7   15     -5.36      0.00
   13    7   15      3.02      0.00
   14    7   15      5.18      0.00
   15    7   15      4.34      0.00
   16    7   15      9.71      0.00
   17    7   15     -8.17      0.00
   18    7   15    -16.43      0.00
   19    7   15     10.46      0.00
   20    7   15      2.68      0.00
   21    7   15     -1.68      0.00
   22    7   15      7.00      0.00
   23    7   15     -3.66      0.00
   24    7   15     -8.99      0.00
   25    7   15     -2.98      0.00
   26    7   15      2.54      0.00
   27    7   15      6.84      0.00
   28    7   15      3.26      0.00
   29    7   15      5.02      0.00
   30    7   15     -3.03      0.00
   31    7   15     -2.06      0.00
   32    7   15      3.39      0.00
   33    7   15    -14.15      0.00
   34    7   15     -7.38      0.00
   35    7   15      2.51      0.00
   36    7   15     12.95      0.00
   37    7   15      9.24      0.00
   38    7   15    -12.04      0.00
   39    7   15     -1.42      0.00
   40    7   15      3.96      0.00
   41    7   15     -0.20      0.00
   42    7   15      5.22      0.00
   43    7   15     -7.09      0.00
   44    7   15    -11.05      0.00
   45    7   15      2.39      0.00
   46    7   15      2.48      0.00
   47    7   15     -2.78      0.00
   48    7   15     14.48      0.00
   49    7   15      5.87      0.00
   50    7   15     -8.60      0.00
   51    7   15      0.41      0.00
   52    7   15     -8.45      0.00
   53    7   15     -8.97      0.00
   54    7   15     10.67      0.00
    1    8   15      7.59      0.00
    2    8   15    -12.13      0.00
    3    8   15     -8.57      0.00
    4    8   15      1.17      0.00
    5    8   15     -5.84      0.00
    6    8   15      7.54      0.00
    7    8   15      2.81      0.00
    8    8   15      3.41      0.00
    9    8   15     -1.77      0.00
   10    8   15     -6.77      0.00
   11    8   15      2.05      0.00
   12    8   15     -2.03      0.00
   13    8   15      1.51      0.00
   14    8   15      1.58      0.00
   15    8   15    -10.88      0.00
   16    8   15     -0.97      0.00
   17    8   15      9.31      0.00
   18    8   15     10.26      0.00
   19    8   15    -14.51      0.00
   20    8   15     -6.89      0.00
   21    8   15      5.88      0.00
   22    8   15     -2.28      0.00
   23    8   15      8.31      0.00
   24    8   15      5.29      0.00
   25    8   15    -14.72      0.00
   26    8   15     -0.43      0.00
   27    8   15     -6.51      0.00
   28    8   15     -3.10      0.00
   29    8   15      8.62      0.00
   30    8   15      4.96      0.00
   31    8   15      6.96      0.00
   32    8   15      6.62      0.00
   33    8   15     -6.69      0.00
   34    8   15    -11.42      0.00
   35    8   15    -10.30      0.00
   36    8   15      1.93      0.00
   37    8   15      3.96      0.00
   38    8   15      5.59      0.00
   39    8   15      2.43      0.00
   40    8   15     -0.99      0.00
   41    8   15     -2.39      0.00
   42    8   15      3.51      0.00
   43    8   15      4.95      0.00
   44    8   15     -3.20      0.00
   45    8   15     -2.75      0.00
   46    8   15     -0.19      0.00
   47    8   15     -5.25      0.00
   48    8   15      3.53      0.00
   49    8   15      2.89      0.00
   50    8   15     -0.85      0.00
    0    9   15      2.41      0.00
    1    9   15     13.19      0.00
    2    9   15      4.17      0.00
    3    9   15      4.53      0.00
    4    9   15     -0.14      0.00
    5    9   15     -4.88      0.00
    6    9   15     -2.61      0.00
    7    9   15     -4.36      0.00
    8    9   15      2.89      0.00
    9    9   15      0.59      0.00
   10    9   15      5.36      0.00
   11    9   15     -3.12      0.00
   12    9   15      6.57      0.00
   13    9   15      5.79      0.00
   14    9   15     -8.27      0.00
   15    9   15     -2.07      0.00
   16    9   15     -1.12      0.00
   17    9   15      5.48      0.00
   18    9   15      8.23      0.00
   19    9   15    -13.86      0.00
   20    9   15      1.83      0.00
   21    9   15      5.99      0.00
   22    9   15      0.70      0.00
   23    9   15     -0.24      0.00
   24    9   15     -6.79      0.00
   25    9   15      8.33      0.00
   26    9   15      8.17      0.00
   27    9   15     -9.96      0.00
   28    9   15    -10.35      0.00
   29    9   15     -1.81      0.00
   30    9   15      1.10      0.00
   31    9   15      1.54      0.00
   32    9   15      6.49      0.00
   33    9   15      5.40      0.00
   34    9   15      1.57      0.00
   35    9   15      2.52      0.00
   36    9   15     -4.99      0.00
   37    9   15    -12.91      0.00
   38    9   15     -9.48      0.00
   39    9   15     13.91      0.00
   40    9   15      5.39      0.00
   41    9   15    -11.90      0.00
   42    9   15     -0.02      0.00
   43    9   15      0.65      0.00
   44    9   15     -2.04      0.00
   45    9   15      8.23      0.00
   46    9   15      1.44      0.00
    1   10   15      0.60      0.00
    2   10   15      0.77      0.00
    3   10   15     -6.21      0.00
    4   10   15     -1.06      0.00
    5   10   15     13.06      0.00
    6   10   15      5.26      0.00
    7   10   15      1.16      0.00
    8   10   15     -8.21      0.00
    9   10   15      0.22      0.00
   10   10   15     10.91      0.00
   11   10   15     -7.77      0.00
   12   10   15    -15.93      0.00
   13   10   15      6.59      0.00
   14   10   15     19.89      0.00
   15   10   15      2.62      0.00
   16   10   15     -7.26      0.00
   17   10   15     -1.15      0.00
   18   10   15    -12.51      0.00
   19   10   15     11.92      0.00
   20   10   15     11.16      0.00
   21   10   15    -14.78      0.00
   22   10   15      0.53      0.00
   23   10   15     10.02      0.00
   24   10   15     -5.92      0.00
   25   10   15     -1.88      0.00
   26   10   15      8.27      0.00
   27   10   15      4.24      0.00
   28   10   15     -5.66      0.00
   29   10   15     -1.37      0.00
   30   10   15     -9.54      0.00
   31   10   15     -0.17      0.00
   32   10   15      5.32      0.00
   33   10   15     -0.39      0.00
   34   10   15      0.79      0.00
   35   10   15     -4.42      0.00
   36   10   15      1.53      0.00
   37   10   15     12.74      0.00
   38   10   15      4.74      0.00
   39   10   15     -5.97      0.00
   40   10   15     -8.18      0.00
   41   10   15     -2.80      0.00
    0   11   15     16.87      0.00
    1   11   15     -7.92      0.00
    2   11   15    -16.50      0.00
    3   11   15      8.04      0.00
    4   11   15      9.84      0.00
    5   11   15    -11.20      0.00
    6   11   15     -5.20      0.00
    7   11   15      4.37      0.00
    8   11   15     -7.97      0.00
    9   11   15      7.41      0.00
   10   11   15     15.63      0.00
   11   11   15     -3.77      0.00
   12   11   15    -17.32      0.00
   13   11   15      1.06      0.00
   14   11   15      4.96      0.00
   15   11   15     -3.45      0.00
   16   11   15      1.05      0.00
   17   11   15     -0.14      0.00
   18   11   15     -3.89      0.00
   19   11   15      1.83      0.00
   20   11   15      1.09      0.00
   21   11   15      1.61      0.00
   22   11   15     -0.78      0.00
   23   11   15      0.40      0.00
   24   11   15     -5.47      0.00
   25   11   15     -5.42      0.00
   26   11   15      3.53      0.00
   27   11   15      4.59      0.00
   28   11   15      8.87      0.00
   29   11   15     -1.39      0.00
   30   11   15     -5.24      0.00
   31   11   15      3.68      0.00
   32   11   15     -2.78      0.00
   33   11   15     -7.12      0.00
   34   11   15      1.37      0.00
   35   11   15      1.97      0.00
    1   12   15      6.35      0.00
    2   12   15     -4.77      0.00
    3   12   15    -17.07      0.00
    4   12   15      9.00      0.00
    5   12   15     12.90      0.00
    6   12   15     -9.09      0.00
    7   12   15      0.38      0.00
    8   12   15      5.04      0.00
    9   12   15    -16.43      0.00
   10   12   15     -9.13      0.00
   11   12   15     10.31      0.00
   12   12   15      4.27      0.00
   13   12   15     -2.83      0.00
   14   12   15      5.16      0.00
   15   12   15      2.99      0.00
   16   12   15     -5.51      0.00
   17   12   15     -0.22      0.00
   18   12   15    -12.36      0.00
   19   12   15    -17.31      0.00
   20   12   15     17.19      0.00
   21   12   15     15.85      0.00
   22   12   15     -3.90      0.00
   23   12   15     -1.62      0.00
   24   12   15     -3.31      0.00
   25   12   15     -7.65      0.00
   26   12   15     -1.61      0.00
    0   13   15    -15.41      0.00
    1   13   15      8.97      0.00
    2   13   15      8.97      0.00
    3   13   15    -11.17      0.00
    4   13   15     -4.00      0.00
    5   13   15      2.31      0.00
    6   13   15      3.20      0.00
    7   13   15      7.16      0.00
    8   13   15      3.59      0.00
    9   13   15     -3.77      0.00
    0    0   16      0.12      0.00
    1    0   16    -10.06      0.00
    2    0   16     -1.86      0.00
    3    0   16     -1.42      0.00
    4    0   16      3.52      0.00
    5    0   16     20.01      0.00
    6    0   16     -2.99      0.00
    7    0   16     -7.76      0.00
    8    0   16      0.95      0.00
    9    0   16     -7.61      0.00
   10    0   16      0.24      0.00
   11    0   16     11.61      0.00
   12    0   16      1.66      0.00
   13    0   16     -7.27      0.00
   14    0   16     -4.41      0.00
   15    0   16     11.49      0.00
   16    0   16      5.47      0.00
   17    0   16      3.11      0.00
   18    0   16     -4.16      0.00
   19    0   16      0.30      0.00
   20    0   16     15.76      0.00
   21    0   16    -10.12      0.00
   22    0   16     -5.86      0.00
   23    0   16     19.78      0.00
   24    0   16    -14.27      0.00
   25    0   16     -9.82      0.00
   26    0   16     13.34      0.00
   27    0   16    -11.29      0.00
   28    0   16      4.04      0.00
   29    0   16     18.92      0.00
   30    0   16     -6.53      0.00
   31    0   16      0.09      0.00
   32    0   16     -2.45      0.00
   33    0   16     -7.69      0.00
   34    0   16      2.27      0.00
   35    0   16     -0.71      0.00
   36    0   16     -0.16      0.00
   37    0   16      0.78      0.00
   38    0   16     -0.44      0.00
   39    0   16      8.03      0.00
   40    0   16      1.33      0.00
   41    0   16    -10.91      0.00
   42    0   16     -6.15      0.00
   43    0   16      1.62      0.00
   44    0   16     -1.91      0.00
   45    0   16      6.35      0.00
   46    0   16     -0.03      0.00
   47    0   16      0.91      0.00
   48    0   16     -1.00      0.00
   49    0   16     -4.34      0.00
   50    0   16      1.00      0.00
   51    0   16      3.89      0.00
   52    0   16      2.17      0.00
   53    0   16     -1.77      0.00
   54    0   16     -9.05      0.00
   55    0   16     -6.08      0.00
   56    0   16      2.15      0.00
   57    0   16     10.02      0.00
   58    0   16     -3.81      0.00
   59    0   16      0.67      0.00
   60    0   16      8.77      0.00
   61    0   16      0.66      0.00
   62    0   16     -4.44      0.00
    1    1   16     -1.95      0.00
    2    1   16    -12.48      0.00
    3    1   16      1.66      0.00
    4    1   16     13.81      0.00
    5    1   16     -2.38      0.00
    6    1   16     -4.71      0.00
    7    1   16      2.67      0.00
    8    1   16     -4.09      0.00
    9    1   16      8.79      0.00
   10    1   16      7.43      0.00
   11    1   16    -13.39      0.00
   12    1   16     -4.04      0.00
   13    1   16     -2.36      0.00
   14    1   16     -2.62      0.00
   15    1   16      3.61      0.00
   16    1   16      3.86      0.00
   17    1   16      1.90      0.00
   18    1   16    -14.32      0.00
   19    1   16     -1.60      0.00
   20    1   16     11.22      0.00
   21    1   16     -4.37      0.00
   22    1   16      7.66      0.00
   23    1   16     -6.56      0.00
   24    1   16    -16.71      0.00
   25    1   16     18.86      0.00
   26    1   16      4.36      0.00
   27    1   16    -19.53      0.00
   28    1   16     -2.06      0.00
   29    1   16     -3.52      0.00
   30    1   16      1.63      0.00
   31    1   16     12.77      0.00
   32    1   16     -0.17      0.00
   33    1   16      2.08      0.00
   34    1   16     -3.79      0.00
   35    1   16    -11.57      0.00
   36    1   16      2.88      0.00
   37    1   16      2.89      0.00
   38    1   16     -2.09      0.00
   39    1   16      2.37      0.00
   40    1   16      4.39      0.00
   41    1   16      1.02      0.00
   42    1   16      1.25      0.00
   43    1   16     -0.01      0.00
   44    1   16     -1.71      0.00
   45    1   16     -6.30      0.00
   46    1   16      2.50      0.00
   47    1   16      7.94      0.00
   48    1   16     -3.58      0.00
   49    1   16     -4.99      0.00
   50    1   16      3.24      0.00
   51    1   16      0.94      0.00
   52    1   16      9.56      0.00
   53    1   16      5.33      0.00
   54    1   16    -11.23      0.00
   55    1   16     -6.49      0.00
   56    1   16      6.71      0.00
   57    1   16      0.92      0.00
   58    1   16     -0.65      0.00
   59    1   16     -5.41      0.00
   60    1   16     -2.08      0.00
   61    1   16     14.47      0.00
   62    1   16      5.40      0.00
    0    2   16      6.90      0.00
    1    2   16     10.24      0.00
    2    2   16     -0.83      0.00
    3    2   16     -7.65      0.00
    4    2   16     -3.25      0.00
    5    2   16      0.25      0.00
    6    2   16      2.39      0.00
    7    2   16      2.43      0.00
    8    2   16      2.43      0.00
    9    2   16     -1.51      0.00
   10    2   16     -0.77      0.00
   11    2   16     -0.39      0.00
   12    2   16     -3.91      0.00
   13    2   16     -4.49      0.00
   14    2   16     12.22      0.00
   15    2   16     -1.97      0.00
   16    2   16     -8.14      0.00
   17    2   16     -1.66      0.00
   18    2   16     -9.97      0.00
   19    2   16      5.24      0.00
   20    2   16      9.78      0.00
   21    2   16      7.81      0.00
   22    2   16     -2.24      0.00
   23    2   16    -25.49      0.00
   24    2   16     -1.14      0.00
   25    2   16     15.32      0.00
   26    2   16      3.87      0.00
   27    2   16      7.64      0.00
   28    2   16     -4.39      0.00
   29    2   16    -19.79      0.00
   30    2   16      1.87      0.00
   31    2   16      7.75      0.00
   32    2   16     -3.54      0.00
   33    2   16      4.97      0.00
   34    2   16      3.16      0.00
   35    2   16     -2.42      0.00
   36    2   16      2.38      0.00
   37    2   16      3.65      0.00
   38    2   16     -5.61      0.00
   39    2   16    -11.09      0.00
   40    2   16      6.31      0.00
   41    2   16     -1.10      0.00
   42    2   16     -0.64      0.00
   43    2   16      9.56      0.00
   44    2   16     -0.95      0.00
   45    2   16     -3.43      0.00
   46    2   16      2.12      0.00
   47    2   16     -3.14      0.00
   48    2   16     -0.75      0.00
   49    2   16      7.66      0.00
   50    2   16     -0.62      0.00
   51    2   16    -16.33      0.00
   52    2   16      2.82      0.00
   53    2   16      5.14      0.00
   54    2   16      7.55      0.00
   55    2   16      7.58      0.00
   56    2   16    -14.18      0.00
   57    2   16     -7.12      0.00
   58    2   16      8.61      0.00
   59    2   16      0.03      0.00
   60    2   16      3.08      0.00
   61    2   16     -0.60      0.00
    1    3   16      3.79      0.00
    2    3   16      4.38      0.00
    3    3   16     -7.79      0.00
    4    3   16     -0.55      0.00
    5    3   16      6.49      0.00
    6    3   16     -0.82      0.00
    7    3   16      6.33      0.00
    8    3   16     -4.24      0.00
    9    3   16     -7.34      0.00
   10    3   16      5.02      0.00
   11    3   16      6.54      0.00
   12    3   16     -6.43      0.00
   13    3   16      1.54      0.00
   14    3   16      5.55      0.00
   15    3   16     -6.17      0.00
   16    3   16      5.11      0.00
   17    3   16     -1.28      0.00
   18    3   16     -6.36      0.00
   19    3   16      6.36      0.00
   20    3   16     -1.95      0.00
   21    3   16     -0.66      0.00
   22    3   16      2.35      0.00
   23    3   16      3.99      0.00
   24    3   16     -0.04      0.00
   25    3   16    -10.54      0.00
   26    3   16      0.64      0.00
   27    3   16      2.60      0.00
   28    3   16     -1.60      0.00
   29    3   16      7.47      0.00
   30    3   16      3.69      0.00
   31    3   16     -9.30      0.00
   32    3   16     -0.84      0.00
   33    3   16     -3.73      0.00
   34    3   16     -5.20      0.00
   35    3   16      3.99      0.00
   36    3   16      2.58      0.00
   37    3   16      3.77      0.00
   38    3   16     -1.19      0.00
   39    3   16      2.88      0.00
   40    3   16      0.32      0.00
   41    3   16    -13.35      0.00
   42    3   16     -1.13      0.00
   43    3   16      6.19      0.00
   44    3   16      1.55      0.00
   45    3   16     -5.81      0.00
   46    3   16     -0.31      0.00
   47    3   16      4.61      0.00
   48    3   16     -7.53      0.00
   49    3   16      7.06      0.00
   50    3   16      8.41      0.00
   51    3   16      1.54      0.00
   52    3   16     -4.82      0.00
   53    3   16    -13.26      0.00
   54    3   16      5.11      0.00
   55    3   16     -0.85      0.00
   56    3   16      0.21      0.00
   57    3   16     18.00      0.00
   58    3   16     -8.85      0.00
   59    3   16    -14.46      0.00
   60    3   16      8.16      0.00
    0    4   16     -4.96      0.00
    1    4   16    -11.01      0.00
    2    4   16      2.48      0.00
    3    4   16     -2.33      0.00
    4    4   16     -8.75      0.00
    5    4   16      1.27      0.00
    6    4   16      4.79      0.00
    7    4   16      4.80      0.00
    8    4   16      6.39      0.00
    9    4   16     -2.72      0.00
   10    4   16    -10.35      0.00
   11    4   16     -3.72      0.00
   12    4   16     -2.09      0.00
   13    4   16      1.71      0.00
   14    4   16     -0.04      0.00
   15    4   16      1.66      0.00
   16    4   16      3.85      0.00
   17    4   16     -4.45      0.00
   18    4   16      0.07      0.00
   19    4   16     -2.90      0.00
   20    4   16     -3.26      0.00
   21    4   16      1.95      0.00
   22    4   16      0.51      0.00
   23    4   16      9.89      0.00
   24    4   16     -0.16      0.00
   25    4   16    -13.03      0.00
   26    4   16      2.96      0.00
   27    4   16     -1.47      0.00
   28    4   16     -4.73      0.00
   29    4   16      7.61      0.00
   30    4   16     -1.89      0.00
   31    4   16     -0.95      0.00
   32    4   16     12.45      0.00
   33    4   16      4.61      0.00
   34    4   16    -12.17      0.00
   35    4   16     -7.27      0.00
   36    4   16      5.26      0.00
   37    4   16     -1.02      0.00
   38    4   16      0.65      0.00
   39    4   16      9.88      0.00
   40    4   16     -6.38      0.00
   41    4   16     -0.26      0.00
   42    4   16     12.99      0.00
   43    4   16      0.96      0.00
   44    4   16     -8.18      0.00
   45    4   16     -2.29      0.00
   46    4   16      4.43      0.00
   47    4   16      1.01      0.00
   48    4   16     -6.05      0.00
   49    4   16     -5.98      0.00
   50    4   16      4.46      0.00
   51    4   16     20.42      0.00
   52    4   16     -0.76      0.00
   53    4   16     -7.08      0.00
   54    4   16     -1.65      0.00
   55    4   16     -9.09      0.00
   56    4   16      8.81      0.00
   57    4   16      9.88      0.00
   58    4   16    -10.70      0.00
   59    4   16     -0.56      0.00
    1    5   16      4.18      0.00
    2    5   16      4.57      0.00
    3    5   16     -8.31      0.00
    4    5   16     -6.84      0.00
    5    5   16     -1.67      0.00
    6    5   16     -0.46      0.00
    7    5   16     -2.04      0.00
    8    5   16     -0.38      0.00
    9    5   16     11.16      0.00
   10    5   16      7.48      0.00
   11    5   16     -4.48      0.00
   12    5   16      0.29      0.00
   13    5   16     -7.12      0.00
   14    5   16     -4.89      0.00
   15    5   16      3.38      0.00
   16    5   16     -1.91      0.00
   17    5   16      5.50      0.00
   18    5   16      0.77      0.00
   19    5   16     -3.17      0.00
   20    5   16      9.64      0.00
   21    5   16     -1.85      0.00
   22    5   16    -12.03      0.00
   23    5   16      8.06      0.00
   24    5   16      3.47      0.00
   25    5   16      5.39      0.00
   26    5   16      4.76      0.00
   27    5   16      0.38      0.00
   28    5   16      2.39      0.00
   29    5   16    -12.44      0.00
   30    5   16     -8.25      0.00
   31    5   16      5.98      0.00
   32    5   16     -0.55      0.00
   33    5   16     14.93      0.00
   34    5   16     16.00      0.00
   35    5   16     -9.30      0.00
   36    5   16     -9.70      0.00
   37    5   16      6.13      0.00
   38    5   16     -4.30      0.00
   39    5   16     -5.35      0.00
   40    5   16      2.72      0.00
   41    5   16      2.21      0.00
   42    5   16     -1.20      0.00
   43    5   16      2.40      0.00
   44    5   16     11.36      0.00
   45    5   16      1.27      0.00
   46    5   16     -9.60      0.00
   47    5   16     -2.96      0.00
   48    5   16      1.95      0.00
   49    5   16     -3.99      0.00
   50    5   16     -7.30      0.00
   51    5   16      4.90      0.00
   52    5   16      5.63      0.00
   53    5   16     -2.61      0.00
   54    5   16     -8.03      0.00
   55    5   16      5.36      0.00
   56    5   16      4.78      0.00
   57    5   16    -12.16      0.00
    0    6   16      6.78      0.00
    1    6   16     14.52      0.00
    2    6   16     -5.94      0.00
    3    6   16     -0.54      0.00
    4    6   16      9.05      0.00
    5    6   16     -8.73      0.00
    6    6   16     -1.57      0.00
    7    6   16      0.39      0.00
    8    6   16     -9.47      0.00
    9    6   16      6.41      0.00
   10    6   16      7.30      0.00
   11    6   16      6.28      0.00
   12    6   16     -6.79      0.00
   13    6   16      1.51      0.00
   14    6   16     13.62      0.00
   15    6   16    -11.99      0.00
   16    6   16     -1.51      0.00
   17    6   16      8.57      0.00
   18    6   16    -12.00      0.00
   19    6   16      5.91      0.00
   20    6   16     11.49      0.00
   21    6   16     -5.46      0.00
   22    6   16     -0.68      0.00
   23    6   16     -7.86      0.00
   24    6   16     -9.09      0.00
   25    6   16     14.18      0.00
   26    6   16      7.34      0.00
   27    6   16      2.63      0.00
   28    6   16      4.90      0.00
   29    6   16    -10.43      0.00
   30    6   16     -3.64      0.00
   31    6   16      6.56      0.00
   32    6   16     -8.56      0.00
   33    6   16    -12.60      0.00
   34    6   16      7.22      0.00
   35    6   16      7.05      0.00
   36    6   16      6.59      0.00
   37    6   16      2.13      0.00
   38    6   16     -2.93      0.00
   39    6   16     -4.63      0.00
   40    6   16     -7.28      0.00
   41    6   16      1.98      0.00
   42    6   16     -1.05      0.00
   43    6   16     -6.74      0.00
   44    6   16      2.80      0.00
   45    6   16      2.78      0.00
   46    6   16     -3.51      0.00
   47    6   16      0.22      0.00
   48    6   16     14.65      0.00
   49    6   16     -1.81      0.00
   50    6   16     -8.61      0.00
   51    6   16     -7.35      0.00
   52    6   16     -8.34      0.00
   53    6   16      6.75      0.00
   54    6   16      3.74      0.00
   55    6   16     -3.05      0.00
    1    7   16     -2.44      0.00
    2    7   16     -7.34      0.00
    3    7   16      5.71      0.00
    4    7   16      1.50      0.00
    5    7   16     -6.18      0.00
    6    7   16      9.10      0.00
    7    7   16      2.00      0.00
    8    7   16     -2.13      0.00
    9    7   16     -9.51      0.00
   10    7   16     -2.80      0.00
   11    7   16      3.97      0.00
   12    7   16     -4.41      0.00
   13    7   16      8.32      0.00
   14    7   16     -1.04      0.00
   15    7   16    -11.71      0.00
   16    7   16      9.33      0.00
   17    7   16     -0.34      0.00
   18    7   16     -3.21      0.00
   19    7   16     -7.91      0.00
   20    7   16      2.54      0.00
   21    7   16     11.30      0.00
   22    7   16     -0.01      0.00
   23    7   16     -5.90      0.00
   24    7   16     -6.24      0.00
   25    7   16    -11.70      0.00
   26    7   16      3.09      0.00
   27    7   16      4.52      0.00
   28    7   16      1.98      0.00
   29    7   16      3.12      0.00
   30    7   16      1.88      0.00
   31    7   16     -1.89      0.00
   32    7   16      1.50      0.00
   33    7   16     -5.45      0.00
   34    7   16     -8.75      0.00
   35    7   16      0.47      0.00
   36    7   16      0.90      0.00
   37    7   16     -0.95      0.00
   38    7   16      7.17      0.00
   39    7   16     -2.60      0.00
   40    7   16      0.56      0.00
   41    7   16      3.95      0.00
   42    7   16      2.01      0.00
   43    7   16      2.53      0.00
   44    7   16     -6.86      0.00
   45    7   16    -10.35      0.00
   46    7   16     -3.93      0.00
   47    7   16      7.05      0.00
   48    7   16      5.32      0.00
   49    7   16      4.16      0.00
   50    7   16     14.26      0.00
   51    7   16     -5.93      0.00
   52    7   16     -9.58      0.00
    0    8   16      7.57      0.00
    1    8   16      7.75      0.00
    2    8   16      1.71      0.00
    3    8   16      3.79      0.00
    4    8   16     -8.35      0.00
    5    8   16    -14.80      0.00
    6    8   16      0.81      0.00
    7    8   16     12.62      0.00
    8    8   16      8.84      0.00
    9    8   16     -5.02      0.00
   10    8   16      0.90      0.00
   11    8   16     -7.29      0.00
   12    8   16      1.79      0.00
   13    8   16      5.70      0.00
   14    8   16     -8.88      0.00
   15    8   16      4.84      0.00
   16    8   16      3.07      0.00
   17    8   16     -4.28      0.00
   18    8   16      0.68      0.00
   19    8   16     -6.16      0.00
   20    8   16      6.07      0.00
   21    8   16      0.39      0.00
   22    8   16     -4.99      0.00
   23    8   16      4.22      0.00
   24    8   16      4.50      0.00
   25    8   16      5.34      0.00
   26    8   16     -5.95      0.00
   27    8   16    -10.54      0.00
   28    8   16     -0.66      0.00
   29    8   16      3.08      0.00
   30    8   16     -4.91      0.00
   31    8   16      3.84      0.00
   32    8   16     10.17      0.00
   33    8   16     -1.60      0.00
   34    8   16      3.39      0.00
   35    8   16      2.64      0.00
   36    8   16    -16.00      0.00
   37    8   16     -3.48      0.00
   38    8   16      5.28      0.00
   39    8   16      1.19      0.00
   40    8   16     -6.23      0.00
   41    8   16      2.86      0.00
   42    8   16     13.10      0.00
   43    8   16     -1.86      0.00
   44    8   16     -5.14      0.00
   45    8   16      3.11      0.00
   46    8   16     -5.17      0.00
   47    8   16     -2.45      0.00
   48    8   16      0.79      0.00
   49    8   16     -1.32      0.00
    1    9   16     -2.56      0.00
    2    9   16     -1.04      0.00
    3    9   16      8.27      0.00
    4    9   16      6.43      0.00
    5    9   16      4.09      0.00
    6    9   16     -7.53      0.00
    7    9   16     -6.03      0.00
    8    9   16      1.42      0.00
    9    9   16      7.74      0.00
   10    9   16     -1.49      0.00
   11    9   16      0.79      0.00
   12    9   16      6.29      0.00
   13    9   16     -3.03      0.00
   14    9   16      1.41      0.00
   15    9   16      4.92      0.00
   16    9   16    -10.61      0.00
   17    9   16      5.90      0.00
   18    9   16      7.09      0.00
   19    9   16      5.88      0.00
   20    9   16     -7.73      0.00
   21    9   16     -8.01      0.00
   22    9   16      6.31      0.00
   23    9   16     -0.38      0.00
   24    9   16      1.87      0.00
   25    9   16     12.31      0.00
   26    9   16     -5.50      0.00
   27    9   16     -8.57      0.00
   28    9   16      3.60      0.00
   29    9   16      5.62      0.00
   30    9   16     -6.92      0.00
   31    9   16     -1.88      0.00
   32    9   16     -3.73      0.00
   33    9   16      1.18      0.00
   34    9   16      9.08      0.00
   35    9   16      4.54      0.00
   36    9   16      0.68      0.00
   37    9   16    -10.50      0.00
   38    9   16     -1.48      0.00
   39    9   16     11.45      0.00
   40    9   16     -6.20      0.00
   41    9   16     -7.17      0.00
   42    9   16     -1.15      0.00
   43    9   16     -0.52      0.00
   44    9   16      5.84      0.00
    0   10   16     15.07      0.00
    1   10   16     15.44      0.00
    2   10   16    -12.89      0.00
    3   10   16     -8.36      0.00
    4   10   16      4.08      0.00
    5   10   16     -3.63      0.00
    6   10   16     -0.35      0.00
    7   10   16      9.24      0.00
    8   10   16     -6.35      0.00
    9   10   16     -3.13      0.00
   10   10   16     10.95      0.00
   11   10   16      3.49      0.00
   12   10   16    -17.81      0.00
   13   10   16     -0.43      0.00
   14   10   16     11.89      0.00
   15   10   16     -7.11      0.00
   16   10   16     -1.19      0.00
   17   10   16      5.61      0.00
   18   10   16     -0.83      0.00
   19   10   16     -1.27      0.00
   20   10   16    -12.13      0.00
   21   10   16      3.73      0.00
   22   10   16     14.41      0.00
   23   10   16     -3.62      0.00
   24   10   16     -9.66      0.00
   25   10   16      0.89      0.00
   26   10   16      5.38      0.00
   27   10   16      2.44      0.00
   28   10   16      6.52      0.00
   29   10   16     -9.68      0.00
   30   10   16    -10.53      0.00
   31   10   16      6.36      0.00
   32   10   16      6.33      0.00
   33   10   16      4.01      0.00
   34   10   16     -3.47      0.00
   35   10   16    -10.46      0.00
   36   10   16      2.64      0.00
   37   10   16      6.92      0.00
   38   10   16      1.92      0.00
   39   10   16      0.94      0.00
    1   11   16      0.25      0.00
    2   11   16     -2.75      0.00
    3   11   16     -5.54      0.00
    4   11   16      3.84      0.00
    5   11   16      6.74      0.00
    6   11   16     -2.16      0.00
    7   11   16     -8.14      0.00
    8   11   16     -1.88      0.00
    9   11   16    -12.49      0.00
   10   11   16      2.10      0.00
   11   11   16     17.29      0.00
   12   11   16     -9.28      0.00
   13   11   16     -8.98      0.00
   14   11   16     14.58      0.00
   15   11   16     -0.73      0.00
   16   11   16    -15.06      0.00
   17   11   16     -3.00      0.00
   18   11   16      6.30      0.00
   19   11   16      0.20      0.00
   20   11   16      7.16      0.00
   21   11   16     -7.89      0.00
   22   11   16    -14.87      0.00
   23   11   16      3.79      0.00
   24   11   16      7.21      0.00
   25   11   16      5.74      0.00
   26   11   16     -0.83      0.00
   27   11   16    -11.63      0.00
   28   11   16      1.85      0.00
   29   11   16      8.81      0.00
   30   11   16      1.61      0.00
   31   11   16     -3.26      0.00
   32   11   16     -2.46      0.00
    0   12   16     14.01      0.00
    1   12   16     -4.13      0.00
    2   12   16    -11.04      0.00
    3   12   16      2.38      0.00
    4   12   16      1.99      0.00
    5   12   16     -2.78      0.00
    6   12   16      3.38      0.00
    7   12   16      5.57      0.00
    8   12   16     -1.08      0.00
    9   12   16     -1.87      0.00
   10   12   16      2.34      0.00
   11   12   16     -5.68      0.00
   12   12   16     -4.45      0.00
   13   12   16     -5.44      0.00
   14   12   16      0.88      0.00
   15   12   16     14.13      0.00
   16   12   16      5.55      0.00
   17   12   16     -4.94      0.00
   18   12   16     -9.64      0.00
   19   12   16     -1.14      0.00
   20   12   16     11.83      0.00
   21   12   16     -2.10      0.00
   22   12   16     -5.19      0.00
    1    0   17      2.71      0.00
    2    0   17      1.55      0.00
    3    0   17     -2.68      0.00
    4    0   17      6.23      0.00
    5    0   17     -0.58      0.00
    6    0   17     -7.11      0.00
    7    0   17      2.90      0.00
    8    0   17      9.03      0.00
    9    0   17      4.07      0.00
   10    0   17     -1.72      0.00
   11    0   17     -6.07      0.00
   12    0   17     -8.55      0.00
   13    0   17      6.16      0.00
   14    0   17     11.11      0.00
   15    0   17     -8.61      0.00
   16    0   17     -3.36      0.00
   17    0   17     -1.32      0.00
   18    0   17     -5.15      0.00
   19    0   17     12.01      0.00
   20    0   17      4.92      0.00
   21    0   17     -7.01      0.00
   22    0   17      1.66      0.00
   23    0   17     -9.87      0.00
   24    0   17     10.59      0.00
   25    0   17      4.36      0.00
   26    0   17    -26.77      0.00
   27    0   17     11.21      0.00
   28    0   17      8.79      0.00
   29    0   17     -8.81      0.00
   30    0   17      7.34      0.00
   31    0   17     -1.54      0.00
   32    0   17     -8.35      0.00
   33    0   17     -3.07      0.00
   34    0   17      9.48      0.00
   35    0   17     -4.84      0.00
   36    0   17    -10.09      0.00
   37    0   17     13.26      0.00
   38    0   17      5.25      0.00
   39    0   17     -8.55      0.00
   40    0   17     -1.68      0.00
   41    0   17      9.47      0.00
   42    0   17      1.44      0.00
   43    0   17     -3.03      0.00
   44    0   17     -0.51      0.00
   45    0   17    -15.57      0.00
   46    0   17     10.10      0.00
   47    0   17      1.33      0.00
   48    0   17     -2.57      0.00
   49    0   17     11.05      0.00
   50    0   17     -8.02      0.00
   51    0   17      2.32      0.00
   52    0   17     10.94      0.00
   53    0   17     -4.43      0.00
   54    0   17     -9.89      0.00
   55    0   17     -3.14      0.00
   56    0   17     17.20      0.00
   57    0   17     -2.77      0.00
   58    0   17    -13.63      0.00
    0    1   17     -6.62      0.00
    1    1   17     -7.50      0.00
    2    1   17      1.84      0.00
    3    1   17      4.96      0.00
    4    1   17      6.91      0.00
    5    1   17     -5.88      0.00
    6    1   17     -8.49      0.00
    7    1   17     -0.31      0.00
    8    1   17      3.88      0.00
    9    1   17     -1.03      0.00
   10    1   17      2.59      0.00
   11    1   17     -3.60      0.00
   12    1   17     -3.14      0.00
   13    1   17      5.78      0.00
   14    1   17     -1.96      0.00
   15    1   17    -10.45      0.00
   16    1   17      1.60      0.00
   17    1   17     -4.42      0.00
   18    1   17     -3.30      0.00
   19    1   17      5.66      0.00
   20    1   17     -4.76      0.00
   21    1   17     -0.90      0.00
   22    1   17     -5.88      0.00
   23    1   17     -4.39      0.00
   24    1   17     13.79      0.00
   25    1   17     -3.67      0.00
   26    1   17     -1.33      0.00
   27    1   17     -0.81      0.00
   28    1   17     -9.15      0.00
   29    1   17      4.64      0.00
   30    1   17     -0.21      0.00
   31    1   17      3.76      0.00
   32    1   17      6.36      0.00
   33    1   17     -7.78      0.00
   34    1   17     -4.69      0.00
   35    1   17      2.45      0.00
   36    1   17      4.68      0.00
   37    1   17     -2.65      0.00
   38    1   17     -0.76      0.00
   39    1   17     -2.42      0.00
   40    1   17      1.76      0.00
   41    1   17      7.25      0.00
   42    1   17      6.06      0.00
   43    1   17      3.36      0.00
   44    1   17    -11.31      0.00
   45    1   17      1.35      0.00
   46    1   17      6.87      0.00
   47    1   17    -10.56      0.00
   48    1   17      7.52      0.00
   49    1   17     -2.78      0.00
   50    1   17     -8.98      0.00
   51    1   17      7.97      0.00
   52    1   17      9.70      0.00
   53    1   17      2.08      0.00
   54    1   17     -7.16      0.00
   55    1   17      1.25      0.00
   56    1   17      4.72      0.00
   57    1   17     -2.24      0.00
   58    1   17     -2.71      0.00
   59    1   17     -5.12      0.00
   60    1   17      0.46      0.00
    1    2   17      7.30      0.00
    2    2   17      2.52      0.00
    3    2   17    -12.25      0.00
    4    2   17     -0.03      0.00
    5    2   17      6.72      0.00
    6    2   17      2.66      0.00
    7    2   17      1.90      0.00
    8    2   17     -7.35      0.00
    9    2   17     -7.25      0.00
   10    2   17     -0.37      0.00
   11    2   17      9.87      0.00
   12    2   17      2.40      0.00
   13    2   17     -4.80      0.00
   14    2   17     -5.69      0.00
   15    2   17      2.14      0.00
   16    2   17     10.60      0.00
   17    2   17     -0.01      0.00
   18    2   17     -2.09      0.00
   19    2   17     -5.21      0.00
   20    2   17     -6.52      0.00
   21    2   17      7.78      0.00
   22    2   17      8.74      0.00
   23    2   17     -2.81      0.00
   24    2   17    -17.03      0.00
   25    2   17      2.66      0.00
   26    2   17     13.42      0.00
   27    2   17     -3.92      0.00
   28    2   17      3.03      0.00
   29    2   17     -0.77      0.00
   30    2   17     -5.45      0.00
   31    2   17      3.80      0.00
   32    2   17      3.58      0.00
   33    2   17     -7.00      0.00
   34    2   17     -2.15      0.00
   35    2   17      9.80      0.00
   36    2   17      2.68      0.00
   37    2   17     -7.96      0.00
   38    2   17    -11.16      0.00
   39    2   17      4.36      0.00
   40    2   17      1.72      0.00
   41    2   17     -5.09      0.00
   42    2   17      8.74      0.00
   43    2   17      0.33      0.00
   44    2   17     -1.60      0.00
   45    2   17      3.50      0.00
   46    2   17     -8.17      0.00
   47    2   17      5.61      0.00
   48    2   17     -0.36      0.00
   49    2   17     -7.31      0.00
   50    2   17      4.19      0.00
   51    2   17     -1.03      0.00
   52    2   17    -13.21      0.00
   53    2   17      3.30      0.00
   54    2   17     14.77      0.00
   55    2   17      1.43      0.00
   56    2   17      0.42      0.00
   57    2   17      0.95      0.00
   58    2   17    -10.45      0.00
   59    2   17      2.86      0.00
   60    2   17      0.43      0.00
    0    3   17     -4.52      0.00
    1    3   17      7.41      0.00
    2    3   17     -3.10      0.00
    3    3   17     -6.71      0.00
    4    3   17     -2.22      0.00
    5    3   17      7.01      0.00
    6    3   17     14.04      0.00
    7    3   17     -8.05      0.00
    8    3   17     -6.82      0.00
    9    3   17      2.92      0.00
   10    3   17     -2.46      0.00
   11    3   17      7.95      0.00
   12    3   17      0.92      0.00
   13    3   17     -9.62      0.00
   14    3   17     -7.97      0.00
   15    3   17      4.66      0.00
   16    3   17      8.19      0.00
   17    3   17      3.62      0.00
   18    3   17      0.45      0.00
   19    3   17     -6.02      0.00
   20    3   17     -2.33      0.00
   21    3   17      0.92      0.00
   22    3   17     11.33      0.00
   23    3   17      3.92      0.00
   24    3   17    -15.41      0.00
   25    3   17     -6.87      0.00
   26    3   17      2.33      0.00
   27    3   17      4.83      0.00
   28    3   17      3.56      0.00
   29    3   17      3.95      0.00
   30    3   17     -1.05      0.00
   31    3   17     -4.29      0.00
   32    3   17     -3.71      0.00
   33    3   17     -2.02      0.00
   34    3   17      1.98      0.00
   35    3   17      2.40      0.00
   36    3   17      6.86      0.00
   37    3   17     -3.19      0.00
   38    3   17     -3.68      0.00
   39    3   17      4.02      0.00
   40    3   17    -11.38      0.00
   41    3   17      6.20      0.00
   42    3   17      5.86      0.00
   43    3   17    -10.53      0.00
   44    3   17      0.67      0.00
   45    3   17      8.71      0.00
   46    3   17      6.97      0.00
   47    3   17     -6.89      0.00
   48    3   17     -5.01      0.00
   49    3   17      4.12      0.00
   50    3   17     -2.12      0.00
   51    3   17      7.69      0.00
   52    3   17      1.09      0.00
   53    3   17     -9.07      0.00
   54    3   17     -3.59      0.00
   55    3   17      4.75      0.00
   56    3   17      0.81      0.00
   57    3   17     -3.23      0.00
   58    3   17      8.51      0.00
   59    3   17      8.76      0.00
    1    4   17      2.54      0.00
    2    4   17     -4.03      0.00
    3    4   17     -4.26      0.00
    4    4   17     -1.90      0.00
    5    4   17     -1.53      0.00
    6    4   17     -7.22      0.00
    7    4   17     -6.05      0.00
    8    4   17     13.99      0.00
    9    4   17      8.29      0.00
   10    4   17      2.53      0.00
   11    4   17     -4.82      0.00
   12    4   17    -11.21      0.00
   13    4   17     -2.07      0.00
   14    4   17      4.36      0.00
   15    4   17      2.24      0.00
   16    4   17     -0.14      0.00
   17    4   17      3.19      0.00
   18    4   17     -6.36      0.00
   19    4   17     -7.18      0.00
   20    4   17      7.86      0.00
   21    4   17      7.79      0.00
   22    4   17      0.27      0.00
   23    4   17      5.87      0.00
   24    4   17     -0.60      0.00
   25    4   17    -11.98      0.00
   26    4   17     -5.68      0.00
   27    4   17      7.54      0.00
   28    4   17      3.94      0.00
   29    4   17     -1.18      0.00
   30    4   17      4.98      0.00
   31    4   17      6.81      0.00
   32    4   17     -1.34      0.00
   33    4   17      4.61      0.00
   34    4   17     -7.58      0.00
   35    4   17    -10.69      0.00
   36    4   17     11.72      0.00
   37    4   17     12.38      0.00
   38    4   17     -4.75      0.00
   39    4   17    -12.11      0.00
   40    4   17      5.99      0.00
   41    4   17      8.12      0.00
   42    4   17     -6.58      0.00
   43    4   17      7.33      0.00
   44    4   17      3.78      0.00
   45    4   17     -7.28      0.00
   46    4   17      6.07      0.00
   47    4   17      0.84      0.00
   48    4   17     -9.82      0.00
   49    4   17     -6.66      0.00
   50    4   17      5.10      0.00
   51    4   17      7.09      0.00
   52    4   17      7.22      0.00
   53    4   17      3.50      0.00
   54    4   17    -14.02      0.00
   55    4   17     -9.05      0.00
   56    4   17      2.41      0.00
   57    4   17      3.39      0.00
    0    5   17      7.69      0.00
    1    5   17     -0.80      0.00
    2    5   17     -3.52      0.00
    3    5   17      9.87      0.00
    4    5   17      4.32      0.00
    5    5   17     -9.26      0.00
    6    5   17     -2.86      0.00
    7    5   17      2.30      0.00
    8    5   17     -4.55      0.00
    9    5   17      1.05      0.00
   10    5   17      6.66      0.00
   11    5   17      0.86      0.00
   12    5   17      3.36      0.00
   13    5   17      9.13      0.00
   14    5   17     -5.58      0.00
   15    5   17     -5.79      0.00
   16    5   17      5.60      0.00
   17    5   17     -5.17      0.00
   18    5   17     -2.94      0.00
   19    5   17      7.91      0.00
   20    5   17      1.38      0.00
   21    5   17      1.05      0.00
   22    5   17      4.54      0.00
   23    5   17     -2.72      0.00
   24    5   17      0.88      0.00
   25    5   17      9.73      0.00
   26    5   17     -5.04      0.00
   27    5   17     -9.66      0.00
   28    5   17      2.00      0.00
   29    5   17      3.86      0.00
   30    5   17      4.56      0.00
   31    5   17     -5.01      0.00
   32    5   17     -2.30      0.00
   33    5   17      3.69      0.00
   34    5   17      2.46      0.00
   35    5   17      3.40      0.00
   36    5   17      4.59      0.00
   37    5   17     -2.03      0.00
   38    5   17     -7.19      0.00
   39    5   17     -3.50      0.00
   40    5   17      1.55      0.00
   41    5   17    -10.01      0.00
   42    5   17     -5.58      0.00
   43    5   17     11.09      0.00
   44    5   17      5.88      0.00
   45    5   17     -0.06      0.00
   46    5   17      1.24      0.00
   47    5   17      0.75      0.00
   48    5   17      0.53      0.00
   49    5   17    -15.53      0.00
   50    5   17     -9.05      0.00
   51    5   17      2.59      0.00
   52    5   17      4.79      0.00
   53    5   17     10.44      0.00
   54    5   17      4.42      0.00
   55    5   17    -12.78      0.00
   56    5   17    -10.10      0.00
    1    6   17     -4.17      0.00
    2    6   17      1.96      0.00
    3    6   17      8.65      0.00
    4    6   17     -6.75      0.00
    5    6   17      1.69      0.00
    6    6   17     13.81      0.00
    7    6   17     -9.51      0.00
    8    6   17    -10.57      0.00
    9    6   17     -1.21      0.00
   10    6   17      4.01      0.00
   11    6   17     -0.10      0.00
   12    6   17      5.56      0.00
   13    6   17      7.44      0.00
   14    6   17    -13.73      0.00
   15    6   17      0.02      0.00
   16    6   17     10.43      0.00
   17    6   17     -7.61      0.00
   18    6   17      0.22      0.00
   19    6   17     -4.70      0.00
   20    6   17     -2.41      0.00
   21    6   17      1.42      0.00
   22    6   17      5.35      0.00
   23    6   17     -5.14      0.00
   24    6   17     -3.10      0.00
   25    6   17      5.71      0.00
   26    6   17     -0.32      0.00
   27    6   17     -4.49      0.00
   28    6   17     -4.21      0.00
   29    6   17     -2.83      0.00
   30    6   17      7.61      0.00
   31    6   17     -1.20      0.00
   32    6   17    -10.35      0.00
   33    6   17     -1.43      0.00
   34    6   17      5.88      0.00
   35    6   17     -6.53      0.00
   36    6   17     -2.25      0.00
   37    6   17      5.15      0.00
   38    6   17      3.82      0.00
   39    6   17      6.79      0.00
   40    6   17     -1.57      0.00
   41    6   17    -13.99      0.00
   42    6   17     -5.54      0.00
   43    6   17     -0.04      0.00
   44    6   17     -0.18      0.00
   45    6   17      1.80      0.00
   46    6   17      0.27      0.00
   47    6   17      8.92      0.00
   48    6   17      4.60      0.00
   49    6   17      0.49      0.00
   50    6   17      0.97      0.00
   51    6   17    -14.72      0.00
   52    6   17     -0.31      0.00
   53    6   17     10.07      0.00
    0    7   17      6.55      0.00
    1    7   17     -1.44      0.00
    2    7   17     -0.23      0.00
    3    7   17     -2.96      0.00
    4    7   17    -11.48      0.00
    5    7   17     10.30      0.00
    6    7   17      6.25      0.00
    7    7   17     -0.53      0.00
    8    7   17      7.22      0.00
    9    7   17    -15.13      0.00
   10    7   17     -9.38      0.00
   11    7   17      6.43      0.00
   12    7   17      5.61      0.00
   13    7   17     -7.16      0.00
   14    7   17      2.76      0.00
   15    7   17      4.02      0.00
   16    7   17    -15.63      0.00
   17    7   17     12.43      0.00
   18    7   17      7.46      0.00
   19    7   17    -12.25      0.00
   20    7   17     -3.50      0.00
   21    7   17     -6.30      0.00
   22    7   17      6.45      0.00
   23    7   17      2.84      0.00
   24    7   17     -1.19      0.00
   25    7   17      4.61      0.00
   26    7   17     -7.06      0.00
   27    7   17      0.33      0.00
   28    7   17      0.45      0.00
   29    7   17     -7.30      0.00
   30    7   17     -2.00      0.00
   31    7   17      7.39      0.00
   32    7   17      2.43      0.00
   33    7   17      3.62      0.00
   34    7   17     -3.06      0.00
   35    7   17     -8.69      0.00
   36    7   17     -1.38      0.00
   37    7   17      4.19      0.00
   38    7   17      6.55      0.00
   39    7   17     -0.87      0.00
   40    7   17    -10.52      0.00
   41    7   17      9.74      0.00
   42    7   17      6.92      0.00
   43    7   17     -6.67      0.00
   44    7   17      3.99      0.00
   45    7   17     -1.60      0.00
   46    7   17     -9.01      0.00
   47    7   17      1.59      0.00
   48    7   17     -1.46      0.00
   49    7   17      8.02      0.00
   50    7   17      9.01      0.00
    1    8   17     -0.07      0.00
    2    8   17      9.50      0.00
    3    8   17     -0.57      0.00
    4    8   17     -9.36      0.00
    5    8   17      5.91      0.00
    6    8   17     -6.60      0.00
    7    8   17      7.49      0.00
    8    8   17     11.53      0.00
    9    8   17     -2.97      0.00
   10    8   17     -5.27      0.00
   11    8   17      6.05      0.00
   12    8   17      0.22      0.00
   13    8   17     -9.51      0.00
   14    8   17      8.47      0.00
   15    8   17      7.55      0.00
   16    8   17    -11.54      0.00
   17    8   17      0.18      0.00
   18    8   17      1.98      0.00
   19    8   17     17.12      0.00
   20    8   17     -1.98      0.00
   21    8   17     -3.88      0.00
   22    8   17     -2.64      0.00
   23    8   17    -14.07      0.00
   24    8   17     10.36      0.00
   25    8   17      9.33      0.00
   26    8   17     -9.29      0.00
   27    8   17     13.42      0.00
   28    8   17      8.85      0.00
   29    8   17     -8.51      0.00
   30    8   17     -8.42      0.00
   31    8   17     -6.28      0.00
   32    8   17     -3.76      0.00
   33    8   17     12.50      0.00
   34    8   17      7.09      0.00
   35    8   17     -2.25      0.00
   36    8   17      0.17      0.00
   37    8   17     -3.89      0.00
   38    8   17      1.63      0.00
   39    8   17      2.05      0.00
   40    8   17     -7.07      0.00
   41    8   17      0.51      0.00
   42    8   17      4.40      0.00
   43    8   17      0.19      0.00
   44    8   17      0.55      0.00
   45    8   17     -2.08      0.00
   46    8   17     -0.91      0.00
   47    8   17      2.51      0.00
    0    9   17     10.15      0.00
    1    9   17    -16.50      0.00
    2    9   17     -5.46      0.00
    3    9   17      9.60      0.00
    4    9   17      7.52      0.00
    5    9   17    -11.26      0.00
    6    9   17    -10.88      0.00
    7    9   17      8.14      0.00
    8    9   17     -3.48      0.00
    9    9   17      9.11      0.00
   10    9   17     17.09      0.00
   11    9   17    -10.31      0.00
   12    9   17    -17.46      0.00
   13    9   17     10.14      0.00
   14    9   17     10.22      0.00
   15    9   17    -12.12      0.00
   16    9   17      6.30      0.00
   17    9   17      0.62      0.00
   18    9   17    -15.38      0.00
   19    9   17      4.81      0.00
   20    9   17     11.57      0.00
   21    9   17      8.96      0.00
   22    9   17     -5.20      0.00
   23    9   17     -4.75      0.00
   24    9   17      0.83      0.00
   25    9   17    -10.70      0.00
   26    9   17      3.61      0.00
   27    9   17      2.42      0.00
   28    9   17     -0.88      0.00
   29    9   17      5.86      0.00
   30    9   17      5.27      0.00
   31    9   17      2.67      0.00
   32    9   17     -3.31      0.00
   33    9   17    -10.94      0.00
   34    9   17     -4.73      0.00
   35    9   17      4.59      0.00
   36    9   17      7.25      0.00
   37    9   17      1.41      0.00
   38    9   17     -1.28      0.00
   39    9   17     -6.61      0.00
   40    9   17      4.17      0.00
   41    9   17      8.14      0.00
   42    9   17     -4.36      0.00
    1   10   17      1.61      0.00
    2   10   17     12.66      0.00
    3   10   17     -0.90      0.00
    4   10   17     -5.17      0.00
    5   10   17     -8.23      0.00
    6   10   17      0.15      0.00
    7   10   17     -7.79      0.00
    8   10   17     -4.43      0.00
    9   10   17      2.81      0.00
   10   10   17     -2.67      0.00
   11   10   17      4.23      0.00
   12   10   17     11.16      0.00
   13   10   17     -6.64      0.00
   14   10   17     -8.92      0.00
   15   10   17     -0.62      0.00
   16   10   17     -1.66      0.00
   17   10   17      1.34      0.00
   18   10   17     10.85      0.00
   19   10   17    -20.07      0.00
   20   10   17    -10.60      0.00
   21   10   17      9.61      0.00
   22   10   17     -0.54      0.00
   23   10   17      6.22      0.00
   24   10   17      9.90      0.00
   25   10   17     -2.27      0.00
   26   10   17    -11.32      0.00
   27   10   17     -8.14      0.00
   28   10   17      6.11      0.00
   29   10   17     -2.73      0.00
   30   10   17      1.18      0.00
   31   10   17      6.86      0.00
   32   10   17     -2.79      0.00
   33   10   17     -1.44      0.00
   34   10   17      3.27      0.00
   35   10   17      6.47      0.00
   36   10   17     -2.32      0.00
   37   10   17     -9.18      0.00
    0   11   17    -18.63      0.00
    1   11   17      7.73      0.00
    2   11   17      8.79      0.00
    3   11   17     -7.88      0.00
    4   11   17      2.42      0.00
    5   11   17     19.11      0.00
    6   11   17     -4.91      0.00
    7   11   17    -17.91      0.00
    8   11   17      5.48      0.00
    9   11   17      1.30      0.00
   10   11   17     -7.81      0.00
   11   11   17     -0.78      0.00
   12   11   17     -0.51      0.00
   13   11   17     -7.73      0.00
   14   11   17      8.31      0.00
   15   11   17     19.39      0.00
   16   11   17     -7.24      0.00
   17   11   17    -18.34      0.00
   18   11   17      5.96      0.00
   19   11   17     20.66      0.00
   20   11   17     -7.32      0.00
   21   11   17    -20.49      0.00
   22   11   17      4.14      0.00
   23   11   17     -2.21      0.00
   24   11   17      0.00      0.00
   25   11   17     14.68      0.00
   26   11   17     -2.13      0.00
   27   11   17     -2.12      0.00
   28   11   17      3.02      0.00
   29   11   17      1.45      0.00
    1   12   17     -0.92      0.00
    2   12   17      4.74      0.00
    3   12   17     -4.62      0.00
    4   12   17     -3.00      0.00
    5   12   17     18.44      0.00
    6   12   17     -1.41      0.00
    7   12   17    -17.27      0.00
    8   12   17      5.14      0.00
    9   12   17     13.95      0.00
   10   12   17      0.38      0.00
   11   12   17      9.42      0.00
   12   12   17      0.59      0.00
   13   12   17    -22.62      0.00
   14   12   17     -5.50      0.00
   15   12   17     12.71      0.00
   16   12   17      4.27      0.00
   17   12   17     -4.72      0.00
   18   12   17     10.16      0.00
    0    0   18     -0.87      0.00
    1    0   18     16.68      0.00
    2    0   18     10.85      0.00
    3    0   18     -0.76      0.00
    4    0   18    -20.54      0.00
    5    0   18     -6.62      0.00
    6    0   18     12.44      0.00
    7    0   18      0.58      0.00
    8    0   18     10.36      0.00
    9    0   18     -0.36      0.00
   10    0   18    -15.14      0.00
   11    0   18    -11.67      0.00
   12    0   18      0.88      0.00
   13    0   18     10.81      0.00
   14    0   18      1.73      0.00
   15    0   18      0.80      0.00
   16    0   18      5.02      0.00
   17    0   18    -21.36      0.00
   18    0   18      0.37      0.00
   19    0   18     15.17      0.00
   20    0   18    -23.55      0.00
   21    0   18     -2.74      0.00
   22    0   18      5.59      0.00
   23    0   18     -9.17      0.00
   24    0   18      8.55      0.00
   25    0   18      2.38      0.00
   26    0   18      4.37      0.00
   27    0   18     -1.98      0.00
   28    0   18     -1.12      0.00
   29    0   18      5.85      0.00
   30    0   18    -11.84      0.00
   31    0   18     -9.68      0.00
   32    0   18      1.00      0.00
   33    0   18      6.94      0.00
   34    0   18     -1.16      0.00
   35    0   18      2.62      0.00
   36    0   18     17.98      0.00
   37    0   18     -6.83      0.00
   38    0   18    -14.13      0.00
   39    0   18     -0.67      0.00
   40    0   18      6.77      0.00
   41    0   18      5.47      0.00
   42    0   18      4.48      0.00
   43    0   18      2.70      0.00
   44    0   18    -10.45      0.00
   45    0   18      3.64      0.00
   46    0   18      6.66      0.00
   47    0   18     -3.63      0.00
   48    0   18      1.74      0.00
   49    0   18     -4.22      0.00
   50    0   18      7.37      0.00
   51    0   18      7.52      0.00
   52    0   18    -15.77      0.00
   53    0   18    -11.66      0.00
   54    0   18     10.06      0.00
   55    0   18     20.30      0.00
   56    0   18     -0.25      0.00
    1    1   18     -0.55      0.00
    2    1   18      7.73      0.00
    3    1   18     -8.07      0.00
    4    1   18     -7.23      0.00
    5    1   18     13.57      0.00
    6    1   18     -3.39      0.00
    7    1   18     -8.74      0.00
    8    1   18     -2.73      0.00
    9    1   18      1.54      0.00
   10    1   18      8.62      0.00
   11    1   18     -4.00      0.00
   12    1   18    -11.02      0.00
   13    1   18     -1.08      0.00
   14    1   18     -2.63      0.00
   15    1   18      6.81      0.00
   16    1   18      0.25      0.00
   17    1   18     -6.30      0.00
   18    1   18     10.91      0.00
   19    1   18     -0.19      0.00
   20    1   18     -4.36      0.00
   21    1   18      3.33      0.00
   22    1   18    -14.82      0.00
   23    1   18     -2.11      0.00
   24    1   18      5.65      0.00
   25    1   18     -1.11      0.00
   26    1   18     -3.76      0.00
   27    1   18      0.25      0.00
   28    1   18     15.94      0.00
   29    1   18      2.72      0.00
   30    1   18      0.19      0.00
   31    1   18      1.51      0.00
   32    1   18    -10.99      0.00
   33    1   18     -9.84      0.00
   34    1   18      0.60      0.00
   35    1   18     12.78      0.00
   36    1   18     -1.96      0.00
   37    1   18     -4.61      0.00
   38    1   18      5.91      0.00
   39    1   18      1.43      0.00
   40    1   18     -0.17      0.00
   41    1   18     -2.17      0.00
   42    1   18     -5.14      0.00
   43    1   18      0.45      0.00
   44    1   18      6.73      0.00
   45    1   18      2.75      0.00
   46    1   18    -11.48      0.00
   47    1   18      3.96      0.00
   48    1   18      1.72      0.00
   49    1   18      1.31      0.00
   50    1   18      3.22      0.00
   51    1   18     -7.52      0.00
   52    1   18     -0.88      0.00
   53    1   18      7.99      0.00
   54    1   18     -0.38      0.00
   55    1   18     -9.58      0.00
   56    1   18     -6.11      0.00
   57    1   18     11.98      0.00
   58    1   18      5.61      0.00
   59    1   18      5.44      0.00
    0    2   18     -4.79      0.00
    1    2   18     -5.43      0.00
    2    2   18     -2.58      0.00
    3    2   18      4.64      0.00
    4    2   18      9.44      0.00
    5    2   18     -4.07      0.00
    6    2   18     -4.98      0.00
    7    2   18      0.70      0.00
    8    2   18     -7.36      0.00
    9    2   18      5.07      0.00
   10    2   18      9.27      0.00
   11    2   18      5.51      0.00
   12    2   18      2.66      0.00
   13    2   18    -10.31      0.00
   14    2   18    -15.46      0.00
   15    2   18      2.07      0.00
   16    2   18     13.64      0.00
   17    2   18     13.41      0.00
   18    2   18      0.35      0.00
   19    2   18    -12.57      0.00
   20    2   18     -0.28      0.00
   21    2   18      7.66      0.00
   22    2   18      4.27      0.00
   23    2   18      2.37      0.00
   24    2   18     -3.61      0.00
   25    2   18     -5.85      0.00
   26    2   18     -2.67      0.00
   27    2   18      1.22      0.00
   28    2   18     -8.84      0.00
   29    2   18      0.44      0.00
   30    2   18     15.29      0.00
   31    2   18      5.76      0.00
   32    2   18      1.62      0.00
   33    2   18     -1.46      0.00
   34    2   18     -8.08      0.00
   35    2   18     -6.37      0.00
   36    2   18     -7.27      0.00
   37    2   18     -0.76      0.00
   38    2   18      7.98      0.00
   39    2   18      1.72      0.00
   40    2   18     -4.32      0.00
   41    2   18      5.69      0.00
   42    2   18     -3.28      0.00
   43    2   18     -7.62      0.00
   44    2   18      8.43      0.00
   45    2   18     -0.52      0.00
   46    2   18     -5.36      0.00
   47    2   18      5.74      0.00
   48    2   18      1.92      0.00
   49    2   18     -7.54      0.00
   50    2   18     -7.91      0.00
   51    2   18      4.15      0.00
   52    2   18      3.13      0.00
   53    2   18      0.86      0.00
   54    2   18      4.40      0.00
   55    2   18     -5.44      0.00
   56    2   18      4.09      0.00
   57    2   18      6.02      0.00
   58    2   18     -8.23      0.00
    1    3   18     -3.09      0.00
    2    3   18      1.11      0.00
    3    3   18      8.59      0.00
    4    3   18     -7.85      0.00
    5    3   18     -7.95      0.00
    6    3   18      9.24      0.00
    7    3   18     -2.46      0.00
    8    3   18     -0.11      0.00
    9    3   18     -0.65      0.00
   10    3   18     -3.92      0.00
   11    3   18      7.57      0.00
   12    3   18      8.86      0.00
   13    3   18     -4.28      0.00
   14    3   18     -8.00      0.00
   15    3   18      1.03      0.00
   16    3   18      1.80      0.00
   17    3   18     -1.86      0.00
   18    3   18     -1.30      0.00
   19    3   18     -2.02      0.00
   20    3   18      5.11      0.00
   21    3   18      6.78      0.00
   22    3   18     -0.56      0.00
   23    3   18     -1.60      0.00
   24    3   18     -6.92      0.00
   25    3   18      3.00      0.00
   26    3   18     12.28      0.00
   27    3   18     -3.94      0.00
   28    3   18     -9.44      0.00
   29    3   18     -0.98      0.00
   30    3   18     -2.57      0.00
   31    3   18      3.54      0.00
   32    3   18      7.45      0.00
   33    3   18      2.89      0.00
   34    3   18      0.00      0.00
   35    3   18      4.14      0.00
   36    3   18      1.45      0.00
   37    3   18     -5.41      0.00
   38    3   18     -7.67      0.00
   39    3   18     -1.79      0.00
   40    3   18     11.50      0.00
   41    3   18      4.99      0.00
   42    3   18     -1.15      0.00
   43    3   18     -4.33      0.00
   44    3   18     -6.59      0.00
   45    3   18      4.99      0.00
   46    3   18      4.67      0.00
   47    3   18      1.95      0.00
   48    3   18     10.68      0.00
   49    3   18     -7.28      0.00
   50    3   18     -4.74      0.00
   51    3   18      4.06      0.00
   52    3   18    -11.38      0.00
   53    3   18     -2.77      0.00
   54    3   18      6.70      0.00
   55    3   18     -0.43      0.00
   56    3   18      6.04      0.00
   57    3   18     -1.41      0.00
    0    4   18     11.11      0.00
    1    4   18      4.81      0.00
    2    4   18     -1.40      0.00
    3    4   18      4.97      0.00
    4    4   18     -7.32      0.00
    5    4   18      2.42      0.00
    6    4   18      7.89      0.00
    7    4   18     -8.92      0.00
    8    4   18     -9.16      0.00
    9    4   18      2.33      0.00
   10    4   18      6.03      0.00
   11    4   18      2.39      0.00
   12    4   18      3.97      0.00
   13    4   18     -3.46      0.00
   14    4   18     -4.71      0.00
   15    4   18      7.60      0.00
   16    4   18      2.13      0.00
   17    4   18     -2.91      0.00
   18    4   18      0.05      0.00
   19    4   18      1.78      0.00
   20    4   18      1.49      0.00
   21    4   18     -4.76      0.00
   22    4   18      3.66      0.00
   23    4   18      0.96      0.00
   24    4   18      0.83      0.00
   25    4   18      8.96      0.00
   26    4   18    -11.75      0.00
   27    4   18     -4.51      0.00
   28    4   18     15.96      0.00
   29    4   18     -1.27      0.00
   30    4   18     -1.24      0.00
   31    4   18      2.69      0.00
   32    4   18     -1.36      0.00
   33    4   18     -2.00      0.00
   34    4   18      4.89      0.00
   35    4   18      0.29      0.00
   36    4   18     -1.39      0.00
   37    4   18      5.42      0.00
   38    4   18     -3.86      0.00
   39    4   18     -7.39      0.00
   40    4   18      0.88      0.00
   41    4   18      3.56      0.00
   42    4   18      6.95      0.00
   43    4   18      1.88      0.00
   44    4   18     -4.91      0.00
   45    4   18     -7.26      0.00
   46    4   18      2.31      0.00
   47    4   18      4.37      0.00
   48    4   18     -7.39      0.00
   49    4   18     -3.17      0.00
   50    4   18      5.27      0.00
   51    4   18      1.04      0.00
   52    4   18      8.84      0.00
   53    4   18     -0.24      0.00
   54    4   18    -20.82      0.00
   55    4   18     -5.27      0.00
   56    4   18      8.88      0.00
    1    5   18     -6.03      0.00
    2    5   18      0.97      0.00
    3    5   18      3.96      0.00
    4    5   18      8.06      0.00
    5    5   18     11.20      0.00
    6    5   18     -9.22      0.00
    7    5   18     -6.47      0.00
    8    5   18      7.53      0.00
    9    5   18     -1.55      0.00
   10    5   18     -5.54      0.00
   11    5   18      0.43      0.00
   12    5   18      2.53      0.00
   13    5   18      1.57      0.00
   14    5   18      3.58      0.00
   15    5   18     -3.21      0.00
   16    5   18     -5.86      0.00
   17    5   18      0.05      0.00
   18    5   18      4.51      0.00
   19    5   18      2.91      0.00
   20    5   18     -2.05      0.00
   21    5   18     -1.77      0.00
   22    5   18      4.95      0.00
   23    5   18     -3.66      0.00
   24    5   18      9.59      0.00
   25    5   18     -4.83      0.00
   26    5   18    -15.57      0.00
   27    5   18     -0.46      0.00
   28    5   18     -3.88      0.00
   29    5   18      6.41      0.00
   30    5   18      7.60      0.00
   31    5   18     -7.46      0.00
   32    5   18     -1.65      0.00
   33    5   18     -1.54      0.00
   34    5   18      1.49      0.00
   35    5   18      3.56      0.00
   36    5   18     -2.09      0.00
   37    5   18     -3.81      0.00
   38    5   18      7.74      0.00
   39    5   18     -6.95      0.00
   40    5   18    -19.47      0.00
   41    5   18      3.29      0.00
   42    5   18      5.73      0.00
   43    5   18     -0.23      0.00
   44    5   18      1.22      0.00
   45    5   18      4.28      0.00
   46    5   18      2.15      0.00
   47    5   18     -3.19      0.00
   48    5   18     -2.15      0.00
   49    5   18     -1.85      0.00
   50    5   18     -3.88      0.00
   51    5   18     -5.25      0.00
   52    5   18      4.87      0.00
   53    5   18     10.95      0.00
   54    5   18     -0.04      0.00
    0    6   18     -4.80      0.00
    1    6   18     -4.55      0.00
    2    6   18     -1.85      0.00
    3    6   18     -8.96      0.00
    4    6   18      4.54      0.00
    5    6   18      8.66      0.00
    6    6   18     -0.64      0.00
    7    6   18      8.27      0.00
    8    6   18     -4.55      0.00
    9    6   18    -18.95      0.00
   10    6   18     -0.14      0.00
   11    6   18      6.96      0.00
   12    6   18      6.04      0.00
   13    6   18      1.80      0.00
   14    6   18     -5.76      0.00
   15    6   18     -4.67      0.00
   16    6   18     -1.49      0.00
   17    6   18      2.85      0.00
   18    6   18     -3.75      0.00
   19    6   18    -10.97      0.00
   20    6   18     -6.41      0.00
   21    6   18     12.68      0.00
   22    6   18      3.20      0.00
   23    6   18     -1.88      0.00
   24    6   18      2.75      0.00
   25    6   18     -6.11      0.00
   26    6   18      3.54      0.00
   27    6   18     -0.88      0.00
   28    6   18    -11.77      0.00
   29    6   18      0.51      0.00
   30    6   18     -3.57      0.00
   31    6   18      0.18      0.00
   32    6   18      3.35      0.00
   33    6   18     -1.47      0.00
   34    6   18     -8.11      0.00
   35    6   18      8.96      0.00
   36    6   18      5.27      0.00
   37    6   18     -3.00      0.00
   38    6   18      4.01      0.00
   39    6   18     -2.67      0.00
   40    6   18      0.08      0.00
   41    6   18     -2.09      0.00
   42    6   18     -7.01      0.00
   43    6   18      1.12      0.00
   44    6   18      0.17      0.00
   45    6   18      1.82      0.00
   46    6   18      4.85      0.00
   47    6   18      7.99      0.00
   48    6   18     -2.45      0.00
   49    6   18      2.61      0.00
   50    6   18      0.12      0.00
   51    6   18    -10.20      0.00
    1    7   18      1.08      0.00
    2    7   18     -6.03      0.00
    3    7   18     -2.88      0.00
    4    7   18      1.60      0.00
    5    7   18      1.78      0.00
    6    7   18      4.95      0.00
    7    7   18     10.10      0.00
    8    7   18     -7.83      0.00
    9    7   18     -4.26      0.00
   10    7   18      1.72      0.00
   11    7   18      0.97      0.00
   12    7   18     -6.12      0.00
   13    7   18     -3.00      0.00
   14    7   18     10.81      0.00
   15    7   18      3.75      0.00
   16    7   18     -4.59      0.00
   17    7   18      9.97      0.00
   18    7   18      0.23      0.00
   19    7   18     -5.14      0.00
   20    7   18     -6.51      0.00
   21    7   18     -4.83      0.00
   22    7   18     -2.71      0.00
   23    7   18     13.57      0.00
   24    7   18      3.15      0.00
   25    7   18     -3.46      0.00
   26    7   18      6.63      0.00
   27    7   18      4.22      0.00
   28    7   18     -5.55      0.00
   29    7   18     -0.63      0.00
   30    7   18      4.06      0.00
   31    7   18     -1.79      0.00
   32    7   18     -3.70      0.00
   33    7   18     -3.90      0.00
   34    7   18     -0.53      0.00
   35    7   18      7.38      0.00
   36    7   18      2.97      0.00
   37    7   18      4.68      0.00
   38    7   18     -3.37      0.00
   39    7   18      0.53      0.00
   40    7   18     10.01      0.00
   41    7   18     -2.84      0.00
   42    7   18    -10.99      0.00
   43    7   18     -6.15      0.00
   44    7   18      9.51      0.00
   45    7   18      2.57      0.00
   46    7   18     -1.81      0.00
   47    7   18     -0.41      0.00
   48    7   18     -2.49      0.00
    0    8   18     -3.01      0.00
    1    8   18     -0.78      0.00
    2    8   18      7.07      0.00
    3    8   18     -7.50      0.00
    4    8   18     -6.10      0.00
    5    8   18      0.00      0.00
    6    8   18      2.87      0.00
    7    8   18      7.20      0.00
    8    8   18      6.38      0.00
    9    8   18      2.17      0.00
   10    8   18     -1.97      0.00
   11    8   18      1.31      0.00
   12    8   18     -6.96      0.00
   13    8   18     -2.08      0.00
   14    8   18      9.82      0.00
   15    8   18     -5.26      0.00
   16    8   18      2.66      0.00
   17    8   18      1.19      0.00
   18    8   18     -2.34      0.00
   19    8   18     10.87      0.00
   20    8   18      6.74      0.00
   21    8   18     -4.14      0.00
   22    8   18     -3.64      0.00
   23    8   18     -5.92      0.00
   24    8   18     -3.47      0.00
   25    8   18      2.58      0.00
   26    8   18      7.24      0.00
   27    8   18     -0.29      0.00
   28    8   18      2.89      0.00
   29    8   18      3.52      0.00
   30    8   18      6.11      0.00
   31    8   18     -0.05      0.00
   32    8   18    -10.09      0.00
   33    8   18     -2.66      0.00
   34    8   18      0.79      0.00
   35    8   18     -8.79      0.00
   36    8   18      7.70      0.00
   37    8   18      3.09      0.00
   38    8   18     -3.30      0.00
   39    8   18     10.04      0.00
   40    8   18      4.33      0.00
   41    8   18     -5.96      0.00
   42    8   18     -4.24      0.00
   43    8   18      2.55      0.00
   44    8   18     -1.84      0.00
   45    8   18     -7.42      0.00
    1    9   18      5.78      0.00
    2    9   18      5.07      0.00
    3    9   18    -10.19      0.00
    4    9   18      4.96      0.00
    5    9   18      2.35      0.00
    6    9   18    -18.83      0.00
    7    9   18    -15.37      0.00
    8    9   18     19.71      0.00
    9    9   18      3.99      0.00
   10    9   18     -5.86      0.00
   11    9   18     12.21      0.00
   12    9   18     -3.28      0.00
   13    9   18    -18.00      0.00
   14    9   18      1.49      0.00
   15    9   18     14.00      0.00
   16    9   18      0.52      0.00
   17    9   18    -25.33      0.00
   18    9   18      0.04      0.00
   19    9   18      3.82      0.00
   20    9   18      6.74      0.00
   21    9   18     15.40      0.00
   22    9   18     -7.04      0.00
   23    9   18    -17.76      0.00
   24    9   18      1.96      0.00
   25    9   18      6.79      0.00
   26    9   18     -5.03      0.00
   27    9   18     -3.89      0.00
   28    9   18     -1.14      0.00
   29    9   18     -4.64      0.00
   30    9   18     15.48      0.00
   31    9   18      1.54      0.00
   32    9   18     -8.88      0.00
   33    9   18     10.51      0.00
   34    9   18     -1.35      0.00
   35    9   18     -6.63      0.00
   36    9   18     -2.80      0.00
   37    9   18     -5.43      0.00
   38    9   18     -4.07      0.00
   39    9   18      2.00      0.00
   40    9   18     12.13      0.00
    0   10   18    -10.42      0.00
    1   10   18     -2.39      0.00
    2   10   18     -0.87      0.00
    3   10   18      0.46      0.00
    4   10   18     13.66      0.00
    5   10   18      8.28      0.00
    6   10   18    -18.19      0.00
    7   10   18     -4.34      0.00
    8   10   18      7.13      0.00
    9   10   18    -14.17      0.00
   10   10   18     -6.93      0.00
   11   10   18      5.09      0.00
   12   10   18      5.68      0.00
   13   10   18      5.76      0.00
   14   10   18      1.19      0.00
   15   10   18      1.73      0.00
   16   10   18    -13.82      0.00
   17   10   18     -3.76      0.00
   18   10   18      7.94      0.00
   19   10   18     -6.37      0.00
   20   10   18     -2.67      0.00
   21   10   18      3.31      0.00
   22   10   18      0.98      0.00
   23   10   18      1.84      0.00
   24   10   18      4.27      0.00
   25   10   18     -2.94      0.00
   26   10   18     -9.57      0.00
   27   10   18      7.56      0.00
   28   10   18     -3.85      0.00
   29   10   18     -1.78      0.00
   30   10   18      5.47      0.00
   31   10   18     -8.06      0.00
   32   10   18      1.49      0.00
   33   10   18      2.57      0.00
   34   10   18      1.34      0.00
    1   11   18     -1.69      0.00
    2   11   18    -10.94      0.00
    3   11   18      8.74      0.00
    4   11   18     12.11      0.00
    5   11   18    -10.42      0.00
    6   11   18     -0.76      0.00
    7   11   18      7.82      0.00
    8   11   18     -2.60      0.00
    9   11   18     17.15      0.00
   10   11   18     -2.02      0.00
   11   11   18    -19.51      0.00
   12   11   18     -1.74      0.00
   13   11   18     -1.33      0.00
   14   11   18      9.61      0.00
   15   11   18     17.64      0.00
   16   11   18     -4.46      0.00
   17   11   18     -2.86      0.00
   18   11   18      0.87      0.00
   19   11   18     -5.59      0.00
   20   11   18     -1.57      0.00
   21   11   18     12.20      0.00
   22   11   18      0.61      0.00
   23   11   18     -2.85      0.00
   24   11   18      2.23      0.00
   25   11   18     -9.25      0.00
   26   11   18      5.47      0.00
    0   12   18     16.35      0.00
    1   12   18      7.75      0.00
    2   12   18    -10.33      0.00
    3   12   18      3.25      0.00
    4   12   18     -2.68      0.00
    5   12   18      0.97      0.00
    6   12   18     21.02      0.00
    7   12   18    -13.70      0.00
    8   12   18    -19.09      0.00
    9   12   18     11.46      0.00
   10   12   18     12.66      0.00
   11   12   18      7.57      0.00
    2    0   19     -2.50      0.00
    3    0   19     -2.38      0.00
    4    0   19      3.19      0.00
    5    0   19     -1.76      0.00
    6    0   19     -4.65      0.00
    7    0   19    -11.67      0.00
    8    0   19     -5.11      0.00
    9    0   19      2.91      0.00
   10    0   19      0.97      0.00
   11    0   19     -0.08      0.00
   12    0   19     -5.68      0.00
   13    0   19      5.44      0.00
   14    0   19     -4.88      0.00
   15    0   19     -1.38      0.00
   16    0   19      1.62      0.00
   17    0   19     -7.14      0.00
   18    0   19      0.25      0.00
   19    0   19     -4.20      0.00
   20    0   19      3.83      0.00
   21    0   19      4.62      0.00
   22    0   19    -10.86      0.00
   23    0   19      1.34      0.00
   24    0   19     -8.51      0.00
   25    0   19     -8.83      0.00
   26    0   19     10.49      0.00
   27    0   19      9.78      0.00
   28    0   19      7.29      0.00
   29    0   19     -2.23      0.00
   30    0   19     -7.37      0.00
   31    0   19     -0.71      0.00
   32    0   19     -0.99      0.00
   33    0   19     -2.31      0.00
   34    0   19      4.09      0.00
   35    0   19      6.56      0.00
   36    0   19     -5.58      0.00
   37    0   19     -1.33      0.00
   38    0   19     13.02      0.00
   39    0   19     -4.45      0.00
   40    0   19    -13.82      0.00
   41    0   19      4.81      0.00
   42    0   19     -0.54      0.00
   43    0   19     11.38      0.00
   44    0   19     10.38      0.00
   45    0   19    -15.64      0.00
   46    0   19     -8.11      0.00
   47    0   19     14.88      0.00
   48    0   19      0.60      0.00
   49    0   19     -5.92      0.00
   50    0   19      5.55      0.00
   51    0   19     -3.51      0.00
   52    0   19     -6.23      0.00
   53    0   19      7.70      0.00
   54    0   19     -1.84      0.00
    0    1   19     -6.30      0.00
    1    1   19      5.45      0.00
    2    1   19      0.58      0.00
    3    1   19      2.47      0.00
    4    1   19     -4.83      0.00
    5    1   19      5.01      0.00
    6    1   19      6.85      0.00
    7    1   19     -5.38      0.00
    8    1   19     -6.13      0.00
    9    1   19      1.00      0.00
   10    1   19      3.02      0.00
   11    1   19     -5.45      0.00
   12    1   19     -5.17      0.00
   13    1   19      1.51      0.00
   14    1   19      4.54      0.00
   15    1   19     16.76      0.00
   16    1   19     -3.79      0.00
   17    1   19    -12.46      0.00
   18    1   19      0.11      0.00
   19    1   19      6.77      0.00
   20    1   19     12.16      0.00
   21    1   19     -7.15      0.00
   22    1   19     -0.80      0.00
   23    1   19      9.43      0.00
   24    1   19     -6.65      0.00
   25    1   19     -2.73      0.00
   26    1   19     -2.51      0.00
   27    1   19     -3.82      0.00
   28    1   19      0.58      0.00
   29    1   19     10.39      0.00
   30    1   19      9.26      0.00
   31    1   19     -7.70      0.00
   32    1   19     -5.98      0.00
   33    1   19      6.31      0.00
   34    1   19     -2.41      0.00
   35    1   19    -14.30      0.00
   36    1   19      0.26      0.00
   37    1   19     18.19      0.00
   38    1   19      0.14      0.00
   39    1   19    -14.56      0.00
   40    1   19     -0.06      0.00
   41    1   19     -1.01      0.00
   42    1   19     -4.39      0.00
   43    1   19     10.00      0.00
   44    1   19      5.75      0.00
   45    1   19    -15.63      0.00
   46    1   19     -9.18      0.00
   47    1   19      9.80      0.00
   48    1   19      6.39      0.00
   49    1   19     -6.61      0.00
   50    1   19      3.41      0.00
   51    1   19      5.31      0.00
   52    1   19     -8.28      0.00
   53    1   19     -7.17      0.00
   54    1   19      5.84      0.00
   55    1   19     -0.87      0.00
    1    2   19     -6.47      0.00
    2    2   19      6.06      0.00
    3    2   19      8.09      0.00
    4    2   19    -12.58      0.00
    5    2   19      4.13      0.00
    6    2   19      7.16      0.00
    7    2   19     -5.46      0.00
    8    2   19      6.01      0.00
    9    2   19      3.57      0.00
   10    2   19      3.48      0.00
   11    2   19      0.53      0.00
   12    2   19     -0.22      0.00
   13    2   19     -5.96      0.00
   14    2   19      0.02      0.00
   15    2   19      4.85      0.00
   16    2   19     -4.88      0.00
   17    2   19      7.31      0.00
   18    2   19      7.57      0.00
   19    2   19     -2.47      0.00
   20    2   19     -0.20      0.00
   21    2   19     -2.86      0.00
   22    2   19     -2.16      0.00
   23    2   19     -0.17      0.00
   24    2   19     12.12      0.00
   25    2   19      3.46      0.00
   26    2   19     -7.80      0.00
   27    2   19     -1.25      0.00
   28    2   19     -7.75      0.00
   29    2   19     -3.33      0.00
   30    2   19      1.86      0.00
   31    2   19      7.41      0.00
   32    2   19      9.67      0.00
   33    2   19      1.87      0.00
   34    2   19     -7.12      0.00
   35    2   19    -13.27      0.00
   36    2   19     -0.69      0.00
   37    2   19     11.04      0.00
   38    2   19      4.39      0.00
   39    2   19     -7.52      0.00
   40    2   19      1.81      0.00
   41    2   19      1.02      0.00
   42    2   19     -8.70      0.00
   43    2   19      0.59      0.00
   44    2   19      7.34      0.00
   45    2   19      9.54      0.00
   46    2   19      1.15      0.00
   47    2   19    -13.35      0.00
   48    2   19     -1.06      0.00
   49    2   19     -3.06      0.00
   50    2   19      1.36      0.00
   51    2   19      6.98      0.00
   52    2   19      3.12      0.00
   53    2   19      1.70      0.00
   54    2   19     -9.63      0.00
   55    2   19     -4.80      0.00
   56    2   19      6.28      0.00
    0    3   19     16.43      0.00
    1    3   19    -11.35      0.00
    2    3   19     -3.14      0.00
    3    3   19     -0.22      0.00
    4    3   19     -2.06      0.00
    5    3   19      6.27      0.00
    6    3   19     -5.19      0.00
    7    3   19      4.12      0.00
    8    3   19      0.94      0.00
    9    3   19    -11.23      0.00
   10    3   19      1.55      0.00
   11    3   19      4.14      0.00
   12    3   19      7.52      0.00
   13    3   19      3.78      0.00
   14    3   19      1.08      0.00
   15    3   19     -9.46      0.00
   16    3   19     -9.64      0.00
   17    3   19      8.45      0.00
   18    3   19      3.38      0.00
   19    3   19     -3.59      0.00
   20    3   19      3.89      0.00
   21    3   19      5.80      0.00
   22    3   19    -12.84      0.00
   23    3   19     -7.25      0.00
   24    3   19     18.63      0.00
   25    3   19      0.10      0.00
   26    3   19     -2.83      0.00
   27    3   19     10.76      0.00
   28    3   19     -4.77      0.00
   29    3   19    -16.90      0.00
   30    3   19      5.64      0.00
   31    3   19     12.41      0.00
   32    3   19     -1.86      0.00
   33    3   19      1.04      0.00
   34    3   19      4.53      0.00
   35    3   19     -4.41      0.00
   36    3   19     -2.43      0.00
   37    3   19      6.05      0.00
   38    3   19      0.30      0.00
   39    3   19      0.17      0.00
   40    3   19      8.83      0.00
   41    3   19     -4.93      0.00
   42    3   19     -2.69      0.00
   43    3   19     -0.41      0.00
   44    3   19     -5.54      0.00
   45    3   19      2.69      0.00
   46    3   19      1.56      0.00
   47    3   19      9.06      0.00
   48    3   19     -1.38      0.00
   49    3   19      0.18      0.00
   50    3   19      6.52      0.00
   51    3   19    -19.11      0.00
   52    3   19     -0.16      0.00
   53    3   19      8.63      0.00
   54    3   19    -10.50      0.00
   55    3   19      9.13      0.00
    1    4   19      3.21      0.00
    2    4   19      6.11      0.00
    3    4   19     -5.28      0.00
    4    4   19      3.50      0.00
    5    4   19     -0.12      0.00
    6    4   19      2.99      0.00
    7    4   19     12.26      0.00
    8    4   19    -11.09      0.00
    9    4   19    -12.01      0.00
   10    4   19     -1.29      0.00
   11    4   19      3.27      0.00
   12    4   19      5.41      0.00
   13    4   19      1.98      0.00
   14    4   19     -0.62      0.00
   15    4   19     -2.09      0.00
   16    4   19      1.16      0.00
   17    4   19     -1.82      0.00
   18    4   19      6.49      0.00
   19    4   19      4.66      0.00
   20    4   19     -9.66      0.00
   21    4   19     -2.74      0.00
   22    4   19      5.28      0.00
   23    4   19     -1.04      0.00
   24    4   19     -2.23      0.00
   25    4   19     -5.24      0.00
   26    4   19      1.19      0.00
   27    4   19      5.20      0.00
   28    4   19      2.64      0.00
   29    4   19      0.57      0.00
   30    4   19     -4.92      0.00
   31    4   19     -3.56      0.00
   32    4   19      3.45      0.00
   33    4   19     -0.27      0.00
   34    4   19      2.99      0.00
   35    4   19     -0.24      0.00
   36    4   19     -6.57      0.00
   37    4   19     -2.70      0.00
   38    4   19     -1.29      0.00
   39    4   19     -4.16      0.00
   40    4   19     -3.59      0.00
   41    4   19     14.86      0.00
   42    4   19     10.50      0.00
   43    4   19    -11.90      0.00
   44    4   19     -8.88      0.00
   45    4   19     -8.81      0.00
   46    4   19     -1.87      0.00
   47    4   19     10.86      0.00
   48    4   19      2.51      0.00
   49    4   19      0.84      0.00
   50    4   19     -8.08      0.00
   51    4   19      1.19      0.00
   52    4   19      7.93      0.00
   53    4   19     -8.88      0.00
   54    4   19      3.34      0.00
    0    5   19     -3.22      0.00
    1    5   19     -3.64      0.00
    2    5   19     -2.67      0.00
    3    5   19      4.85      0.00
    4    5   19     -1.07      0.00
    5    5   19      0.83      0.00
    6    5   19      5.50      0.00
    7    5   19     -5.82      0.00
    8    5   19      0.86      0.00
    9    5   19      7.39      0.00
   10    5   19      1.84      0.00
   11    5   19     -9.09      0.00
   12    5   19    -10.39      0.00
   13    5   19      1.37      0.00
   14    5   19      0.72      0.00
   15    5   19      0.85      0.00
   16    5   19     -0.97      0.00
   17    5   19     -0.41      0.00
   18    5   19     -0.56      0.00
   19    5   19      2.91      0.00
   20    5   19     -2.04      0.00
   21    5   19     -9.19      0.00
   22    5   19     -0.49      0.00
   23    5   19     11.35      0.00
   24    5   19     -0.55      0.00
   25    5   19     -2.07      0.00
   26    5   19     -3.52      0.00
   27    5   19    -16.49      0.00
   28    5   19     -7.17      0.00
   29    5   19      7.47      0.00
   30    5   19      2.68      0.00
   31    5   19      7.81      0.00
   32    5   19     -5.53      0.00
   33    5   19     -7.10      0.00
   34    5   19      3.16      0.00
   35    5   19      2.38      0.00
   36    5   19     -3.86      0.00
   37    5   19      0.63      0.00
   38    5   19      1.87      0.00
   39    5   19     -7.57      0.00
   40    5   19     -6.56      0.00
   41    5   19      2.27      0.00
   42    5   19      4.18      0.00
   43    5   19      4.45      0.00
   44    5   19      1.81      0.00
   45    5   19      1.84      0.00
   46    5   19     -3.99      0.00
   47    5   19     -8.78      0.00
   48    5   19      5.20      0.00
   49    5   19      9.40      0.00
   50    5   19     -5.09      0.00
   51    5   19      1.93      0.00
   52    5   19      2.62      0.00
    1    6   19      0.68      0.00
    2    6   19      1.41      0.00
    3    6   19    -12.10      0.00
    4    6   19     -4.28      0.00
    5    6   19     13.73      0.00
    6    6   19     -3.84      0.00
    7    6   19      1.88      0.00
    8    6   19     -0.01      0.00
    9    6   19      0.08      0.00
   10    6   19      3.11      0.00
   11    6   19     -4.89      0.00
   12    6   19      1.22      0.00
   13    6   19     -3.17      0.00
   14    6   19      1.03      0.00
   15    6   19      5.05      0.00
   16    6   19     -9.08      0.00
   17    6   19      4.33      0.00
   18    6   19      1.35      0.00
   19    6   19     -5.98      0.00
   20    6   19     -2.29      0.00
   21    6   19      3.28      0.00
   22    6   19     -3.95      0.00
   23    6   19      1.54      0.00
   24    6   19      8.53      0.00
   25    6   19      5.20      0.00
   26    6   19      0.07      0.00
   27    6   19     -1.77      0.00
   28    6   19     -5.38      0.00
   29    6   19     -4.05      0.00
   30    6   19     -1.78      0.00
   31    6   19      3.65      0.00
   32    6   19      5.23      0.00
   33    6   19     -3.95      0.00
   34    6   19     -1.49      0.00
   35    6   19      7.12      0.00
   36    6   19      3.51      0.00
   37    6   19      1.81      0.00
   38    6   19     -1.95      0.00
   39    6   19      1.55      0.00
   40    6   19      0.73      0.00
   41    6   19     -5.61      0.00
   42    6   19      1.76      0.00
   43    6   19      4.37      0.00
   44    6   19      0.29      0.00
   45    6   19     -1.15      0.00
   46    6   19      3.06      0.00
   47    6   19      0.20      0.00
   48    6   19      5.05      0.00
   49    6   19     -0.09      0.00
    0    7   19     -2.79      0.00
    1    7   19      7.66      0.00
    2    7   19      2.40      0.00
    3    7   19    -11.82      0.00
    4    7   19      6.26      0.00
    5    7   19     -4.80      0.00
    6    7   19      0.32      0.00
    7    7   19      9.78      0.00
    8    7   19     -2.41      0.00
    9    7   19     10.49      0.00
   10    7   19     -5.19      0.00
   11    7   19     -9.46      0.00
   12    7   19     11.08      0.00
   13    7   19     -2.68      0.00
   14    7   19     -0.27      0.00
   15    7   19      5.84      0.00
   16    7   19      7.85      0.00
   17    7   19     -5.41      0.00
   18    7   19      0.04      0.00
   19    7   19      5.19      0.00
   20    7   19     -0.55      0.00
   21    7   19      0.70      0.00
   22    7   19     -2.64      0.00
   23    7   19     -1.94      0.00
   24    7   19      4.37      0.00
   25    7   19     -1.00      0.00
   26    7   19      9.39      0.00
   27    7   19      1.66      0.00
   28    7   19      2.98      0.00
   29    7   19      2.18      0.00
   30    7   19     -7.39      0.00
   31    7   19     -1.42      0.00
   32    7   19      5.35      0.00
   33    7   19     -1.31      0.00
   34    7   19      0.24      0.00
   35    7   19     -0.68      0.00
   36    7   19      2.46      0.00
   37    7   19     -3.51      0.00
   38    7   19      2.10      0.00
   39    7   19     10.16      0.00
   40    7   19      1.79      0.00
   41    7   19     -9.04      0.00
   42    7   19     -4.50      0.00
   43    7   19      2.58      0.00
   44    7   19     -6.63      0.00
   45    7   19      4.16      0.00
   46    7   19      9.12      0.00
    1    8   19      1.93      0.00
    2    8   19      5.49      0.00
    3    8   19      4.13      0.00
    4    8   19     -8.34      0.00
    5    8   19    -17.58      0.00
    6    8   19      4.91      0.00
    7    8   19      2.78      0.00
    8    8   19      9.72      0.00
    9    8   19      6.89      0.00
   10    8   19     -7.44      0.00
   11    8   19     -2.88      0.00
   12    8   19     -5.11      0.00
   13    8   19     -2.51      0.00
   14    8   19      6.14      0.00
   15    8   19     -1.47      0.00
   16    8   19     -2.02      0.00
   17    8   19     -4.37      0.00
   18    8   19     11.45      0.00
   19    8   19     -0.62      0.00
   20    8   19     -6.20      0.00
   21    8   19     -0.74      0.00
   22    8   19     -3.52      0.00
   23    8   19     -1.37      0.00
   24    8   19      4.03      0.00
   25    8   19      3.63      0.00
   26    8   19     -4.73      0.00
   27    8   19     -4.64      0.00
   28    8   19      3.66      0.00
   29    8   19     -1.75      0.00
   30    8   19      2.21      0.00
   31    8   19      1.67      0.00
   32    8   19      3.10      0.00
   33    8   19     -1.85      0.00
   34    8   19    -11.58      0.00
   35    8   19      2.73      0.00
   36    8   19      0.04      0.00
   37    8   19     -2.62      0.00
   38    8   19      5.31      0.00
   39    8   19      0.10      0.00
   40    8   19      1.46      0.00
   41    8   19      2.05      0.00
   42    8   19      0.17      0.00
    0    9   19      6.13      0.00
    1    9   19     -6.57      0.00
    2    9   19     -6.14      0.00
    3    9   19      4.92      0.00
    4    9   19     -2.86      0.00
    5    9   19      5.12      0.00
    6    9   19     -0.65      0.00
    7    9   19    -13.05      0.00
    8    9   19     -4.54      0.00
    9    9   19     -0.31      0.00
   10    9   19      1.39      0.00
   11    9   19      5.93      0.00
   12    9   19      0.63      0.00
   13    9   19      0.90      0.00
   14    9   19     -7.80      0.00
   15    9   19     -5.27      0.00
   16    9   19     -5.02      0.00
   17    9   19     -0.25      0.00
   18    9   19      3.44      0.00
   19    9   19      8.08      0.00
   20    9   19     -2.63      0.00
   21    9   19    -11.88      0.00
   22    9   19      2.88      0.00
   23    9   19      3.68      0.00
   24    9   19    -10.54      0.00
   25    9   19      0.41      0.00
   26    9   19      4.98      0.00
   27    9   19     -1.23      0.00
   28    9   19     -5.46      0.00
   29    9   19     10.77      0.00
   30    9   19     -3.50      0.00
   31    9   19     -9.29      0.00
   32    9   19      7.63      0.00
   33    9   19      0.32      0.00
   34    9   19      2.39      0.00
   35    9   19      2.24      0.00
   36    9   19    -10.88      0.00
   37    9   19     -1.53      0.00
    1   10   19     -1.25      0.00
    2   10   19     -1.51      0.00
    3   10   19      0.19      0.00
    4   10   19      0.21      0.00
    5   10   19      9.86      0.00
    6   10   19      0.17      0.00
    7   10   19     -6.99      0.00
    8   10   19      6.15      0.00
    9   10   19      8.42      0.00
   10   10   19    -14.09      0.00
   11   10   19     -8.36      0.00
   12   10   19      9.15      0.00
   13   10   19      6.93      0.00
   14   10   19     -4.07      0.00
   15   10   19      5.30      0.00
   16   10   19     11.60      0.00
   17   10   19    -11.57      0.00
   18   10   19    -18.85      0.00
   19   10   19     15.80      0.00
   20   10   19      7.17      0.00
   21   10   19      1.25      0.00
   22   10   19     13.21      0.00
   23   10   19     -6.48      0.00
   24   10   19    -22.20      0.00
   25   10   19      6.46      0.00
   26   10   19     21.10      0.00
   27   10   19    -11.54      0.00
   28   10   19     -7.49      0.00
   29   10   19     10.27      0.00
   30   10   19     -6.01      0.00
   31   10   19      1.70      0.00
    0   11   19      0.39      0.00
    1   11   19    -14.87      0.00
    2   11   19      4.09      0.00
    3   11   19      1.78      0.00
    4   11   19      0.00      0.00
    5   11   19      9.21      0.00
    6   11   19     -2.64      0.00
    7   11   19    -11.27      0.00
    8   11   19      6.74      0.00
    9   11   19      8.08      0.00
   10   11   19      7.43      0.00
   11   11   19      6.75      0.00
   12   11   19     -6.57      0.00
   13   11   19     -5.69      0.00
   14   11   19     -5.32      0.00
   15   11   19      0.25      0.00
   16   11   19     18.64      0.00
   17   11   19      3.62      0.00
   18   11   19    -10.23      0.00
   19   11   19     -4.92      0.00
   20   11   19      4.09      0.00
   21   11   19     -0.65      0.00
    3    0   20      8.86      0.00
    4    0   20     12.22      0.00
    5    0   20      2.99      0.00
    6    0   20    -20.67      0.00
    7    0   20     -5.81      0.00
    8    0   20    -12.32      0.00
    9    0   20      2.48      0.00
   10    0   20      8.28      0.00
   11    0   20     -0.59      0.00
   12    0   20     16.94      0.00
   13    0   20     -9.38      0.00
   14    0   20    -13.34      0.00
   15    0   20      0.77      0.00
   16    0   20     -7.70      0.00
   17    0   20     21.68      0.00
   18    0   20      6.87      0.00
   19    0   20    -21.21      0.00
   20    0   20      3.18      0.00
   21    0   20      3.21      0.00
   22    0   20      7.47      0.00
   23    0   20      3.00      0.00
   24    0   20    -14.89      0.00
   25    0   20      7.31      0.00
   26    0   20      0.55      0.00
   27    0   20      2.66      0.00
   28    0   20      6.03      0.00
   29    0   20    -18.62      0.00
   30    0   20      5.50      0.00
   31    0   20      5.38      0.00
   32    0   20     -0.25      0.00
   33    0   20     11.79      0.00
   34    0   20    -13.92      0.00
   35    0   20    -10.30      0.00
   36    0   20      4.34      0.00
   37    0   20     12.54      0.00
   38    0   20      1.46      0.00
   39    0   20     -3.09      0.00
   40    0   20      0.43      0.00
   41    0   20    -20.84      0.00
   42    0   20     12.34      0.00
   43    0   20      8.08      0.00
   44    0   20    -20.67      0.00
   45    0   20     -5.10      0.00
   46    0   20      8.15      0.00
   47    0   20     15.72      0.00
   48    0   20      2.07      0.00
   49    0   20     -3.37      0.00
   50    0   20    -11.32      0.00
   51    0   20    -18.34      0.00
   52    0   20     23.27      0.00
   53    0   20     12.30      0.00
    1    1   20     -2.73      0.00
    2    1   20      1.84      0.00
    3    1   20      4.46      0.00
    4    1   20      2.26      0.00
    5    1   20     -4.13      0.00
    6    1   20     14.59      0.00
    7    1   20      9.79      0.00
    8    1   20    -10.14      0.00
    9    1   20     -7.98      0.00
   10    1   20     -1.42      0.00
   11    1   20     11.88      0.00
   12    1   20     -0.13      0.00
   13    1   20     -4.65      0.00
   14    1   20     22.07      0.00
   15    1   20     -8.72      0.00
   16    1   20     -4.65      0.00
   17    1   20     13.45      0.00
   18    1   20    -11.46      0.00
   19    1   20      4.07      0.00
   20    1   20     10.82      0.00
   21    1   20     -4.02      0.00
   22    1   20      2.17      0.00
   23    1   20     -6.29      0.00
   24    1   20      5.55      0.00
   25    1   20      4.22      0.00
   26    1   20     -4.92      0.00
   27    1   20      9.64      0.00
   28    1   20     -6.76      0.00
   29    1   20     -1.02      0.00
   30    1   20      0.81      0.00
   31    1   20    -13.24      0.00
   32    1   20     10.50      0.00
   33    1   20      2.99      0.00
   34    1   20     -7.56      0.00
   35    1   20      0.66      0.00
   36    1   20     -0.12      0.00
   37    1   20     -4.08      0.00
   38    1   20     -2.06      0.00
   39    1   20      9.04      0.00
   40    1   20     -6.98      0.00
   41    1   20     -1.18      0.00
   42    1   20     13.55      0.00
   43    1   20     -8.79      0.00
   44    1   20     -1.33      0.00
   45    1   20     -5.09      0.00
   46    1   20     -7.12      0.00
   47    1   20     -4.24      0.00
   48    1   20     -1.44      0.00
   49    1   20     18.26      0.00
   50    1   20      6.91      0.00
   51    1   20     -3.96      0.00
   52    1   20     -8.84      0.00
   53    1   20    -15.39      0.00
   55    1   20     14.95      0.00
    0    2   20      2.12      0.00
    1    2   20     -2.01      0.00
    2    2   20      3.84      0.00
    3    2   20     -5.92      0.00
    4    2   20     -5.67      0.00
    5    2   20      4.10      0.00
    6    2   20      9.64      0.00
    7    2   20      6.30      0.00
    8    2   20      2.10      0.00
    9    2   20     -6.10      0.00
   10    2   20     -2.30      0.00
   11    2   20     -1.04      0.00
   12    2   20     -3.08      0.00
   13    2   20     10.10      0.00
   14    2   20      2.76      0.00
   15    2   20     -7.99      0.00
   16    2   20      6.81      0.00
   17    2   20     -7.46      0.00
   18    2   20     -3.35      0.00
   19    2   20     14.71      0.00
   20    2   20     -2.24      0.00
   21    2   20     -5.30      0.00
   22    2   20     -2.73      0.00
   23    2   20      5.30      0.00
   24    2   20     -1.51      0.00
   25    2   20    -13.52      0.00
   26    2   20      9.79      0.00
   27    2   20      2.72      0.00
   28    2   20      3.79      0.00
   29    2   20     11.45      0.00
   30    2   20     -9.15      0.00
   31    2   20     -9.22      0.00
   32    2   20      2.05      0.00
   33    2   20      2.97      0.00
   34    2   20      2.37      0.00
   35    2   20      4.64      0.00
   36    2   20      4.12      0.00
   37    2   20     -8.69      0.00
   38    2   20     -1.18      0.00
   39    2   20      8.46      0.00
   40    2   20     -4.51      0.00
   41    2   20     -3.03      0.00
   42    2   20      5.61      0.00
   43    2   20      4.66      0.00
   44    2   20      2.06      0.00
   45    2   20      8.42      0.00
   46    2   20      1.14      0.00
   47    2   20    -19.01      0.00
   48    2   20     -8.66      0.00
   49    2   20     12.24      0.00
   50    2   20     -0.72      0.00
   51    2   20      6.14      0.00
   52    2   20     10.39      0.00
   53    2   20     -8.82      0.00
   54    2   20     -6.65      0.00
   55    2   20      3.53      0.00
    1    3   20      7.74      0.00
    2    3   20     -3.87      0.00
    3    3   20    -11.29      0.00
    4    3   20      7.75      0.00
    5    3   20     -0.93      0.00
    6    3   20     -3.90      0.00
    7    3   20      6.88      0.00
    8    3   20     -5.49      0.00
    9    3   20      1.39      0.00
   10    3   20      2.13      0.00
   11    3   20     -8.48      0.00
   12    3   20      1.18      0.00
   13    3   20      8.86      0.00
   14    3   20     -8.79      0.00
   15    3   20     -5.45      0.00
   16    3   20      3.98      0.00
   17    3   20     -1.56      0.00
   18    3   20      4.35      0.00
   19    3   20     -0.34      0.00
   20    3   20     -3.25      0.00
   21    3   20     -1.08      0.00
   22    3   20      4.50      0.00
   23    3   20      3.23      0.00
   24    3   20    -10.93      0.00
   25    3   20      3.90      0.00
   26    3   20      4.24      0.00
   27    3   20     -7.35      0.00
   28    3   20      1.85      0.00
   29    3   20      3.08      0.00
   30    3   20      4.08      0.00
   31    3   20      0.33      0.00
   32    3   20      0.74      0.00
   33    3   20     -3.66      0.00
   34    3   20     -6.51      0.00
   35    3   20      3.93      0.00
   36    3   20      4.49      0.00
   37    3   20      1.52      0.00
   38    3   20      3.28      0.00
   39    3   20      0.05      0.00
   40    3   20     -6.92      0.00
   41    3   20     -0.05      0.00
   42    3   20     -4.28      0.00
   43    3   20     -3.12      0.00
   44    3   20      6.00      0.00
   45    3   20      2.89      0.00
   46    3   20      7.92      0.00
   47    3   20     -4.59      0.00
   48    3   20    -10.67      0.00
   49    3   20      2.31      0.00
   50    3   20     -3.85      0.00
   51    3   20      3.58      0.00
   52    3   20      4.39      0.00
   53    3   20     -1.54      0.00
    0    4   20     -6.66      0.00
    1    4   20     15.16      0.00
    2    4   20     -0.77      0.00
    3    4   20     -4.58      0.00
    4    4   20      3.70      0.00
    5    4   20     -6.89      0.00
    6    4   20     -3.08      0.00
    7    4   20     12.18      0.00
    8    4   20      5.18      0.00
    9    4   20    -11.23      0.00
   10    4   20    -10.45      0.00
   11    4   20     -0.42      0.00
   12    4   20      8.47      0.00
   13    4   20      9.78      0.00
   14    4   20     -4.08      0.00
   15    4   20     -8.31      0.00
   16    4   20     -7.42      0.00
   17    4   20      3.90      0.00
   18    4   20      3.16      0.00
   19    4   20     -3.28      0.00
   20    4   20      1.08      0.00
   21    4   20      3.27      0.00
   22    4   20     -0.60      0.00
   23    4   20     -3.57      0.00
   24    4   20     -8.21      0.00
   25    4   20     -2.97      0.00
   26    4   20      7.05      0.00
   27    4   20      2.75      0.00
   28    4   20     -9.75      0.00
   29    4   20      3.25      0.00
   30    4   20     -0.82      0.00
   31    4   20     -3.65      0.00
   32    4   20      0.84      0.00
   33    4   20      0.66      0.00
   34    4   20     -4.90      0.00
   35    4   20     -5.14      0.00
   36    4   20     -2.78      0.00
   37    4   20     -2.12      0.00
   38    4   20      4.42      0.00
   39    4   20      2.72      0.00
   40    4   20     -1.65      0.00
   41    4   20      0.71      0.00
   42    4   20      0.68      0.00
   43    4   20      0.50      0.00
   44    4   20     -7.38      0.00
   45    4   20     -3.97      0.00
   46    4   20     -7.21      0.00
   47    4   20      3.99      0.00
   48    4   20     23.53      0.00
   49    4   20     -8.82      0.00
   50    4   20     -8.72      0.00
   51    4   20      4.75      0.00
   52    4   20     -9.43      0.00
    1    5   20      2.20      0.00
    2    5   20     -2.37      0.00
    3    5   20    -10.38      0.00
    4    5   20      5.09      0.00
    5    5   20      5.63      0.00
    6    5   20     -4.87      0.00
    7    5   20      4.14      0.00
    8    5   20     -5.38      0.00
    9    5   20      2.76      0.00
   10    5   20      9.93      0.00
   11    5   20     -8.38      0.00
   12    5   20     -9.53      0.00
   13    5   20     -6.22      0.00
   14    5   20      6.46      0.00
   15    5   20     11.72      0.00
   16    5   20     -1.59      0.00
   17    5   20     -7.47      0.00
   18    5   20     -8.59      0.00
   19    5   20      5.06      0.00
   20    5   20      9.10      0.00
   21    5   20     -4.64      0.00
   22    5   20    -13.93      0.00
   23    5   20      4.86      0.00
   24    5   20     11.95      0.00
   25    5   20      0.87      0.00
   26    5   20     -7.20      0.00
   27    5   20     -7.57      0.00
   28    5   20     -1.12      0.00
   29    5   20     -3.48      0.00
   30    5   20      6.18      0.00
   31    5   20     10.02      0.00
   32    5   20     -1.02      0.00
   33    5   20     -0.57      0.00
   34    5   20     -3.40      0.00
   35    5   20     -0.17      0.00
   36    5   20      0.31      0.00
   37    5   20     -5.74      0.00
   38    5   20     -3.88      0.00
   39    5   20      7.14      0.00
   40    5   20      5.59      0.00
   41    5   20     -5.08      0.00
   42    5   20      8.44      0.00
   43    5   20      4.61      0.00
   44    5   20     -1.40      0.00
   45    5   20      1.11      0.00
   46    5   20     -4.76      0.00
   47    5   20      1.89      0.00
   48    5   20     -6.35      0.00
   49    5   20     -4.49      0.00
   50    5   20     13.71      0.00
    0    6   20      5.61      0.00
    1    6   20      4.58      0.00
    2    6   20     -7.31      0.00
    3    6   20     -2.37      0.00
    4    6   20     10.28      0.00
    5    6   20    -13.51      0.00
    6    6   20      0.81      0.00
    7    6   20      4.53      0.00
    8    6   20     -2.18      0.00
    9    6   20     13.18      0.00
   10    6   20      4.34      0.00
   11    6   20      3.97      0.00
   12    6   20    -13.49      0.00
   13    6   20    -13.19      0.00
   14    6   20     20.96      0.00
   15    6   20     -1.79      0.00
   16    6   20     -1.21      0.00
   17    6   20      5.24      0.00
   18    6   20     -1.39      0.00
   19    6   20      2.07      0.00
   20    6   20      6.00      0.00
   21    6   20     -7.70      0.00
   22    6   20     -2.83      0.00
   23    6   20      5.99      0.00
   24    6   20      2.97      0.00
   25    6   20      5.57      0.00
   26    6   20     11.27      0.00
   27    6   20     -3.92      0.00
   28    6   20    -10.49      0.00
   29    6   20     -4.78      0.00
   30    6   20      4.68      0.00
   31    6   20      3.91      0.00
   32    6   20     15.25      0.00
   33    6   20      0.14      0.00
   34    6   20     -8.61      0.00
   35    6   20      0.83      0.00
   36    6   20      3.81      0.00
   37    6   20      3.31      0.00
   38    6   20      3.55      0.00
   39    6   20     -4.62      0.00
   40    6   20    -12.46      0.00
   41    6   20      3.30      0.00
   42    6   20      8.78      0.00
   43    6   20     -0.33      0.00
   44    6   20      6.34      0.00
   45    6   20     -0.65      0.00
   46    6   20     -3.27      0.00
   47    6   20      0.87      0.00
    1    7   20     10.59      0.00
    2    7   20     10.36      0.00
    3    7   20     -9.56      0.00
    4    7   20    -13.67      0.00
    5    7   20      1.80      0.00
    6    7   20      4.96      0.00
    7    7   20     -7.75      0.00
    8    7   20     19.49      0.00
    9    7   20     -3.81      0.00
   10    7   20    -19.28      0.00
   11    7   20     13.17      0.00
   12    7   20      5.41      0.00
   13    7   20      4.91      0.00
   14    7   20     -5.22      0.00
   15    7   20    -11.89      0.00
   16    7   20      5.96      0.00
   17    7   20      1.80      0.00
   18    7   20     13.37      0.00
   19    7   20     -0.67      0.00
   20    7   20     -8.62      0.00
   21    7   20      2.23      0.00
   22    7   20     -4.95      0.00
   23    7   20     -6.03      0.00
   24    7   20      4.86      0.00
   25    7   20      6.68      0.00
   26    7   20      5.12      0.00
   27    7   20      3.82      0.00
   28    7   20     -6.07      0.00
   29    7   20    -11.30      0.00
   30    7   20     -1.11      0.00
   31    7   20      6.24      0.00
   32    7   20      0.48      0.00
   33    7   20      3.46      0.00
   34    7   20      2.70      0.00
   35    7   20     -9.51      0.00
   36    7   20      0.02      0.00
   37    7   20      8.06      0.00
   38    7   20     -1.74      0.00
   39    7   20     -4.42      0.00
   40    7   20     -3.32      0.00
   41    7   20      0.18      0.00
   42    7   20      0.38      0.00
   43    7   20     -2.00      0.00
   44    7   20     -3.29      0.00
    0    8   20    -13.74      0.00
    1    8   20      4.35      0.00
    2    8   20      4.20      0.00
    3    8   20     12.89      0.00
    4    8   20     -1.52      0.00
    5    8   20    -11.71      0.00
    6    8   20    -10.18      0.00
    7    8   20     -2.14      0.00
    8    8   20      9.32      0.00
    9    8   20      4.22      0.00
   10    8   20     -6.07      0.00
   11    8   20     -7.97      0.00
   12    8   20     11.02      0.00
   13    8   20     10.12      0.00
   14    8   20    -31.36      0.00
   15    8   20     -7.34      0.00
   16    8   20      2.04      0.00
   17    8   20     10.72      0.00
   18    8   20     14.68      0.00
   19    8   20    -10.52      0.00
   20    8   20     -7.67      0.00
   21    8   20     -2.53      0.00
   22    8   20     -0.44      0.00
   23    8   20      8.25      0.00
   24    8   20    -19.10      0.00
   25    8   20     -4.34      0.00
   26    8   20     10.50      0.00
   27    8   20      3.36      0.00
   28    8   20      7.93      0.00
   29    8   20     -0.44      0.00
   30    8   20    -22.06      0.00
   31    8   20     -3.27      0.00
   32    8   20      8.29      0.00
   33    8   20      1.22      0.00
   34    8   20      4.14      0.00
   35    8   20      1.52      0.00
   36    8   20     -8.18      0.00
   37    8   20      2.30      0.00
   38    8   20      1.01      0.00
   39    8   20     -5.74      0.00
   40    8   20      7.06      0.00
    1    9   20     -2.98      0.00
    2    9   20    -11.39      0.00
    3    9   20      4.28      0.00
    4    9   20      3.57      0.00
    5    9   20      3.27      0.00
    6    9   20      5.12      0.00
    7    9   20     -6.41      0.00
    8    9   20    -13.98      0.00
    9    9   20      5.72      0.00
   10    9   20      6.68      0.00
   11    9   20     -7.64      0.00
   12    9   20     11.05      0.00
   13    9   20      3.89      0.00
   14    9   20     -7.50      0.00
   15    9   20      8.12      0.00
   16    9   20    -10.42      0.00
   17    9   20     -8.25      0.00
   18    9   20     -4.40      0.00
   19    9   20      7.75      0.00
   20    9   20     14.03      0.00
   21    9   20     -1.43      0.00
   22    9   20      4.83      0.00
   23    9   20     -6.99      0.00
   24    9   20     -9.88      0.00
   25    9   20      8.93      0.00
   26    9   20     -6.87      0.00
   27    9   20     -3.02      0.00
   28    9   20     11.10      0.00
   29    9   20     -0.09      0.00
   30    9   20      1.83      0.00
   31    9   20      7.01      0.00
   32    9   20     -6.63      0.00
   33    9   20    -11.88      0.00
   34    9   20      2.53      0.00
    0   10   20     17.20      0.00
    1   10   20      8.12      0.00
    2   10   20     -5.42      0.00
    3   10   20     -0.62      0.00
    4   10   20     -0.70      0.00
    5   10   20     -8.28      0.00
    6   10   20      9.53      0.00
    7   10   20     13.17      0.00
    8   10   20    -10.35      0.00
    9   10   20     -1.37      0.00
   10   10   20     23.11      0.00
   11   10   20     -6.52      0.00
   12   10   20    -24.72      0.00
   13   10   20      3.62      0.00
   14   10   20     23.62      0.00
   15   10   20      3.84      0.00
   16   10   20      6.40      0.00
   17   10   20     -2.88      0.00
   18   10   20    -18.87      0.00
   19   10   20     -0.97      0.00
   20   10   20     12.11      0.00
   21   10   20      8.02      0.00
   22   10   20     -1.36      0.00
   23   10   20     -5.54      0.00
   24   10   20     14.22      0.00
   25   10   20     -1.27      0.00
   26   10   20     -8.36      0.00
   27   10   20      4.72      0.00
    1   11   20      2.64      0.00
    2   11   20     -1.13      0.00
    3   11   20     -3.09      0.00
    4   11   20      6.36      0.00
    5   11   20      3.78      0.00
    6   11   20     -6.49      0.00
    7   11   20     -5.92      0.00
    8   11   20     -7.53      0.00
    9   11   20      0.68      0.00
   10   11   20     19.86      0.00
   11   11   20      3.55      0.00
   12   11   20     -1.02      0.00
   13   11   20     -0.25      0.00
   14   11   20    -24.28      0.00
   15   11   20     -4.55      0.00
   16   11   20     22.42      0.00
    4    0   21     -2.27      0.00
    5    0   21      2.43      0.00
    6    0   21     14.92      0.00
    7    0   21     -1.47      0.00
    8    0   21     -7.33      0.00
    9    0   21      2.44      0.00
   10    0   21      7.46      0.00
   11    0   21     -6.95      0.00
   12    0   21     -4.10      0.00
   13    0   21      9.50      0.00
   14    0   21      0.00      0.00
   15    0   21    -14.24      0.00
   16    0   21     17.36      0.00
   17    0   21     27.54      0.00
   18    0   21     -5.49      0.00
   19    0   21     -8.29      0.00
   20    0   21     -5.61      0.00
   21    0   21    -14.68      0.00
   22    0   21      5.09      0.00
   23    0   21     13.65      0.00
   24    0   21      9.06      0.00
   25    0   21     -5.68      0.00
   26    0   21      1.43      0.00
   27    0   21     11.19      0.00
   28    0   21     -8.06      0.00
   29    0   21     -1.99      0.00
   30    0   21     -9.22      0.00
   31    0   21     -8.07      0.00
   32    0   21      9.10      0.00
   33    0   21     -2.86      0.00
   34    0   21     -1.53      0.00
   35    0   21     -0.21      0.00
   36    0   21     -2.05      0.00
   37    0   21      3.01      0.00
   38    0   21     11.22      0.00
   39    0   21     -3.30      0.00
   40    0   21    -11.23      0.00
   41    0   21      7.59      0.00
   42    0   21    -11.52      0.00
   43    0   21    -17.85      0.00
   44    0   21      8.37      0.00
   45    0   21      9.53      0.00
   46    0   21     -5.49      0.00
   47    0   21     -0.59      0.00
   48    0   21     22.33      0.00
   49    0   21     -5.98      0.00
   50    0   21    -22.92      0.00
   52    0   21     -7.53      0.00
    0    1   21     10.24      0.00
    1    1   21     -7.49      0.00
    2    1   21     -2.45      0.00
    3    1   21      0.38      0.00
    4    1   21      4.77      0.00
    5    1   21      0.88      0.00
    6    1   21      1.86      0.00
    7    1   21      2.86      0.00
    8    1   21      7.27      0.00
    9    1   21      5.98      0.00
   10    1   21     -1.30      0.00
   11    1   21     -0.32      0.00
   12    1   21      9.93      0.00
   13    1   21      0.04      0.00
   14    1   21    -13.09      0.00
   15    1   21     -4.30      0.00
   16    1   21      4.39      0.00
   17    1   21      7.35      0.00
   18    1   21     13.09      0.00
   19    1   21      0.09      0.00
   20    1   21    -11.76      0.00
   21    1   21      9.94      0.00
   22    1   21      1.12      0.00
   23    1   21    -16.56      0.00
   24    1   21     -4.74      0.00
   25    1   21      3.38      0.00
   26    1   21      7.57      0.00
   27    1   21      2.01      0.00
   28    1   21     12.05      0.00
   29    1   21      1.81      0.00
   30    1   21    -14.58      0.00
   31    1   21      2.14      0.00
   32    1   21      0.45      0.00
   33    1   21     -5.24      0.00
   34    1   21      3.37      0.00
   35    1   21      2.43      0.00
   36    1   21    -13.82      0.00
   37    1   21     -7.61      0.00
   38    1   21     20.57      0.00
   39    1   21     15.18      0.00
   40    1   21      2.08      0.00
   41    1   21    -10.31      0.00
   42    1   21    -11.25      0.00
   43    1   21      5.84      0.00
   44    1   21      0.04      0.00
   45    1   21      4.74      0.00
   46    1   21     -7.52      0.00
   47    1   21     -9.96      0.00
   48    1   21      9.46      0.00
   49    1   21     13.21      0.00
   50    1   21      3.63      0.00
   51    1   21     -8.30      0.00
   52    1   21     -4.83      0.00
    1    2   21      4.78      0.00
    2    2   21     -6.73      0.00
    3    2   21      1.61      0.00
    4    2   21      2.76      0.00
    5    2   21    -16.33      0.00
    6    2   21     -1.20      0.00
    7    2   21     18.22      0.00
    8    2   21     -0.51      0.00
    9    2   21     -8.86      0.00
   10    2   21     -8.12      0.00
   11    2   21      5.07      0.00
   12    2   21      3.92      0.00
   13    2   21     -5.32      0.00
   14    2   21      0.84      0.00
   15    2   21      4.09      0.00
   16    2   21     -9.31      0.00
   17    2   21     -6.03      0.00
   18    2   21      0.01      0.00
   19    2   21     -1.78      0.00
   20    2   21      5.03      0.00
   21    2   21      5.91      0.00
   22    2   21      3.05      0.00
   23    2   21     -1.92      0.00
   24    2   21     -6.73      0.00
   25    2   21     -2.18      0.00
   26    2   21    -14.09      0.00
   27    2   21     -1.21      0.00
   28    2   21     17.61      0.00
   29    2   21      5.80      0.00
   30    2   21      4.17      0.00
   31    2   21     -0.92      0.00
   32    2   21     -8.01      0.00
   33    2   21     -1.10      0.00
   34    2   21     14.73      0.00
   35    2   21      2.85      0.00
   36    2   21    -17.93      0.00
   37    2   21     -3.20      0.00
   38    2   21      0.10      0.00
   39    2   21      6.97      0.00
   40    2   21      9.01      0.00
   41    2   21      2.82      0.00
   42    2   21      8.87      0.00
   43    2   21     -4.82      0.00
   44    2   21     -7.31      0.00
   45    2   21     -3.49      0.00
   46    2   21     -0.49      0.00
   47    2   21      9.64      0.00
   48    2   21     -7.74      0.00
   49    2   21     -8.26      0.00
   50    2   21      7.23      0.00
   51    2   21      3.46      0.00
   52    2   21      7.14      0.00
    0    3   21     -0.53      0.00
    1    3   21     18.46      0.00
    2    3   21     -0.91      0.00
    3    3   21      4.86      0.00
    4    3   21     -5.12      0.00
    5    3   21    -17.71      0.00
    6    3   21     -1.13      0.00
    7    3   21      4.93      0.00
    8    3   21      1.15      0.00
    9    3   21      2.60      0.00
   10    3   21      0.16      0.00
   11    3   21     -2.32      0.00
   12    3   21     -5.19      0.00
   13    3   21     -0.90      0.00
   14    3   21      1.57      0.00
   15    3   21      0.84      0.00
   16    3   21     -0.11      0.00
   17    3   21     -5.31      0.00
   18    3   21     -5.29      0.00
   19    3   21      4.99      0.00
   20    3   21     -4.84      0.00
   21    3   21      0.04      0.00
   22    3   21      9.98      0.00
   23    3   21     -5.80      0.00
   24    3   21     -0.72      0.00
   25    3   21      6.70      0.00
   26    3   21     -3.26      0.00
   27    3   21     -8.66      0.00
   28    3   21     -5.03      0.00
   29    3   21      7.21      0.00
   30    3   21     -6.87      0.00
   31    3   21      1.71      0.00
   32    3   21      2.15      0.00
   33    3   21     -5.08      0.00
   34    3   21      4.34      0.00
   35    3   21      2.64      0.00
   36    3   21      4.20      0.00
   37    3   21     -8.40      0.00
   38    3   21     -8.81      0.00
   39    3   21     -0.03      0.00
   40    3   21     -5.81      0.00
   41    3   21      7.60      0.00
   42    3   21      1.71      0.00
   43    3   21     -3.47      0.00
   44    3   21      2.75      0.00
   45    3   21     -1.94      0.00
   46    3   21      8.07      0.00
   47    3   21     -0.92      0.00
   48    3   21    -12.25      0.00
   49    3   21     -6.07      0.00
   50    3   21      2.26      0.00
   51    3   21      8.13      0.00
    1    4   21     -7.76      0.00
    2    4   21     13.85      0.00
    3    4   21      7.33      0.00
    4    4   21    -14.53      0.00
    5    4   21      5.72      0.00
    6    4   21      6.92      0.00
    7    4   21    -14.50      0.00
    8    4   21     -1.39      0.00
    9    4   21      8.05      0.00
   10    4   21     -5.90      0.00
   11    4   21     -5.37      0.00
   12    4   21     10.88      0.00
   13    4   21      3.78      0.00
   14    4   21     -3.99      0.00
   15    4   21      0.13      0.00
   16    4   21     -1.01      0.00
   17    4   21     -6.04      0.00
   18    4   21      3.11      0.00
   19    4   21      4.76      0.00
   20    4   21     -3.46      0.00
   21    4   21     -4.18      0.00
   22    4   21     -8.25      0.00
   23    4   21      1.73      0.00
   24    4   21      1.16      0.00
   25    4   21      1.39      0.00
   26    4   21      6.48      0.00
   27    4   21     -5.23      0.00
   28    4   21      3.56      0.00
   29    4   21     -3.75      0.00
   30    4   21     -3.29      0.00
   31    4   21      1.13      0.00
   32    4   21     -4.13      0.00
   33    4   21      6.89      0.00
   34    4   21    -10.69      0.00
   35    4   21     -7.03      0.00
   36    4   21      4.50      0.00
   37    4   21     -0.08      0.00
   38    4   21     11.48      0.00
   39    4   21     -0.49      0.00
   40    4   21     -3.71      0.00
   41    4   21     -4.43      0.00
   42    4   21     -1.84      0.00
   43    4   21     11.87      0.00
   44    4   21     -0.39      0.00
   45    4   21     -7.98      0.00
   46    4   21     -1.35      0.00
   47    4   21      0.49      0.00
   48    4   21      2.60      0.00
   49    4   21      9.78      0.00
   50    4   21      2.64      0.00
    0    5   21     -8.37      0.00
    1    5   21     -0.30      0.00
    2    5   21      1.90      0.00
    3    5   21     -5.82      0.00
    4    5   21      7.88      0.00
    5    5   21      1.57      0.00
    6    5   21      2.65      0.00
    7    5   21      0.46      0.00
    8    5   21     -6.71      0.00
    9    5   21      5.72      0.00
   10    5   21      1.51      0.00
   11    5   21     -3.99      0.00
   12    5   21      0.26      0.00
   13    5   21     -3.78      0.00
   14    5   21      8.12      0.00
   15    5   21      8.33      0.00
   16    5   21     -6.52      0.00
   17    5   21    -10.56      0.00
   18    5   21      1.00      0.00
   19    5   21      6.16      0.00
   20    5   21     24.89      0.00
   21    5   21      4.94      0.00
   22    5   21    -20.80      0.00
   23    5   21    -16.56      0.00
   24    5   21      5.20      0.00
   25    5   21     12.54      0.00
   26    5   21     -2.32      0.00
   27    5   21      5.55      0.00
   28    5   21      4.14      0.00
   29    5   21    -10.79      0.00
   30    5   21      7.28      0.00
   31    5   21      2.83      0.00
   32    5   21      9.82      0.00
   33    5   21      0.28      0.00
   34    5   21      1.69      0.00
   35    5   21      8.22      0.00
   36    5   21    -12.18      0.00
   37    5   21     -6.97      0.00
   38    5   21     -3.59      0.00
   39    5   21     -1.46      0.00
   40    5   21     13.29      0.00
   41    5   21      7.65      0.00
   42    5   21     -1.14      0.00
   43    5   21     -0.07      0.00
   44    5   21      4.54      0.00
   45    5   21      0.95      0.00
   46    5   21      2.58      0.00
   47    5   21     -5.46      0.00
   48    5   21    -12.61      0.00
    1    6   21      6.77      0.00
    2    6   21     -6.65      0.00
    3    6   21     -2.32      0.00
    4    6   21     -0.79      0.00
    5    6   21      1.64      0.00
    6    6   21      8.36      0.00
    7    6   21     -8.87      0.00
    8    6   21      2.80      0.00
    9    6   21     -2.14      0.00
   10    6   21     -5.04      0.00
   11    6   21     20.22      0.00
   12    6   21      0.52      0.00
   13    6   21    -10.77      0.00
   14    6   21      0.58      0.00
   15    6   21      7.59      0.00
   16    6   21      8.15      0.00
   17    6   21    -11.37      0.00
   18    6   21    -13.71      0.00
   19    6   21     12.39      0.00
   20    6   21      8.26      0.00
   21    6   21      1.41      0.00
   22    6   21     12.81      0.00
   23    6   21    -13.39      0.00
   24    6   21     -6.00      0.00
   25    6   21     18.82      0.00
   26    6   21     -5.26      0.00
   27    6   21     -9.52      0.00
   28    6   21      3.55      0.00
   29    6   21      3.50      0.00
   30    6   21     -5.02      0.00
   31    6   21      3.38      0.00
   32    6   21     -3.87      0.00
   33    6   21     -1.39      0.00
   34    6   21     12.68      0.00
   35    6   21     -0.40      0.00
   36    6   21      8.73      0.00
   37    6   21      5.88      0.00
   38    6   21    -14.90      0.00
   39    6   21     -9.63      0.00
   40    6   21     -6.33      0.00
   41    6   21     -2.16      0.00
   42    6   21      3.29      0.00
   43    6   21      8.29      0.00
   44    6   21      1.23      0.00
   45    6   21     -1.18      0.00
    0    7   21      5.43      0.00
    1    7   21     -3.97      0.00
    2    7   21     -3.42      0.00
    3    7   21     14.57      0.00
    4    7   21     -8.24      0.00
    5    7   21     -0.44      0.00
    6    7   21      5.89      0.00
    7    7   21     -1.66      0.00
    8    7   21     -8.83      0.00
    9    7   21    -12.19      0.00
   10    7   21     10.34      0.00
   11    7   21      1.60      0.00
   12    7   21     -4.39      0.00
   13    7   21     11.47      0.00
   14    7   21    -19.26      0.00
   15    7   21     -4.48      0.00
   16    7   21     13.46      0.00
   17    7   21      0.59      0.00
   18    7   21     -1.84      0.00
   19    7   21      3.89      0.00
   20    7   21    -17.16      0.00
   21    7   21     -2.10      0.00
   22    7   21     11.02      0.00
   23    7   21     -7.44      0.00
   24    7   21     -6.01      0.00
   25    7   21      5.81      0.00
   26    7   21     -4.75      0.00
   27    7   21      6.53      0.00
   28    7   21      3.71      0.00
   29    7   21     -7.07      0.00
   30    7   21     -3.82      0.00
   31    7   21     -4.13      0.00
   32    7   21     -6.14      0.00
   33    7   21      6.16      0.00
   34    7   21     -4.49      0.00
   35    7   21     -0.27      0.00
   36    7   21      2.01      0.00
   37    7   21     -0.51      0.00
   38    7   21     10.11      0.00
   39    7   21      0.03      0.00
   40    7   21     -7.31      0.00
   41    7   21     -4.53      0.00
    1    8   21    -15.94      0.00
    2    8   21      0.17      0.00
    3    8   21     16.63      0.00
    4    8   21     -0.54      0.00
    5    8   21     -2.96      0.00
    6    8   21     -5.09      0.00
    7    8   21      2.53      0.00
    8    8   21     -1.14      0.00
    9    8   21      1.50      0.00
   10    8   21     -2.53      0.00
   11    8   21    -12.98      0.00
   12    8   21     16.67      0.00
   13    8   21      2.99      0.00
   14    8   21    -11.54      0.00
   15    8   21      1.10      0.00
   16    8   21    -13.50      0.00
   17    8   21     -4.06      0.00
   18    8   21     10.45      0.00
   19    8   21      6.54      0.00
   20    8   21     -2.11      0.00
   21    8   21      2.06      0.00
   22    8   21      4.65      0.00
   23    8   21     -5.65      0.00
   24    8   21     -5.55      0.00
   25    8   21    -11.72      0.00
   26    8   21      0.83      0.00
   27    8   21      8.18      0.00
   28    8   21      2.83      0.00
   29    8   21     11.35      0.00
   30    8   21     -5.21      0.00
   31    8   21    -15.74      0.00
   32    8   21      3.89      0.00
   33    8   21      3.13      0.00
   34    8   21      5.35      0.00
   35    8   21      0.37      0.00
   36    8   21     -7.27      0.00
   37    8   21      0.65      0.00
    0    9   21     -3.27      0.00
    1    9   21      3.28      0.00
    2    9   21      2.15      0.00
    3    9   21     -8.10      0.00
    4    9   21     11.60      0.00
    5    9   21     -1.34      0.00
    6    9   21     -3.68      0.00
    7    9   21      1.66      0.00
    8    9   21     -3.08      0.00
    9    9   21     18.91      0.00
   10    9   21      5.47      0.00
   11    9   21    -23.00      0.00
   12    9   21     -6.25      0.00
   13    9   21     11.02      0.00
   14    9   21     29.62      0.00
   15    9   21     -0.77      0.00
   16    9   21    -10.98      0.00
   17    9   21     -7.97      0.00
   18    9   21    -13.25      0.00
   19    9   21      5.41      0.00
   20    9   21     25.22      0.00
   21    9   21     -2.23      0.00
   22    9   21    -18.19      0.00
   23    9   21     19.32      0.00
   24    9   21     15.19      0.00
   25    9   21    -22.12      0.00
   26    9   21      6.39      0.00
   27    9   21     -1.11      0.00
   28    9   21     -8.02      0.00
   29    9   21     10.18      0.00
   30    9   21      4.98      0.00
   31    9   21     -2.29      0.00
    1   10   21      2.67      0.00
    2   10   21     -3.34      0.00
    3   10   21      2.14      0.00
    4   10   21     -6.07      0.00
    5   10   21      1.61      0.00
    6   10   21     15.79      0.00
    7   10   21    -16.04      0.00
    8   10   21     -5.25      0.00
    9   10   21     20.34      0.00
   10   10   21     -0.65      0.00
   11   10   21      0.34      0.00
   12   10   21     -5.84      0.00
   13   10   21    -13.53      0.00
   14   10   21     11.48      0.00
   15   10   21     14.63      0.00
   16   10   21     -3.73      0.00
   17   10   21     -2.38      0.00
   18   10   21      3.08      0.00
   19   10   21     -9.73      0.00
   20   10   21      0.54      0.00
   21   10   21      0.26      0.00
   22   10   21     -5.05      0.00
   23   10   21     11.41      0.00
    0   11   21     11.16      0.00
    1   11   21      0.22      0.00
    2   11   21     -0.62      0.00
    3   11   21      5.05      0.00
    4   11   21    -15.79      0.00
    5   11   21     -2.63      0.00
    6   11   21      4.99      0.00
    6    0   22      1.38      0.00
    7    0   22      8.94      0.00
    8    0   22     12.48      0.00
    9    0   22     -0.39      0.00
   10    0   22     -9.05      0.00
   11    0   22      6.15      0.00
   12    0   22      6.88      0.00
   13    0   22      3.63      0.00
   14    0   22      5.93      0.00
   15    0   22     -5.00      0.00
   16    0   22     -2.93      0.00
   17    0   22      0.78      0.00
   18    0   22      8.41      0.00
   19    0   22     13.89      0.00
   20    0   22    -13.82      0.00
   21    0   22     -3.72      0.00
   22    0   22     10.00      0.00
   23    0   22     -1.40      0.00
   24    0   22      0.73      0.00
   25    0   22     -7.32      0.00
   26    0   22     -6.64      0.00
   27    0   22      5.19      0.00
   28    0   22     18.55      0.00
   29    0   22      8.14      0.00
   30    0   22    -22.55      0.00
   31    0   22     -7.11      0.00
   32    0   22      9.90      0.00
   33    0   22     -8.25      0.00
   34    0   22      0.33      0.00
   35    0   22      3.82      0.00
   36    0   22     -1.47      0.00
   37    0   22      6.37      0.00
   38    0   22      3.60      0.00
   39    0   22      0.81      0.00
   40    0   22    -16.16      0.00
   41    0   22    -12.78      0.00
   42    0   22     10.89      0.00
   43    0   22     14.07      0.00
   44    0   22      5.26      0.00
   45    0   22     -6.84      0.00
   46    0   22     -5.39      0.00
   47    0   22      1.33      0.00
   48    0   22     -5.81      0.00
   50    0   22      3.37      0.00
   51    0   22     -8.97      0.00
    3    1   22     -1.21      0.00
    4    1   22     10.20      0.00
    5    1   22     -2.14      0.00
    6    1   22     -9.52      0.00
    7    1   22      6.29      0.00
    8    1   22      3.46      0.00
    9    1   22     -3.00      0.00
   10    1   22     -1.51      0.00
   11    1   22      2.40      0.00
   12    1   22     -7.63      0.00
   13    1   22      5.28      0.00
   14    1   22      2.53      0.00
   15    1   22     -6.90      0.00
   16    1   22     -0.51      0.00
   17    1   22      3.15      0.00
   18    1   22      0.20      0.00
   19    1   22    -12.18      0.00
   20    1   22     -1.39      0.00
   21    1   22     10.19      0.00
   22    1   22     -6.75      0.00
   23    1   22      7.09      0.00
   24    1   22      3.72      0.00
   25    1   22    -12.84      0.00
   26    1   22     -0.80      0.00
   27    1   22     -1.34      0.00
   28    1   22     -2.06      0.00
   29    1   22      5.75      0.00
   30    1   22     10.65      0.00
   31    1   22      6.18      0.00
   32    1   22     -8.11      0.00
   33    1   22     -1.06      0.00
   34    1   22      0.69      0.00
   35    1   22    -10.91      0.00
   36    1   22      2.85      0.00
   37    1   22      9.74      0.00
   38    1   22      5.44      0.00
   39    1   22     11.44      0.00
   40    1   22      2.28      0.00
   41    1   22     -8.98      0.00
   42    1   22    -12.55      0.00
   43    1   22     -4.93      0.00
   44    1   22      8.65      0.00
   45    1   22      9.16      0.00
   46    1   22      5.62      0.00
   47    1   22     -0.38      0.00
   48    1   22      1.73      0.00
   49    1   22     -8.10      0.00
   50    1   22     -5.07      0.00
   51    1   22     11.19      0.00
    0    2   22      4.65      0.00
    1    2   22      2.94      0.00
    2    2   22     -4.35      0.00
    3    2   22     -1.56      0.00
    4    2   22     -9.07      0.00
    5    2   22     -3.91      0.00
    6    2   22     -0.61      0.00
    7    2   22     -3.87      0.00
    8    2   22      5.55      0.00
    9    2   22      5.51      0.00
   10    2   22     -5.89      0.00
   11    2   22     -8.48      0.00
   12    2   22     -5.90      0.00
   13    2   22     -1.90      0.00
   14    2   22     -1.66      0.00
   15    2   22      4.06      0.00
   16    2   22     -1.04      0.00
   17    2   22     -4.04      0.00
   18    2   22      6.16      0.00
   19    2   22     -2.80      0.00
   20    2   22     -6.08      0.00
   21    2   22     -5.52      0.00
   22    2   22     -0.83      0.00
   23    2   22      4.92      0.00
   24    2   22      3.06      0.00
   25    2   22      9.41      0.00
   26    2   22     -4.47      0.00
   27    2   22    -13.70      0.00
   28    2   22     -4.04      0.00
   29    2   22      3.60      0.00
   30    2   22      6.92      0.00
   31    2   22      5.00      0.00
   32    2   22     -2.39      0.00
   33    2   22      4.08      0.00
   34    2   22      0.43      0.00
   35    2   22     -9.63      0.00
   36    2   22     -2.06      0.00
   37    2   22     -2.77      0.00
   38    2   22     -6.23      0.00
   39    2   22      4.32      0.00
   40    2   22     15.35      0.00
   41    2   22      7.18      0.00
   42    2   22     -8.54      0.00
   43    2   22     -2.40      0.00
   44    2   22     -4.58      0.00
   45    2   22    -10.44      0.00
   46    2   22      5.64      0.00
   47    2   22      2.60      0.00
   48    2   22      0.59      0.00
   49    2   22      1.83      0.00
   50    2   22     -1.43      0.00
    1    3   22      0.37      0.00
    2    3   22      5.35      0.00
    3    3   22     -0.88      0.00
    4    3   22     -0.79      0.00
    5    3   22     -0.87      0.00
    6    3   22    -11.01      0.00
    7    3   22    -12.43      0.00
    8    3   22     12.57      0.00
    9    3   22      4.24      0.00
   10    3   22     -1.37      0.00
   11    3   22      7.49      0.00
   12    3   22      2.07      0.00
   13    3   22    -10.04      0.00
   14    3   22      3.04      0.00
   15    3   22      4.33      0.00
   16    3   22    -12.00      0.00
   17    3   22      0.27      0.00
   18    3   22      5.91      0.00
   19    3   22      0.49      0.00
   20    3   22      7.27      0.00
   21    3   22     -9.22      0.00
   22    3   22     -8.74      0.00
   23    3   22      5.06      0.00
   24    3   22      2.02      0.00
   25    3   22      1.94      0.00
   26    3   22      2.30      0.00
   27    3   22      1.17      0.00
   28    3   22     -4.15      0.00
   29    3   22    -13.14      0.00
   30    3   22      0.57      0.00
   31    3   22      4.32      0.00
   32    3   22     -1.56      0.00
   33    3   22      0.06      0.00
   34    3   22     -3.95      0.00
   35    3   22      4.99      0.00
   36    3   22      5.90      0.00
   37    3   22     -6.01      0.00
   38    3   22     -8.93      0.00
   39    3   22    -11.74      0.00
   40    3   22      4.14      0.00
   41    3   22      8.17      0.00
   42    3   22      4.51      0.00
   43    3   22      2.15      0.00
   44    3   22    -10.98      0.00
   45    3   22      1.65      0.00
   46    3   22      5.05      0.00
   47    3   22      1.14      0.00
   48    3   22      4.08      0.00
   49    3   22     -9.89      0.00
    0    4   22     -7.78      0.00
    1    4   22      5.61      0.00
    2    4   22      7.56      0.00
    3    4   22      3.70      0.00
    4    4   22      6.36      0.00
    5    4   22      3.09      0.00
    6    4   22    -13.04      0.00
    7    4   22     -6.04      0.00
    8    4   22     11.07      0.00
    9    4   22     -2.21      0.00
   10    4   22     -5.80      0.00
   11    4   22      5.44      0.00
   12    4   22     -4.10      0.00
   13    4   22      1.36      0.00
   14    4   22     23.91      0.00
   15    4   22     -8.03      0.00
   16    4   22    -15.49      0.00
   17    4   22     11.50      0.00
   18    4   22     -0.38      0.00
   19    4   22      3.79      0.00
   20    4   22      5.65      0.00
   21    4   22    -16.40      0.00
   22    4   22      0.23      0.00
   23    4   22      4.45      0.00
   24    4   22      4.66      0.00
   25    4   22     -5.91      0.00
   26    4   22     -8.37      0.00
   27    4   22     21.74      0.00
   28    4   22      3.80      0.00
   29    4   22    -12.41      0.00
   30    4   22     10.67      0.00
   31    4   22     -3.90      0.00
   32    4   22     -2.09      0.00
   33    4   22     -0.40      0.00
   34    4   22     -1.24      0.00
   35    4   22      0.06      0.00
   36    4   22      0.52      0.00
   37    4   22      8.63      0.00
   38    4   22     -2.89      0.00
   39    4   22      1.13      0.00
   40    4   22      6.20      0.00
   41    4   22     -7.77      0.00
   42    4   22      4.61      0.00
   43    4   22      5.05      0.00
   44    4   22     -4.41      0.00
   45    4   22     -0.26      0.00
   46    4   22      1.76      0.00
   47    4   22     -0.36      0.00
    1    5   22     -7.91      0.00
    2    5   22      3.86      0.00
    3    5   22     19.30      0.00
    4    5   22     -6.95      0.00
    5    5   22     -8.79      0.00
    6    5   22     12.27      0.00
    7    5   22      5.19      0.00
    8    5   22     -1.03      0.00
    9    5   22     -7.34      0.00
   10    5   22     -4.95      0.00
   11    5   22      9.17      0.00
   12    5   22    -13.02      0.00
   13    5   22      6.54      0.00
   14    5   22     18.36      0.00
   15    5   22    -11.11      0.00
   16    5   22      3.30      0.00
   17    5   22      0.88      0.00
   18    5   22    -12.73      0.00
   19    5   22     10.32      0.00
   20    5   22      7.35      0.00
   21    5   22     15.13      0.00
   22    5   22      4.07      0.00
   23    5   22    -19.61      0.00
   24    5   22     -2.57      0.00
   25    5   22     -0.83      0.00
   26    5   22      3.18      0.00
   27    5   22      0.68      0.00
   28    5   22     -4.87      0.00
   29    5   22     25.02      0.00
   30    5   22     -1.97      0.00
   31    5   22    -14.49      0.00
   32    5   22      5.10      0.00
   33    5   22      7.71      0.00
   34    5   22      8.48      0.00
   35    5   22     -1.55      0.00
   36    5   22     -0.74      0.00
   37    5   22     -7.96      0.00
   38    5   22    -12.23      0.00
   39    5   22      5.76      0.00
   40    5   22      4.06      0.00
   41    5   22      3.84      0.00
   42    5   22      2.80      0.00
   43    5   22     -1.02      0.00
   44    5   22     -0.64      0.00
   45    5   22      0.10      0.00
    0    6   22     -4.09      0.00
    1    6   22     -5.06      0.00
    2    6   22      4.33      0.00
    3    6   22      1.00      0.00
    4    6   22    -12.91      0.00
    5    6   22     14.31      0.00
    6    6   22      8.48      0.00
    7    6   22     -8.45      0.00
    8    6   22     -0.50      0.00
    9    6   22     -7.15      0.00
   10    6   22      6.13      0.00
   11    6   22      0.05      0.00
   12    6   22     -5.18      0.00
   13    6   22      6.53      0.00
   14    6   22    -22.15      0.00
   15    6   22     14.47      0.00
   16    6   22     22.12      0.00
   17    6   22    -18.98      0.00
   18    6   22     -7.65      0.00
   19    6   22     -9.27      0.00
   20    6   22     -1.97      0.00
   21    6   22     26.38      0.00
   22    6   22     -8.22      0.00
   23    6   22      1.25      0.00
   24    6   22      6.62      0.00
   25    6   22    -17.06      0.00
   26    6   22     -2.06      0.00
   27    6   22      2.95      0.00
   28    6   22     -4.31      0.00
   29    6   22      6.44      0.00
   30    6   22      3.00      0.00
   31    6   22    -13.16      0.00
   32    6   22    -14.92      0.00
   33    6   22     14.90      0.00
   34    6   22      3.13      0.00
   35    6   22     -2.80      0.00
   36    6   22     12.20      0.00
   37    6   22      0.33      0.00
   38    6   22    -10.89      0.00
   39    6   22     -6.19      0.00
   40    6   22     -2.34      0.00
   41    6   22     -5.88      0.00
   42    6   22      0.14      0.00
    1    7   22     -8.81      0.00
    2    7   22      5.69      0.00
    3    7   22     -0.54      0.00
    4    7   22     -9.01      0.00
    5    7   22      9.97      0.00
    6    7   22      6.83      0.00
    7    7   22     -5.03      0.00
    8    7   22    -18.22      0.00
    9    7   22      2.78      0.00
   10    7   22     15.76      0.00
   11    7   22    -12.25      0.00
   12    7   22      6.71      0.00
   13    7   22     -8.89      0.00
   14    7   22     -9.71      0.00
   15    7   22     15.40      0.00
   16    7   22    -10.20      0.00
   17    7   22      0.91      0.00
   18    7   22      1.80      0.00
   19    7   22    -19.73      0.00
   20    7   22     12.63      0.00
   21    7   22      4.74      0.00
   22    7   22     -6.49      0.00
   23    7   22      7.26      0.00
   24    7   22     -7.00      0.00
   25    7   22    -13.70      0.00
   26    7   22      3.25      0.00
   27    7   22      8.04      0.00
   28    7   22      6.86      0.00
   29    7   22     -6.90      0.00
   30    7   22     -9.60      0.00
   31    7   22      1.74      0.00
   32    7   22      8.94      0.00
   33    7   22     -7.39      0.00
   34    7   22     -3.99      0.00
   35    7   22      1.49      0.00
   36    7   22     -7.04      0.00
   37    7   22      4.52      0.00
   38    7   22     13.50      0.00
    0    8   22     -3.25      0.00
    1    8   22     -3.15      0.00
    2    8   22     -2.95      0.00
    3    8   22     -8.04      0.00
    4    8   22     18.09      0.00
    5    8   22     -2.66      0.00
    6    8   22    -12.71      0.00
    7    8   22     18.54      0.00
    8    8   22     10.20      0.00
    9    8   22     -9.83      0.00
   10    8   22     -8.84      0.00
   11    8   22    -10.63      0.00
   12    8   22    -10.07      0.00
   13    8   22     20.07      0.00
   14    8   22     46.01      0.00
   15    8   22    -21.12      0.00
   16    8   22    -27.21      0.00
   17    8   22      3.76      0.00
   18    8   22      0.23      0.00
   19    8   22     17.30      0.00
   20    8   22      2.33      0.00
   21    8   22    -25.49      0.00
   22    8   22      8.61      0.00
   23    8   22     16.92      0.00
   24    8   22      9.33      0.00
   25    8   22     -1.24      0.00
   26    8   22    -12.24      0.00
   27    8   22     -8.66      0.00
   28    8   22      2.95      0.00
   29    8   22      5.43      0.00
   30    8   22     12.81      0.00
   31    8   22      0.28      0.00
   32    8   22    -10.10      0.00
   33    8   22     -0.27      0.00
    1    9   22      1.48      0.00
    2    9   22     -7.79      0.00
    3    9   22      3.57      0.00
    4    9   22      2.07      0.00
    5    9   22     -4.64      0.00
    6    9   22     -3.91      0.00
    7    9   22      8.59      0.00
    8    9   22     22.98      0.00
    9    9   22      1.55      0.00
   10    9   22    -12.26      0.00
   11    9   22     -1.66      0.00
   12    9   22    -13.69      0.00
   13    9   22      9.15      0.00
   14    9   22      9.30      0.00
   15    9   22    -12.82      0.00
   16    9   22     12.01      0.00
   17    9   22     15.47      0.00
   18    9   22      3.81      0.00
   19    9   22     -3.78      0.00
   20    9   22    -22.96      0.00
   21    9   22     -2.18      0.00
   22    9   22     15.10      0.00
   23    9   22      1.67      0.00
   24    9   22     -0.79      0.00
   25    9   22      4.11      0.00
   26    9   22     -6.30      0.00
   27    9   22      5.23      0.00
    0   10   22     -3.43      0.00
    1   10   22     -2.37      0.00
    2   10   22      3.90      0.00
    3   10   22    -10.99      0.00
    4   10   22      1.85      0.00
    5   10   22     16.99      0.00
    6   10   22    -20.46      0.00
    7   10   22    -11.91      0.00
    8   10   22      6.29      0.00
    9   10   22     -2.06      0.00
   10   10   22     14.80      0.00
   11   10   22     17.99      0.00
   12   10   22    -12.36      0.00
   13   10   22    -22.18      0.00
   14   10   22    -10.81      0.00
   15   10   22     13.07      0.00
   16   10   22      2.68      0.00
   17   10   22     -3.04      0.00
    7    0   23      4.58      0.00
    8    0   23     -1.90      0.00
    9    0   23    -12.15      0.00
   10    0   23      4.09      0.00
   11    0   23     17.10      0.00
   12    0   23      1.46      0.00
   13    0   23     10.78      0.00
   14    0   23     -1.50      0.00
   15    0   23     -1.22      0.00
   16    0   23    -10.90      0.00
   17    0   23    -19.47      0.00
   18    0   23      9.21      0.00
   19    0   23      5.14      0.00
   20    0   23      2.52      0.00
   21    0   23      5.67      0.00
   22    0   23    -10.88      0.00
   23    0   23     10.44      0.00
   24    0   23      6.70      0.00
   25    0   23    -14.09      0.00
   26    0   23     -3.70      0.00
   27    0   23     -7.55      0.00
   28    0   23      6.13      0.00
   29    0   23     17.56      0.00
   30    0   23     -0.97      0.00
   31    0   23     -8.96      0.00
   32    0   23     -8.90      0.00
   33    0   23      6.61      0.00
   34    0   23      8.10      0.00
   35    0   23     -1.48      0.00
   36    0   23      4.67      0.00
   37    0   23      5.79      0.00
   38    0   23     -2.09      0.00
   39    0   23     -4.33      0.00
   40    0   23     -1.49      0.00
   41    0   23    -12.03      0.00
   42    0   23      3.49      0.00
   43    0   23     21.90      0.00
   44    0   23     -2.07      0.00
   45    0   23     -6.34      0.00
   46    0   23      7.83      0.00
    1    1   23    -16.29      0.00
    2    1   23     -3.56      0.00
    3    1   23      2.95      0.00
    4    1   23     -5.26      0.00
    5    1   23     12.76      0.00
    6    1   23     -7.08      0.00
    7    1   23    -11.58      0.00
    8    1   23      0.51      0.00
    9    1   23     -2.95      0.00
   10    1   23     -2.66      0.00
   11    1   23    -21.09      0.00
   12    1   23     -4.56      0.00
   13    1   23      8.14      0.00
   14    1   23      9.05      0.00
   15    1   23     15.53      0.00
   16    1   23    -12.05      0.00
   17    1   23    -20.12      0.00
   18    1   23      0.34      0.00
   19    1   23      9.60      0.00
   20    1   23     -2.95      0.00
   21    1   23    -28.78      0.00
   22    1   23      8.25      0.00
   23    1   23     22.17      0.00
   24    1   23     -7.06      0.00
   25    1   23     10.53      0.00
   26    1   23     -2.40      0.00
   27    1   23    -20.32      0.00
   28    1   23      2.93      0.00
   29    1   23      9.24      0.00
   30    1   23      2.79      0.00
   31    1   23     -1.83      0.00
   32    1   23     -2.84      0.00
   33    1   23      4.96      0.00
   34    1   23     -1.69      0.00
   35    1   23     -5.90      0.00
   36    1   23      8.47      0.00
   37    1   23      5.32      0.00
   38    1   23     -9.44      0.00
   39    1   23      8.81      0.00
   40    1   23     13.82      0.00
   41    1   23    -10.57      0.00
   42    1   23     -9.09      0.00
   43    1   23     -3.26      0.00
   44    1   23      0.55      0.00
   45    1   23      2.69      0.00
   46    1   23      6.88      0.00
   47    1   23      8.09      0.00
   48    1   23     -7.20      0.00
    1    2   23     -0.51      0.00
    2    2   23      1.78      0.00
    3    2   23    -12.24      0.00
    4    2   23      6.88      0.00
    5    2   23      2.38      0.00
    6    2   23    -10.13      0.00
    7    2   23     -3.68      0.00
    8    2   23      3.46      0.00
    9    2   23      9.85      0.00
   10    2   23      2.78      0.00
   11    2   23    -15.09      0.00
   12    2   23     -4.46      0.00
   13    2   23     -4.40      0.00
   14    2   23      4.19      0.00
   15    2   23     -4.64      0.00
   16    2   23      2.01      0.00
   17    2   23     20.25      0.00
   18    2   23     -2.33      0.00
   19    2   23     -4.62      0.00
   20    2   23     -4.50      0.00
   21    2   23     -5.42      0.00
   22    2   23      1.44      0.00
   23    2   23    -10.31      0.00
   24    2   23      4.55      0.00
   25    2   23      3.46      0.00
   26    2   23      1.89      0.00
   27    2   23     11.93      0.00
   28    2   23     -5.89      0.00
   29    2   23    -10.76      0.00
   30    2   23      1.30      0.00
   31    2   23      0.38      0.00
   32    2   23     -2.35      0.00
   33    2   23      1.96      0.00
   34    2   23     -4.60      0.00
   35    2   23     -1.91      0.00
   36    2   23      6.52      0.00
   37    2   23    -11.46      0.00
   38    2   23     -2.89      0.00
   39    2   23      5.34      0.00
   40    2   23     -3.92      0.00
   41    2   23      3.98      0.00
   42    2   23      1.24      0.00
   43    2   23     -1.90      0.00
   44    2   23      3.19      0.00
   45    2   23     -0.99      0.00
   46    2   23    -12.82      0.00
   47    2   23     -2.96      0.00
   48    2   23     11.87      0.00
    0    3   23     -0.53      0.00
    1    3   23    -11.20      0.00
    2    3   23      1.96      0.00
    3    3   23      5.77      0.00
    4    3   23      5.42      0.00
    5    3   23      5.41      0.00
    6    3   23     -3.45      0.00
    7    3   23     -8.60      0.00
    8    3   23     -1.82      0.00
    9    3   23      5.55      0.00
   10    3   23      7.05      0.00
   11    3   23     12.02      0.00
   12    3   23     -1.42      0.00
   13    3   23     -2.00      0.00
   14    3   23     -3.41      0.00
   15    3   23    -15.93      0.00
   16    3   23     10.63      0.00
   17    3   23      8.51      0.00
   18    3   23     -1.51      0.00
   19    3   23      9.63      0.00
   20    3   23     -2.59      0.00
   21    3   23      1.56      0.00
   22    3   23     -1.05      0.00
   23    3   23     -4.64      0.00
   24    3   23     -2.13      0.00
   25    3   23     -6.18      0.00
   26    3   23      8.05      0.00
   27    3   23      2.25      0.00
   28    3   23     -6.99      0.00
   29    3   23     -0.23      0.00
   30    3   23     10.41      0.00
   31    3   23     -1.16      0.00
   32    3   23     -1.07      0.00
   33    3   23     -0.36      0.00
   34    3   23    -13.69      0.00
   35    3   23      1.94      0.00
   36    3   23     13.04      0.00
   37    3   23      6.65      0.00
   38    3   23     -5.78      0.00
   39    3   23    -10.60      0.00
   40    3   23      2.08      0.00
   41    3   23     -0.77      0.00
   42    3   23      4.50      0.00
   43    3   23      1.58      0.00
   44    3   23     -4.51      0.00
   45    3   23      2.93      0.00
   46    3   23      1.74      0.00
   47    3   23      6.47      0.00
    1    4   23      0.13      0.00
    2    4   23      3.72      0.00
    3    4   23      9.77      0.00
    4    4   23      1.27      0.00
    5    4   23     -8.70      0.00
    6    4   23      3.41      0.00
    7    4   23     12.60      0.00
    8    4   23     -6.75      0.00
    9    4   23     -6.54      0.00
   10    4   23     -2.50      0.00
   11    4   23     -8.81      0.00
   12    4   23     10.67      0.00
   13    4   23     33.66      0.00
   14    4   23    -11.97      0.00
   15    4   23    -15.14      0.00
   16    4   23      6.27      0.00
   17    4   23    -13.29      0.00
   18    4   23      3.09      0.00
   19    4   23     13.93      0.00
   20    4   23     -2.85      0.00
   21    4   23      1.75      0.00
   22    4   23      4.41      0.00
   23    4   23      5.10      0.00
   24    4   23     -4.39      0.00
   25    4   23     -4.19      0.00
   26    4   23      3.00      0.00
   27    4   23      1.74      0.00
   28    4   23      0.79      0.00
   29    4   23      4.98      0.00
   30    4   23    -10.00      0.00
   31    4   23      9.15      0.00
   32    4   23     19.62      0.00
   33    4   23    -13.18      0.00
   34    4   23     -4.17      0.00
   35    4   23     -0.60      0.00
   36    4   23     -8.55      0.00
   37    4   23     16.22      0.00
   38    4   23     10.92      0.00
   39    4   23     -2.23      0.00
   40    4   23     -7.50      0.00
   41    4   23      2.19      0.00
   42    4   23      2.48      0.00
   43    4   23     -7.10      0.00
   44    4   23      4.16      0.00
   45    4   23     -2.15      0.00
    0    5   23     -3.10      0.00
    1    5   23      3.28      0.00
    2    5   23      1.54      0.00
    3    5   23     -2.98      0.00
    4    5   23     -6.82      0.00
    5    5   23      8.18      0.00
    6    5   23      5.36      0.00
    7    5   23     -0.12      0.00
    8    5   23     11.64      0.00
    9    5   23     -1.45      0.00
   10    5   23    -15.02      0.00
   11    5   23    -16.42      0.00
   12    5   23     -0.27      0.00
   13    5   23      3.79      0.00
   14    5   23      2.17      0.00
   15    5   23     29.91      0.00
   16    5   23      4.49      0.00
   17    5   23    -20.75      0.00
   18    5   23     -3.64      0.00
   19    5   23     -7.49      0.00
   20    5   23    -12.95      0.00
   21    5   23     11.22      0.00
   22    5   23     21.20      0.00
   23    5   23      4.49      0.00
   24    5   23    -16.59      0.00
   25    5   23     -1.46      0.00
   26    5   23      3.88      0.00
   27    5   23    -15.87      0.00
   28    5   23     11.46      0.00
   29    5   23     15.20      0.00
   30    5   23    -19.90      0.00
   31    5   23      5.75      0.00
   32    5   23      2.61      0.00
   33    5   23     -7.04      0.00
   34    5   23      4.14      0.00
   35    5   23      1.45      0.00
   36    5   23      0.03      0.00
   37    5   23    -10.02      0.00
   38    5   23     -1.44      0.00
   39    5   23      4.73      0.00
   40    5   23     -2.46      0.00
   41    5   23      4.63      0.00
   42    5   23     -0.73      0.00
    1    6   23    -10.25      0.00
    2    6   23      6.67      0.00
    3    6   23      7.67      0.00
    4    6   23     -7.54      0.00
    5    6   23     -9.52      0.00
    6    6   23     -9.22      0.00
    7    6   23      2.84      0.00
    8    6   23     11.08      0.00
    9    6   23     20.77      0.00
   10    6   23      5.86      0.00
   11    6   23    -23.85      0.00
   12    6   23     -6.96      0.00
   13    6   23    -20.01      0.00
   14    6   23     -7.86      0.00
   15    6   23     16.91      0.00
   16    6   23      9.24      0.00
   17    6   23     10.93      0.00
   18    6   23     -2.78      0.00
   19    6   23    -21.72      0.00
   20    6   23     -0.88      0.00
   21    6   23     -0.06      0.00
   22    6   23      2.40      0.00
   23    6   23      4.17      0.00
   24    6   23    -12.68      0.00
   25    6   23      3.10      0.00
   26    6   23     14.68      0.00
   27    6   23    -15.32      0.00
   28    6   23    -10.77      0.00
   29    6   23     -3.93      0.00
   30    6   23     14.41      0.00
   31    6   23      8.63      0.00
   32    6   23    -10.68      0.00
   33    6   23     -8.07      0.00
   34    6   23     -3.21      0.00
   35    6   23      4.81      0.00
   36    6   23     -2.08      0.00
   37    6   23      0.29      0.00
   38    6   23      9.44      0.00
   39    6   23    -10.53      0.00
    0    7   23     15.23      0.00
    1    7   23     12.69      0.00
    2    7   23     -7.24      0.00
    3    7   23     -7.44      0.00
    4    7   23      3.06      0.00
    5    7   23    -12.77      0.00
    6    7   23     -1.32      0.00
    7    7   23     17.67      0.00
    8    7   23     -8.01      0.00
    9    7   23    -19.20      0.00
   10    7   23      4.92      0.00
   11    7   23     27.33      0.00
   12    7   23      3.08      0.00
   13    7   23     -8.47      0.00
   14    7   23      7.26      0.00
   15    7   23    -32.12      0.00
   16    7   23     -1.91      0.00
   17    7   23     32.64      0.00
   18    7   23    -11.12      0.00
   19    7   23     -8.92      0.00
   20    7   23     10.97      0.00
   21    7   23     -8.41      0.00
   22    7   23      3.05      0.00
   23    7   23      2.31      0.00
   24    7   23      1.64      0.00
   25    7   23     12.73      0.00
   26    7   23     -6.03      0.00
   27    7   23    -12.57      0.00
   28    7   23     -1.80      0.00
   29    7   23     -0.93      0.00
   30    7   23     11.52      0.00
   31    7   23      5.69      0.00
   32    7   23     -1.63      0.00
   33    7   23     -2.72      0.00
   34    7   23      1.54      0.00
    1    8   23      1.90      0.00
    2    8   23     -5.94      0.00
    3    8   23      3.46      0.00
    4    8   23     11.38      0.00
    5    8   23     -4.38      0.00
    6    8   23      1.52      0.00
    7    8   23     15.11      0.00
    8    8   23     -1.46      0.00
    9    8   23     -6.93      0.00
   10    8   23     -7.84      0.00
   11    8   23     -2.90      0.00
   12    8   23      1.18      0.00
   13    8   23     14.70      0.00
   14    8   23     -1.70      0.00
   15    8   23      2.43      0.00
   16    8   23     16.21      0.00
   17    8   23    -11.48      0.00
   18    8   23     -0.55      0.00
   19    8   23     15.86      0.00
   20    8   23    -14.77      0.00
   21    8   23     -2.63      0.00
   22    8   23     -6.19      0.00
   23    8   23     -3.38      0.00
   24    8   23     24.12      0.00
   25    8   23      9.58      0.00
   26    8   23     -7.42      0.00
   27    8   23      2.71      0.00
   28    8   23    -13.95      0.00
   29    8   23     -2.10      0.00
   30    8   23     12.10      0.00
    0    9   23      0.49      0.00
    1    9   23    -14.39      0.00
    2    9   23     -0.16      0.00
    3    9   23      1.18      0.00
    4    9   23     -5.12      0.00
    5    9   23     -3.50      0.00
    6    9   23     -0.42      0.00
    7    9   23      4.88      0.00
    8    9   23      9.07      0.00
    9    9   23      5.67      0.00
   10    9   23      0.71      0.00
   11    9   23      0.24      0.00
   12    9   23     -8.11      0.00
   13    9   23    -10.30      0.00
   14    9   23    -12.47      0.00
   15    9   23     10.09      0.00
   16    9   23      2.89      0.00
   17    9   23     -1.04      0.00
   18    9   23     18.85      0.00
   19    9   23     -7.00      0.00
   20    9   23    -13.36      0.00
   21    9   23     13.50      0.00
   22    9   23     -9.11      0.00
    1   10   23      2.64      0.00
    2   10   23     -4.74      0.00
    3   10   23     -1.87      0.00
    4   10   23     13.71      0.00
    5   10   23     -8.08      0.00
    6   10   23    -14.35      0.00
    7   10   23     -8.32      0.00
    8    0   24      4.18      0.00
    9    0   24     -8.14      0.00
   10    0   24    -17.99      0.00
   11    0   24    -15.03      0.00
   12    0   24      9.74      0.00
   13    0   24      6.11      0.00
   14    0   24     10.71      0.00
   15    0   24     -3.75      0.00
   16    0   24    -17.99      0.00
   17    0   24      7.36      0.00
   18    0   24     14.10      0.00
   19    0   24    -15.30      0.00
   20    0   24    -16.02      0.00
   21    0   24     -6.25      0.00
   22    0   24      2.80      0.00
   23    0   24      4.72      0.00
   24    0   24      6.55      0.00
   25    0   24     13.39      0.00
   26    0   24    -16.27      0.00
   27    0   24     -5.98      0.00
   28    0   24     17.46      0.00
   29    0   24      0.17      0.00
   30    0   24      1.85      0.00
   31    0   24    -10.89      0.00
   32    0   24    -17.50      0.00
   33    0   24     13.18      0.00
   34    0   24     12.65      0.00
   35    0   24     -1.74      0.00
   36    0   24      6.04      0.00
   37    0   24     -2.01      0.00
   38    0   24     -2.63      0.00
   39    0   24     16.67      0.00
   40    0   24     -1.27      0.00
   41    0   24     -8.47      0.00
   42    0   24     -7.95      0.00
   43    0   24    -10.44      0.00
   44    0   24     14.19      0.00
    3    1   24     -6.36      0.00
    4    1   24      7.71      0.00
    5    1   24    -18.51      0.00
    6    1   24     -1.80      0.00
    7    1   24      3.77      0.00
    8    1   24      3.05      0.00
    9    1   24      4.12      0.00
   10    1   24     -9.09      0.00
   11    1   24     -8.16      0.00
   12    1   24     -5.29      0.00
   13    1   24     -8.16      0.00
   14    1   24      6.21      0.00
   15    1   24      3.83      0.00
   16    1   24     -3.52      0.00
   17    1   24     -4.55      0.00
   18    1   24      3.59      0.00
   19    1   24     13.23      0.00
   20    1   24      0.21      0.00
   21    1   24     -5.15      0.00
   22    1   24     -9.74      0.00
   23    1   24    -17.88      0.00
   24    1   24     13.01      0.00
   25    1   24      7.55      0.00
   26    1   24     -8.85      0.00
   27    1   24     12.27      0.00
   28    1   24     -1.70      0.00
   29    1   24     -4.10      0.00
   30    1   24      9.46      0.00
   31    1   24     -7.81      0.00
   32    1   24     -6.45      0.00
   33    1   24      4.61      0.00
   34    1   24     -2.41      0.00
   35    1   24     -3.60      0.00
   36    1   24     -3.36      0.00
   37    1   24     -6.15      0.00
   38    1   24     14.80      0.00
   39    1   24     -0.43      0.00
   40    1   24     -8.64      0.00
   41    1   24     16.82      0.00
   42    1   24     -6.85      0.00
   43    1   24     -6.10      0.00
   44    1   24     -1.02      0.00
   45    1   24    -13.29      0.00
   46    1   24      1.58      0.00
    0    2   24     -1.68      0.00
    1    2   24      5.20      0.00
    2    2   24     -1.56      0.00
    3    2   24      8.51      0.00
    4    2   24      4.10      0.00
    5    2   24     -0.10      0.00
    6    2   24      2.09      0.00
    7    2   24     -7.38      0.00
    8    2   24     -5.59      0.00
    9    2   24      7.48      0.00
   10    2   24     11.76      0.00
   11    2   24      5.72      0.00
   12    2   24     -6.75      0.00
   13    2   24      0.97      0.00
   14    2   24     -7.39      0.00
   15    2   24      3.54      0.00
   16    2   24     20.32      0.00
   17    2   24     -9.33      0.00
   18    2   24    -14.91      0.00
   19    2   24     10.14      0.00
   20    2   24     11.74      0.00
   21    2   24      4.56      0.00
   22    2   24     -4.49      0.00
   23    2   24      4.62      0.00
   24    2   24    -10.88      0.00
   25    2   24    -18.58      0.00
   26    2   24     15.66      0.00
   27    2   24      3.56      0.00
   28    2   24     -3.06      0.00
   29    2   24      9.13      0.00
   30    2   24     -5.68      0.00
   31    2   24     -8.98      0.00
   32    2   24      8.21      0.00
   33    2   24     -3.10      0.00
   34    2   24     -6.54      0.00
   35    2   24     14.21      0.00
   36    2   24    -11.79      0.00
   37    2   24    -11.49      0.00
   38    2   24     12.73      0.00
   39    2   24    -10.38      0.00
   40    2   24      0.42      0.00
   41    2   24      8.66      0.00
   42    2   24     -0.43      0.00
   43    2   24      3.77      0.00
   44    2   24     -5.97      0.00
   45    2   24     -0.75      0.00
    1    3   24      2.58      0.00
    2    3   24      4.28      0.00
    3    3   24     -2.66      0.00
    4    3   24     -7.57      0.00
    5    3   24     16.20      0.00
    6    3   24     11.89      0.00
    7    3   24     -0.59      0.00
    8    3   24    -11.49      0.00
    9    3   24     -3.96      0.00
   10    3   24     11.12      0.00
   11    3   24     10.39      0.00
   12    3   24      1.87      0.00
   13    3   24     -7.20      0.00
   14    3   24    -13.19      0.00
   15    3   24     10.80      0.00
   16    3   24      4.06      0.00
   17    3   24     -0.23      0.00
   18    3   24      8.02      0.00
   19    3   24    -13.77      0.00
   20    3   24      0.41      0.00
   21    3   24     16.21      0.00
   22    3   24      1.55      0.00
   23    3   24     -1.10      0.00
   24    3   24     -2.12      0.00
   25    3   24      2.73      0.00
   26    3   24     -7.52      0.00
   27    3   24     -4.34      0.00
   28    3   24      3.76      0.00
   29    3   24      2.69      0.00
   30    3   24      1.33      0.00
   31    3   24      6.78      0.00
   32    3   24      4.65      0.00
   33    3   24     -7.92      0.00
   34    3   24      5.10      0.00
   35    3   24      0.42      0.00
   36    3   24     -6.08      0.00
   37    3   24     18.27      0.00
   38    3   24     -4.70      0.00
   39    3   24     -9.31      0.00
   40    3   24      3.36      0.00
   41    3   24     -2.46      0.00
   42    3   24      6.17      0.00
   43    3   24      1.35      0.00
   44    3   24      1.27      0.00
    0    4   24      8.62      0.00
    1    4   24     -5.71      0.00
    2    4   24     -8.62      0.00
    3    4   24     -0.45      0.00
    4    4   24      3.06      0.00
    5    4   24      0.68      0.00
    6    4   24      7.89      0.00
    7    4   24     -0.19      0.00
    8    4   24     -7.72      0.00
    9    4   24     -2.95      0.00
   10    4   24     -3.71      0.00
   11    4   24      2.53      0.00
   12    4   24     11.81      0.00
   13    4   24     -5.63      0.00
   14    4   24      5.41      0.00
   15    4   24      7.11      0.00
   16    4   24    -21.79      0.00
   17    4   24     -1.02      0.00
   18    4   24      9.86      0.00
   19    4   24     -9.47      0.00
   20    4   24      0.17      0.00
   21    4   24      8.93      0.00
   22    4   24     -4.32      0.00
   23    4   24     -5.90      0.00
   24    4   24     12.36      0.00
   25    4   24     14.88      0.00
   26    4   24      0.16      0.00
   27    4   24     -9.99      0.00
   28    4   24     -4.16      0.00
   29    4   24     -9.56      0.00
   30    4   24    -11.39      0.00
   31    4   24     21.05      0.00
   32    4   24      8.87      0.00
   33    4   24      3.91      0.00
   34    4   24     -3.02      0.00
   35    4   24    -30.00      0.00
   36    4   24      6.41      0.00
   37    4   24     22.32      0.00
   38    4   24      5.47      0.00
   39    4   24      0.96      0.00
   40    4   24    -12.85      0.00
   41    4   24     -7.07      0.00
   42    4   24      0.77      0.00
    1    5   24      0.93      0.00
    2    5   24     -3.60      0.00
    3    5   24     -9.92      0.00
    4    5   24      3.76      0.00
    5    5   24      0.90      0.00
    6    5   24    -15.98      0.00
    7    5   24      3.68      0.00
    8    5   24     25.21      0.00
    9    5   24      1.41      0.00
   10    5   24    -12.06      0.00
   11    5   24    -16.93      0.00
   12    5   24    -14.41      0.00
   13    5   24      4.44      0.00
   14    5   24     21.50      0.00
   15    5   24      1.74      0.00
   16    5   24     -8.36      0.00
   17    5   24      0.67      0.00
   18    5   24      3.76      0.00
   19    5   24     -3.31      0.00
   20    5   24      0.24      0.00
   21    5   24    -13.48      0.00
   22    5   24    -15.14      0.00
   23    5   24      6.81      0.00
   24    5   24      6.25      0.00
   25    5   24     -2.15      0.00
   26    5   24      3.78      0.00
   27    5   24     13.76      0.00
   28    5   24      2.61      0.00
   29    5   24    -30.52      0.00
   30    5   24      7.74      0.00
   31    5   24      1.08      0.00
   32    5   24    -13.38      0.00
   33    5   24     20.70      0.00
   34    5   24     -5.97      0.00
   35    5   24    -15.05      0.00
   36    5   24      3.54      0.00
   37    5   24     -6.90      0.00
   38    5   24      1.38      0.00
    0    6   24    -10.54      0.00
    1    6   24      0.73      0.00
    2    6   24     10.46      0.00
    3    6   24      1.25      0.00
    4    6   24      1.02      0.00
    5    6   24    -11.95      0.00
    6    6   24    -17.22      0.00
    7    6   24      1.59      0.00
    8    6   24     -1.34      0.00
    9    6   24     14.62      0.00
   10    6   24     21.29      0.00
   11    6   24     -2.47      0.00
   12    6   24    -12.32      0.00
   13    6   24    -11.42      0.00
   14    6   24     -6.48      0.00
   15    6   24     -4.63      0.00
   16    6   24      5.27      0.00
   17    6   24     11.38      0.00
   18    6   24     -5.38      0.00
   19    6   24      3.23      0.00
   20    6   24     15.20      0.00
   21    6   24    -11.37      0.00
   22    6   24    -10.00      0.00
   23    6   24     -4.92      0.00
   24    6   24      0.85      0.00
   25    6   24      5.39      0.00
   26    6   24     -5.64      0.00
   27    6   24      9.11      0.00
   28    6   24     -6.19      0.00
   29    6   24     -8.03      0.00
   30    6   24     16.11      0.00
   31    6   24      2.06      0.00
   32    6   24     -1.26      0.00
   33    6   24    -10.15      0.00
   34    6   24      1.76      0.00
   35    6   24      9.60      0.00
   36    6   24     -7.72      0.00
    1    7   24     -1.09      0.00
    2    7   24      7.17      0.00
    3    7   24     18.03      0.00
    4    7   24      4.34      0.00
    5    7   24    -17.56      0.00
    6    7   24      7.81      0.00
    7    7   24      8.75      0.00
    8    7   24    -20.67      0.00
    9    7   24    -10.65      0.00
   10    7   24     -2.37      0.00
   11    7   24     25.40      0.00
   12    7   24     23.20      0.00
   13    7   24     -5.88      0.00
   14    7   24    -17.60      0.00
   15    7   24     -3.71      0.00
   16    7   24      5.66      0.00
   17    7   24      4.32      0.00
   18    7   24      8.77      0.00
   19    7   24      7.08      0.00
   20    7   24    -21.14      0.00
   21    7   24     -0.09      0.00
   22    7   24     13.48      0.00
   23    7   24      1.03      0.00
   24    7   24      2.77      0.00
   25    7   24      6.90      0.00
   26    7   24     -0.93      0.00
   27    7   24    -13.56      0.00
   28    7   24     -6.17      0.00
   29    7   24     23.82      0.00
   30    7   24     -1.22      0.00
   31    7   24     -5.71      0.00
    0    8   24    -10.19      0.00
    1    8   24    -11.18      0.00
    2    8   24      3.60      0.00
    3    8   24     -0.32      0.00
    4    8   24     -7.68      0.00
    5    8   24     23.16      0.00
    6    8   24     17.37      0.00
    7    8   24    -26.72      0.00
    8    8   24      9.40      0.00
    9    8   24      8.03      0.00
   10    8   24    -21.69      0.00
   11    8   24     12.25      0.00
   12    8   24      5.19      0.00
   13    8   24    -19.61      0.00
   14    8   24      1.59      0.00
   15    8   24     20.70      0.00
   16    8   24     -3.19      0.00
   17    8   24     -8.08      0.00
   18    8   24     -1.26      0.00
   19    8   24     -1.19      0.00
   20    8   24     21.12      0.00
   21    8   24      4.85      0.00
   22    8   24    -22.26      0.00
   23    8   24     -7.42      0.00
   24    8   24     -6.78      0.00
   25    8   24      9.84      0.00
    1    9   24      1.48      0.00
    2    9   24      2.51      0.00
    3    9   24     -6.34      0.00
    4    9   24     -3.35      0.00
    5    9   24     -1.01      0.00
    6    9   24    -18.04      0.00
    7    9   24     -5.28      0.00
    8    9   24     23.74      0.00
    9    9   24      8.51      0.00
   10    9   24     -1.95      0.00
   11    9   24    -18.87      0.00
   12    9   24     -7.23      0.00
   13    9   24      9.94      0.00
   14    9   24      8.32      0.00
   15    9   24     -3.62      0.00
    9    0   25      0.27      0.00
   10    0   25    -18.41      0.00
   12    0   25      0.98      0.00
   13    0   25      9.84      0.00
   14    0   25     -3.11      0.00
   15    0   25    -13.05      0.00
   16    0   25      8.22      0.00
   17    0   25     16.95      0.00
   18    0   25     -6.43      0.00
   19    0   25      2.89      0.00
   20    0   25     -6.38      0.00
   21    0   25    -24.03      0.00
   22    0   25      5.25      0.00
   23    0   25      8.43      0.00
   24    0   25     -0.69      0.00
   25    0   25     -5.13      0.00
   26    0   25     -1.20      0.00
   27    0   25     12.82      0.00
   28    0   25     -3.28      0.00
   29    0   25      2.60      0.00
   30    0   25      7.29      0.00
   31    0   25    -17.44      0.00
   32    0   25      6.71      0.00
   33    0   25      7.01      0.00
   34    0   25    -18.02      0.00
   35    0   25      5.28      0.00
   36    0   25      6.84      0.00
   37    0   25     -2.43      0.00
   38    0   25      0.70      0.00
   39    0   25     -8.27      0.00
   40    0   25     12.44      0.00
   41    0   25      5.72      0.00
   43    0   25      3.17      0.00
    5    1   25      2.28      0.00
    6    1   25     -1.70      0.00
    7    1   25     -5.86      0.00
    8    1   25     10.68      0.00
    9    1   25     13.62      0.00
   10    1   25     -1.42      0.00
   11    1   25      4.54      0.00
   12    1   25     -7.38      0.00
   13    1   25     -7.00      0.00
   14    1   25      0.50      0.00
   15    1   25      3.61      0.00
   16    1   25      1.65      0.00
   17    1   25     -6.94      0.00
   18    1   25      2.18      0.00
   19    1   25     13.70      0.00
   20    1   25      6.96      0.00
   21    1   25     12.54      0.00
   22    1   25    -11.99      0.00
   23    1   25    -18.57      0.00
   24    1   25      7.91      0.00
   25    1   25      0.76      0.00
   26    1   25      1.39      0.00
   27    1   25     -4.16      0.00
   28    1   25     -5.26      0.00
   29    1   25      7.83      0.00
   30    1   25     -0.48      0.00
   31    1   25      4.89      0.00
   32    1   25      1.86      0.00
   33    1   25    -20.60      0.00
   34    1   25      5.86      0.00
   35    1   25     10.73      0.00
   36    1   25    -12.87      0.00
   37    1   25      9.20      0.00
   38    1   25     -4.49      0.00
   39    1   25    -19.71      0.00
   40    1   25      5.49      0.00
   41    1   25      6.94      0.00
   42    1   25      8.36      0.00
   43    1   25     -5.83      0.00
    1    2   25      1.59      0.00
    2    2   25     -7.18      0.00
    3    2   25      6.59      0.00
    4    2   25     12.35      0.00
    5    2   25     11.21      0.00
    6    2   25    -12.90      0.00
    7    2   25     -3.27      0.00
    8    2   25      8.79      0.00
    9    2   25     -1.27      0.00
   10    2   25     10.33      0.00
   11    2   25     13.16      0.00
   12    2   25     -8.30      0.00
   13    2   25     -3.18      0.00
   14    2   25      8.08      0.00
   15    2   25     10.48      0.00
   16    2   25     -9.35      0.00
   17    2   25     -9.97      0.00
   18    2   25     11.26      0.00
   19    2   25     -5.20      0.00
   20    2   25      0.93      0.00
   21    2   25     11.65      0.00
   22    2   25     -3.80      0.00
   23    2   25      2.19      0.00
   24    2   25      5.29      0.00
   25    2   25      2.78      0.00
   26    2   25    -10.23      0.00
   27    2   25     -6.58      0.00
   28    2   25      6.80      0.00
   29    2   25     -2.91      0.00
   30    2   25      5.06      0.00
   31    2   25     10.02      0.00
   32    2   25    -17.52      0.00
   33    2   25     -2.11      0.00
   34    2   25     18.29      0.00
   35    2   25    -11.29      0.00
   36    2   25     -1.76      0.00
   37    2   25     15.49      0.00
   38    2   25    -11.94      0.00
   39    2   25      3.31      0.00
   40    2   25      6.43      0.00
   41    2   25     -6.92      0.00
   42    2   25      1.75      0.00
    0    3   25     17.46      0.00
    1    3   25      1.98      0.00
    2    3   25     -8.12      0.00
    3    3   25     -8.72      0.00
    4    3   25      2.09      0.00
    5    3   25      0.69      0.00
    6    3   25      6.73      0.00
    7    3   25      5.98      0.00
    8    3   25    -13.30      0.00
    9    3   25     -4.61      0.00
   10    3   25     14.34      0.00
   11    3   25     -3.67      0.00
   12    3   25      0.83      0.00
   13    3   25     -2.60      0.00
   14    3   25     -2.62      0.00
   15    3   25      4.50      0.00
   16    3   25      0.35      0.00
   17    3   25      0.99      0.00
   18    3   25    -11.45      0.00
   19    3   25     -4.76      0.00
   20    3   25     13.45      0.00
   21    3   25     -6.11      0.00
   22    3   25     -1.40      0.00
   23    3   25     12.06      0.00
   24    3   25      1.80      0.00
   25    3   25     -5.15      0.00
   26    3   25     -0.70      0.00
   27    3   25      2.10      0.00
   28    3   25     -4.26      0.00
   29    3   25      3.32      0.00
   30    3   25      6.12      0.00
   31    3   25     -5.14      0.00
   32    3   25     -4.06      0.00
   33    3   25     10.80      0.00
   34    3   25      1.65      0.00
   35    3   25     -1.09      0.00
   36    3   25      6.09      0.00
   37    3   25    -13.22      0.00
   38    3   25      2.02      0.00
   39    3   25      8.65      0.00
   40    3   25     -6.64      0.00
    1    4   25     -0.51      0.00
    2    4   25     -1.39      0.00
    3    4   25     -0.41      0.00
    4    4   25      1.99      0.00
    5    4   25    -11.91      0.00
    6    4   25     -2.55      0.00
    7    4   25      0.61      0.00
    8    4   25     -2.12      0.00
    9    4   25      5.17      0.00
   10    4   25     -0.01      0.00
   11    4   25     -8.95      0.00
   12    4   25     -5.07      0.00
   13    4   25      1.59      0.00
   14    4   25      8.55      0.00
   15    4   25     -1.73      0.00
   16    4   25      2.83      0.00
   17    4   25      0.49      0.00
   18    4   25    -10.90      0.00
   19    4   25     -0.80      0.00
   20    4   25     -0.94      0.00
   21    4   25    -10.56      0.00
   22    4   25      1.41      0.00
   23    4   25      4.27      0.00
   24    4   25     -1.97      0.00
   25    4   25      5.97      0.00
   26    4   25      9.11      0.00
   27    4   25     -1.53      0.00
   28    4   25     -0.30      0.00
   29    4   25     -7.61      0.00
   30    4   25     -9.09      0.00
   31    4   25    -13.30      0.00
   32    4   25     11.21      0.00
   33    4   25     14.20      0.00
   34    4   25    -13.71      0.00
   35    4   25      4.48      0.00
   36    4   25     -4.66      0.00
   37    4   25    -13.75      0.00
   38    4   25     22.89      0.00
    0    5   25     -7.08      0.00
    1    5   25     16.27      0.00
    2    5   25      1.59      0.00
    3    5   25      2.65      0.00
    4    5   25      5.20      0.00
    5    5   25    -16.47      0.00
    6    5   25    -13.20      0.00
    7    5   25      7.40      0.00
    8    5   25      2.88      0.00
    9    5   25      7.35      0.00
   10    5   25      0.21      0.00
   11    5   25     -5.72      0.00
   12    5   25     -1.93      0.00
   13    5   25     -1.03      0.00
   14    5   25     -0.93      0.00
   15    5   25     -3.82      0.00
   16    5   25     -8.51      0.00
   17    5   25      6.27      0.00
   18    5   25     14.70      0.00
   19    5   25     10.93      0.00
   20    5   25     -4.36      0.00
   21    5   25    -21.17      0.00
   22    5   25     -4.81      0.00
   23    5   25      1.30      0.00
   24    5   25    -10.25      0.00
   25    5   25     -3.82      0.00
   26    5   25      7.66      0.00
   27    5   25     20.08      0.00
   28    5   25     -0.78      0.00
   29    5   25     -4.15      0.00
   30    5   25     -3.94      0.00
   31    5   25    -17.61      0.00
   32    5   25     11.42      0.00
   33    5   25      9.41      0.00
   34    5   25     -3.93      0.00
   35    5   25     -8.22      0.00
   36    5   25    -15.23      0.00
    1    6   25      3.68      0.00
    2    6   25     -7.68      0.00
    3    6   25      1.17      0.00
    4    6   25     15.53      0.00
    5    6   25      7.76      0.00
    6    6   25      0.06      0.00
    7    6   25    -16.53      0.00
    8    6   25    -19.77      0.00
    9    6   25      3.06      0.00
   10    6   25     18.60      0.00
   11    6   25     20.64      0.00
   12    6   25    -12.64      0.00
   13    6   25     -4.17      0.00
   14    6   25     14.93      0.00
   15    6   25     -9.45      0.00
   16    6   25    -13.48      0.00
   17    6   25     -1.06      0.00
   18    6   25     -1.37      0.00
   19    6   25     19.88      0.00
   20    6   25      7.51      0.00
   21    6   25      0.16      0.00
   22    6   25      1.09      0.00
   23    6   25     -8.72      0.00
   24    6   25      1.76      0.00
   25    6   25     -5.42      0.00
   26    6   25    -13.03      0.00
   27    6   25     16.51      0.00
   28    6   25     16.52      0.00
   29    6   25     -2.91      0.00
   30    6   25    -22.78      0.00
   31    6   25      5.27      0.00
   32    6   25     15.86      0.00
    0    7   25    -38.56      0.00
    1    7   25     -2.75      0.00
    2    7   25     17.85      0.00
    3    7   25      4.89      0.00
    4    7   25     14.47      0.00
    5    7   25     13.56      0.00
    6    7   25    -13.47      0.00
    7    7   25    -14.58      0.00
    8    7   25     15.24      0.00
    9    7   25     -3.48      0.00
   10    7   25    -14.64      0.00
   11    7   25      0.13      0.00
   12    7   25     12.78      0.00
   13    7   25     12.13      0.00
   14    7   25     -3.44      0.00
   15    7   25      2.43      0.00
   16    7   25     -2.10      0.00
   17    7   25    -14.09      0.00
   18    7   25     12.44      0.00
   19    7   25      1.80      0.00
   20    7   25    -12.66      0.00
   21    7   25     16.22      0.00
   22    7   25      6.61      0.00
   23    7   25     -8.84      0.00
   24    7   25     -1.38      0.00
   25    7   25    -10.50      0.00
   26    7   25      6.28      0.00
    1    8   25     -4.57      0.00
    2    8   25    -12.97      0.00
    3    8   25     -3.64      0.00
    4    8   25      5.33      0.00
    5    8   25      5.20      0.00
    6    8   25     -3.17      0.00
    7    8   25      6.37      0.00
    8    8   25     13.41      0.00
    9    8   25    -11.81      0.00
   10    8   25    -15.40      0.00
   11    8   25    -12.48      0.00
   12    8   25      5.98      0.00
   13    8   25     17.58      0.00
   14    8   25      5.30      0.00
   15    8   25    -12.48      0.00
   16    8   25     -3.00      0.00
   17    8   25     -1.75      0.00
   18    8   25    -11.03      0.00
   19    8   25     -1.80      0.00
   10    0   26      6.32      0.00
   11    0   26     14.70      0.00
   12    0   26    -18.64      0.00
   13    0   26     -9.84      0.00
   14    0   26      8.93      0.00
   15    0   26     -3.54      0.00
   16    0   26    -11.22      0.00
   17    0   26      5.03      0.00
   18    0   26     10.44      0.00
   19    0   26      1.14      0.00
   20    0   26     -4.87      0.00
   21    0   26     -0.73      0.00
   22    0   26      3.92      0.00
   23    0   26     11.73      0.00
   24    0   26      5.44      0.00
   25    0   26    -15.17      0.00
   26    0   26     -7.20      0.00
   27    0   26     -2.91      0.00
   28    0   26     -2.37      0.00
   29    0   26     -2.50      0.00
   30    0   26      0.76      0.00
   31    0   26     23.87      0.00
   32    0   26      2.10      0.00
   33    0   26    -18.62      0.00
   34    0   26      1.70      0.00
   35    0   26     -1.68      0.00
   36    0   26     -1.88      0.00
   37    0   26     -0.23      0.00
   38    0   26    -10.01      0.00
   39    0   26     -9.28      0.00
   40    0   26      3.01      0.00
    6    1   26     -9.82      0.00
    7    1   26      6.70      0.00
    8    1   26      5.42      0.00
    9    1   26     -3.49      0.00
   10    1   26      9.40      0.00
   11    1   26      3.59      0.00
   12    1   26      1.09      0.00
   13    1   26     18.22      0.00
   14    1   26      5.62      0.00
   15    1   26    -16.50      0.00
   16    1   26      1.98      0.00
   17    1   26     13.52      0.00
   18    1   26     -9.30      0.00
   19    1   26     -7.05      0.00
   20    1   26     16.67      0.00
   21    1   26     -8.27      0.00
   22    1   26    -11.96      0.00
   23    1   26     21.58      0.00
   24    1   26      4.90      0.00
   25    1   26      0.08      0.00
   26    1   26      7.81      0.00
   27    1   26    -13.53      0.00
   28    1   26    -14.49      0.00
   29    1   26      2.51      0.00
   30    1   26     10.78      0.00
   31    1   26     -7.06      0.00
   32    1   26    -12.39      0.00
   33    1   26     13.17      0.00
   34    1   26     -0.07      0.00
   35    1   26      5.42      0.00
   36    1   26     17.66      0.00
   37    1   26    -11.17      0.00
   38    1   26    -17.47      0.00
   39    1   26     -2.14      0.00
    0    2   26     -2.10      0.00
    1    2   26    -31.89      0.00
    2    2   26      9.90      0.00
    3    2   26      4.42      0.00
    4    2   26     -2.94      0.00
    5    2   26      8.65      0.00
    6    2   26      9.90      0.00
    7    2   26     -7.31      0.00
    8    2   26     -3.93      0.00
    9    2   26      3.38      0.00
   10    2   26      0.86      0.00
   11    2   26     -4.81      0.00
   12    2   26      6.93      0.00
   13    2   26      1.39      0.00
   14    2   26      0.48      0.00
   15    2   26     -4.72      0.00
   16    2   26     -4.31      0.00
   17    2   26     10.15      0.00
   18    2   26      2.33      0.00
   19    2   26     -3.92      0.00
   20    2   26     -0.25      0.00
   21    2   26     -7.22      0.00
   22    2   26      2.48      0.00
   23    2   26     -8.75      0.00
   24    2   26     -3.71      0.00
   25    2   26     20.69      0.00
   26    2   26      2.95      0.00
   27    2   26     -0.99      0.00
   28    2   26     -0.56      0.00
   29    2   26      3.81      0.00
   30    2   26     -0.68      0.00
   31    2   26    -13.99      0.00
   32    2   26     10.47      0.00
   33    2   26      0.02      0.00
   34    2   26    -15.61      0.00
   35    2   26      8.70      0.00
   36    2   26      8.59      0.00
   37    2   26      4.63      0.00
   38    2   26     11.09      0.00
    1    3   26      6.33      0.00
    2    3   26     -0.25      0.00
    3    3   26    -13.48      0.00
    4    3   26     -0.08      0.00
    5    3   26      1.43      0.00
    6    3   26     -7.84      0.00
    7    3   26    -12.01      0.00
    8    3   26      9.78      0.00
    9    3   26      7.05      0.00
   10    3   26    -15.11      0.00
   11    3   26     -1.02      0.00
   12    3   26      5.43      0.00
   13    3   26     -5.84      0.00
   14    3   26      2.34      0.00
   15    3   26      4.26      0.00
   16    3   26     -6.19      0.00
   17    3   26    -14.72      0.00
   18    3   26      2.20      0.00
   19    3   26     20.58      0.00
   20    3   26    -14.31      0.00
   21    3   26     -6.64      0.00
   22    3   26     16.18      0.00
   23    3   26    -12.18      0.00
   24    3   26     -1.66      0.00
   25    3   26      1.79      0.00
   26    3   26     -7.49      0.00
   27    3   26      1.56      0.00
   28    3   26      7.99      0.00
   29    3   26      4.54      0.00
   30    3   26     -3.66      0.00
   31    3   26      7.56      0.00
   32    3   26     -1.69      0.00
   33    3   26    -18.70      0.00
   34    3   26     11.91      0.00
   35    3   26      4.68      0.00
   36    3   26    -14.09      0.00
   37    3   26      0.72      0.00
    0    4   26    -10.09      0.00
    1    4   26     30.43      0.00
    2    4   26      5.51      0.00
    3    4   26    -12.36      0.00
    4    4   26     -3.10      0.00
    5    4   26      2.27      0.00
    6    4   26    -11.57      0.00
    7    4   26      8.38      0.00
    8    4   26      5.56      0.00
    9    4   26    -19.82      0.00
   10    4   26     -3.86      0.00
   11    4   26     16.05      0.00
   12    4   26     -2.66      0.00
   13    4   26     -3.74      0.00
   14    4   26     -3.60      0.00
   15    4   26      3.13      0.00
   16    4   26     10.96      0.00
   17    4   26     -2.60      0.00
   18    4   26     -9.51      0.00
   19    4   26    -13.30      0.00
   20    4   26     -1.60      0.00
   21    4   26     25.22      0.00
   22    4   26     -0.27      0.00
   23    4   26     -9.96      0.00
   24    4   26     -3.08      0.00
   25    4   26    -19.77      0.00
   26    4   26      3.33      0.00
   27    4   26     24.58      0.00
   28    4   26     -2.58      0.00
   29    4   26    -10.16      0.00
   30    4   26      2.68      0.00
   31    4   26     -7.77      0.00
   32    4   26    -13.63      0.00
   33    4   26      8.21      0.00
   34    4   26     12.64      0.00
   35    4   26     -1.67      0.00
    1    5   26     -4.99      0.00
    2    5   26     -2.92      0.00
    3    5   26     11.72      0.00
    4    5   26      5.01      0.00
    5    5   26     -0.78      0.00
    6    5   26      9.83      0.00
    7    5   26     -7.65      0.00
    8    5   26    -18.04      0.00
    9    5   26     13.34      0.00
   10    5   26      8.54      0.00
   11    5   26    -10.12      0.00
   12    5   26      4.54      0.00
   13    5   26      1.54      0.00
   14    5   26    -11.50      0.00
   15    5   26      8.47      0.00
   16    5   26     13.49      0.00
   17    5   26      3.17      0.00
   18    5   26     -7.43      0.00
   19    5   26    -15.33      0.00
   20    5   26     -0.58      0.00
   21    5   26     12.68      0.00
   22    5   26      7.42      0.00
   23    5   26      8.06      0.00
   24    5   26     -5.40      0.00
   25    5   26    -17.90      0.00
   26    5   26     -5.39      0.00
   27    5   26      3.20      0.00
   28    5   26      7.00      0.00
   29    5   26     21.05      0.00
   30    5   26     -3.70      0.00
   31    5   26     -9.69      0.00
   32    5   26      1.50      0.00
    0    6   26     10.18      0.00
    1    6   26    -13.50      0.00
    2    6   26     -3.49      0.00
    3    6   26      8.86      0.00
    4    6   26     -3.20      0.00
    5    6   26      3.96      0.00
    6    6   26     10.05      0.00
    7    6   26     -8.40      0.00
    8    6   26      7.04      0.00
    9    6   26      6.44      0.00
   10    6   26     -6.66      0.00
   11    6   26     -5.27      0.00
   12    6   26     -0.49      0.00
   13    6   26     -1.14      0.00
   14    6   26      7.39      0.00
   15    6   26      7.57      0.00
   16    6   26      0.54      0.00
   17    6   26     -6.75      0.00
   18    6   26      0.72      0.00
   19    6   26      3.88      0.00
   20    6   26     -2.57      0.00
   21    6   26      0.86      0.00
   22    6   26      5.13      0.00
   23    6   26      2.26      0.00
   24    6   26      3.95      0.00
   25    6   26     -3.53      0.00
   26    6   26     -1.25      0.00
   27    6   26     -5.08      0.00
    1    7   26     -0.77      0.00
    2    7   26     -1.57      0.00
    3    7   26     -4.92      0.00
    4    7   26      2.24      0.00
    5    7   26      5.39      0.00
    6    7   26     -9.92      0.00
    7    7   26      3.39      0.00
    8    7   26     13.27      0.00
    9    7   26    -12.94      0.00
   10    7   26     -6.79      0.00
   11    7   26      8.20      0.00
   12    7   26      1.93      0.00
   13    7   26     -2.62      0.00
   14    7   26      3.66      0.00
   15    7   26     -2.29      0.00
   16    7   26     -3.60      0.00
   17    7   26     -3.16      0.00
   18    7   26     -3.35      0.00
   19    7   26     -1.12      0.00
   20    7   26      9.96      0.00
   21    7   26      0.82      0.00
    0    8   26     -2.17      0.00
    1    8   26      3.23      0.00
    2    8   26     -3.56      0.00
    3    8   26      1.79      0.00
    4    8   26      3.73      0.00
    5    8   26     -9.92      0.00
    6    8   26     -0.33      0.00
    7    8   26     14.74      0.00
    8    8   26    -15.14      0.00
    9    8   26     -3.22      0.00
   10    8   26      7.61      0.00
   10    0   27     16.84      0.00
   11    0   27      5.42      0.00
   12    0   27     16.43      0.00
   13    0   27     -3.28      0.00
   14    0   27    -17.97      0.00
   15    0   27     18.81      0.00
   16    0   27     11.50      0.00
   17    0   27    -21.48      0.00
   18    0   27     -2.31      0.00
   19    0   27      8.37      0.00
   20    0   27    -14.63      0.00
   21    0   27      2.34      0.00
   22    0   27     20.30      0.00
   23    0   27      7.04      0.00
   24    0   27      6.48      0.00
   25    0   27      2.32      0.00
   26    0   27    -12.55      0.00
   27    0   27    -19.26      0.00
   28    0   27      0.98      0.00
   29    0   27     16.84      0.00
   30    0   27     -4.33      0.00
   31    0   27     -4.52      0.00
   32    0   27     -1.82      0.00
   33    0   27     -3.91      0.00
   34    0   27     11.07      0.00
   35    0   27      0.15      0.00
   36    0   27    -16.76      0.00
    5    1   27      2.02      0.00
    6    1   27     -7.80      0.00
    7    1   27     -0.40      0.00
    8    1   27     -9.44      0.00
    9    1   27      1.15      0.00
   10    1   27      5.74      0.00
   11    1   27      5.28      0.00
   12    1   27     14.09      0.00
   13    1   27    -15.81      0.00
   14    1   27     -1.76      0.00
   15    1   27     20.47      0.00
   16    1   27      0.41      0.00
   17    1   27     -8.01      0.00
   18    1   27     10.69      0.00
   19    1   27      5.15      0.00
   20    1   27    -17.99      0.00
   21    1   27    -14.83      0.00
   22    1   27     -2.19      0.00
   23    1   27      5.90      0.00
   24    1   27     15.53      0.00
   25    1   27     15.65      0.00
   26    1   27     -9.58      0.00
   27    1   27    -11.60      0.00
   28    1   27     11.01      0.00
   29    1   27     -2.25      0.00
   30    1   27    -13.91      0.00
   31    1   27     10.86      0.00
   32    1   27      8.69      0.00
   33    1   27     -9.85      0.00
   34    1   27      0.64      0.00
   35    1   27     -0.41      0.00
   36    1   27     -1.70      0.00
    1    2   27      1.15      0.00
    2    2   27    -22.87      0.00
    3    2   27     -7.32      0.00
    4    2   27     18.84      0.00
    5    2   27      2.59      0.00
    6    2   27     -1.52      0.00
    7    2   27     -3.24      0.00
    8    2   27     -5.86      0.00
    9    2   27     -6.25      0.00
   10    2   27    -12.77      0.00
   11    2   27      7.06      0.00
   12    2   27      4.63      0.00
   13    2   27     -3.44      0.00
   14    2   27      0.72      0.00
   15    2   27    -12.21      0.00
   16    2   27     -6.67      0.00
   17    2   27     12.18      0.00
   18    2   27      2.95      0.00
   19    2   27     -3.66      0.00
   20    2   27     -2.20      0.00
   21    2   27      8.57      0.00
   22    2   27     -1.75      0.00
   23    2   27    -18.81      0.00
   24    2   27     -6.72      0.00
   25    2   27     -1.81      0.00
   26    2   27     14.87      0.00
   27    2   27     21.58      0.00
   28    2   27     -3.22      0.00
   29    2   27    -21.98      0.00
   30    2   27     -6.10      0.00
   31    2   27     16.74      0.00
   32    2   27      6.95      0.00
   33    2   27      1.52      0.00
   34    2   27     -1.86      0.00
   35    2   27    -17.45      0.00
    0    3   27     26.52      0.00
    1    3   27     -3.12      0.00
    2    3   27    -25.28      0.00
    3    3   27     10.96      0.00
    4    3   27     -1.33      0.00
    5    3   27    -10.32      0.00
    6    3   27      4.84      0.00
    7    3   27      4.85      0.00
    8    3   27     -6.04      0.00
    9    3   27     -1.76      0.00
   10    3   27     -1.55      0.00
   11    3   27     -6.10      0.00
   12    3   27    -12.92      0.00
   13    3   27     15.61      0.00
   14    3   27     10.74      0.00
   15    3   27    -16.50      0.00
   16    3   27     -4.95      0.00
   17    3   27      2.76      0.00
   18    3   27      2.52      0.00
   19    3   27      0.41      0.00
   20    3   27      4.00      0.00
   21    3   27      4.53      0.00
   22    3   27    -12.43      0.00
   23    3   27      3.37      0.00
   24    3   27     -0.98      0.00
   25    3   27     -9.26      0.00
   26    3   27      8.95      0.00
   27    3   27     -3.89      0.00
   28    3   27     -9.52      0.00
   29    3   27      3.24      0.00
   30    3   27     10.94      0.00
   32    3   27     -7.88      0.00
   33    3   27      4.72      0.00
    1    4   27     -1.76      0.00
    2    4   27     11.87      0.00
    3    4   27     -3.53      0.00
    4    4   27    -14.22      0.00
    5    4   27     17.74      0.00
    6    4   27     12.62      0.00
    7    4   27    -13.35      0.00
    8    4   27     -7.06      0.00
    9    4   27     -1.79      0.00
   10    4   27     12.65      0.00
   11    4   27     12.09      0.00
   12    4   27     -6.03      0.00
   13    4   27    -12.76      0.00
   14    4   27     -7.03      0.00
   15    4   27     15.30      0.00
   16    4   27     16.43      0.00
   17    4   27    -11.03      0.00
   18    4   27    -22.01      0.00
   19    4   27     -0.97      0.00
   20    4   27     20.46      0.00
   21    4   27      2.43      0.00
   22    4   27      6.57      0.00
   23    4   27      4.46      0.00
   24    4   27    -19.36      0.00
   25    4   27      3.91      0.00
   26    4   27      3.27      0.00
   27    4   27    -14.81      0.00
   28    4   27      2.89      0.00
   29    4   27     15.09      0.00
   30    4   27     -5.43      0.00
    0    5   27    -23.46      0.00
    1    5   27    -23.77      0.00
    2    5   27     22.76      0.00
    3    5   27     -7.63      0.00
    4    5   27     -6.67      0.00
    5    5   27     26.68      0.00
    6    5   27      0.68      0.00
    7    5   27    -13.94      0.00
    8    5   27      8.49      0.00
    9    5   27     -1.97      0.00
   10    5   27     -5.11      0.00
   11    5   27      3.54      0.00
   12    5   27      9.81      0.00
   13    5   27     -2.26      0.00
   14    5   27     -9.86      0.00
   15    5   27      1.76      0.00
   16    5   27     20.96      0.00
   17    5   27      4.14      0.00
   18    5   27    -12.48      0.00
   19    5   27     -4.42      0.00
   20    5   27    -14.73      0.00
   21    5   27     -3.86      0.00
   22    5   27     19.17      0.00
   23    5   27      8.30      0.00
   24    5   27     15.21      0.00
   25    5   27      1.98      0.00
   26    5   27    -23.24      0.00
   27    5   27    -11.46      0.00
    1    6   27      6.81      0.00
    2    6   27     -5.20      0.00
    3    6   27     -7.20      0.00
    4    6   27      3.29      0.00
    5    6   27     -9.42      0.00
    6    6   27     -2.47      0.00
    7    6   27     15.28      0.00
    8    6   27     -1.19      0.00
    9    6   27      2.89      0.00
   10    6   27      9.12      0.00
   11    6   27    -11.62      0.00
   12    6   27    -10.60      0.00
   13    6   27      0.49      0.00
   14    6   27     -2.57      0.00
   15    6   27      6.24      0.00
   16    6   27      8.39      0.00
   17    6   27     -0.73      0.00
   18    6   27      7.76      0.00
   19    6   27     -6.74      0.00
   20    6   27     -9.98      0.00
   21    6   27      2.42      0.00
    0    7   27     37.71      0.00
    1    7   27      0.76      0.00
    2    7   27    -21.99      0.00
    3    7   27      6.32      0.00
    4    7   27    -10.00      0.00
    5    7   27     -9.65      0.00
    6    7   27     17.66      0.00
    7    7   27     -0.26      0.00
    8    7   27    -24.99      0.00
    9    7   27      7.77      0.00
   10    7   27     17.30      0.00
   11    7   27     -3.61      0.00
   12    7   27     -8.30      0.00
   13    7   27      1.18      0.00
    9    0   28      8.09      0.00
   10    0   28     -5.48      0.00
   11    0   28     -2.52      0.00
   12    0   28      7.14      0.00
   13    0   28      5.85      0.00
   14    0   28     22.41      0.00
   15    0   28      0.89      0.00
   16    0   28    -11.33      0.00
   17    0   28      6.73      0.00
   18    0   28      8.41      0.00
   19    0   28    -17.64      0.00
   20    0   28     -5.49      0.00
   21    0   28      5.27      0.00
   22    0   28    -13.56      0.00
   23    0   28     20.79      0.00
   24    0   28     13.91      0.00
   25    0   28    -22.90      0.00
   26    0   28     -2.31      0.00
   27    0   28     14.23      0.00
   28    0   28      7.02      0.00
   29    0   28      2.81      0.00
   30    0   28     -3.28      0.00
   31    0   28    -18.72      0.00
    4    1   28     -9.43      0.00
    5    1   28      4.41      0.00
    6    1   28     11.25      0.00
    7    1   28    -25.34      0.00
    8    1   28     -0.75      0.00
    9    1   28     21.62      0.00
   10    1   28     -0.90      0.00
   11    1   28    -10.79      0.00
   12    1   28    -19.06      0.00
   13    1   28     -0.72      0.00
   14    1   28     -2.09      0.00
   15    1   28      3.91      0.00
   16    1   28     10.66      0.00
   17    1   28     -0.45      0.00
   18    1   28     -3.48      0.00
   19    1   28      3.32      0.00
   20    1   28      4.46      0.00
   21    1   28    -10.30      0.00
   22    1   28     -8.20      0.00
   23    1   28     -1.57      0.00
   24    1   28     -2.81      0.00
   25    1   28      6.04      0.00
   26    1   28      6.75      0.00
   27    1   28     -3.48      0.00
   28    1   28     -8.88      0.00
   29    1   28     -3.93      0.00
   30    1   28     16.79      0.00
   31    1   28     17.09      0.00
    0    2   28    -14.25      0.00
    1    2   28     -6.73      0.00
    2    2   28      4.35      0.00
    3    2   28     -0.70      0.00
    4    2   28    -11.14      0.00
    5    2   28      0.99      0.00
    6    2   28     -7.81      0.00
    7    2   28      6.27      0.00
    8    2   28      5.79      0.00
    9    2   28    -13.79      0.00
   10    2   28    -12.72      0.00
   11    2   28      5.06      0.00
   12    2   28     19.06      0.00
   13    2   28     -0.82      0.00
   14    2   28    -31.83      0.00
   15    2   28     -2.71      0.00
   16    2   28     14.62      0.00
   17    2   28     -5.77      0.00
   18    2   28     -0.05      0.00
   19    2   28      3.66      0.00
   20    2   28     -6.25      0.00
   21    2   28      1.06      0.00
   22    2   28     10.63      0.00
   23    2   28      1.48      0.00
   24    2   28    -12.59      0.00
   25    2   28     -1.54      0.00
   26    2   28      9.59      0.00
   27    2   28     -3.46      0.00
   28    2   28     -5.55      0.00
   29    2   28     -7.09      0.00
    1    3   28      9.62      0.00
    2    3   28    -12.69      0.00
    3    3   28    -24.24      0.00
    4    3   28     15.49      0.00
    5    3   28     18.88      0.00
    6    3   28     -4.52      0.00
    7    3   28     -7.44      0.00
    8    3   28      2.24      0.00
    9    3   28      7.49      0.00
   10    3   28     -1.45      0.00
   11    3   28    -16.32      0.00
   12    3   28      7.22      0.00
   13    3   28     11.35      0.00
   14    3   28      2.71      0.00
   15    3   28      4.38      0.00
   16    3   28    -13.34      0.00
   17    3   28    -10.98      0.00
   18    3   28     12.87      0.00
   19    3   28      9.13      0.00
   20    3   28      4.68      0.00
   21    3   28     -8.38      0.00
   22    3   28    -10.08      0.00
   23    3   28      0.33      0.00
   24    3   28      4.69      0.00
   25    3   28      9.23      0.00
   26    3   28     -5.57      0.00
   27    3   28      2.75      0.00
   28    3   28      5.99      0.00
    0    4   28     16.94      0.00
    1    4   28      1.37      0.00
    2    4   28     -7.28      0.00
    3    4   28     -2.02      0.00
    4    4   28      2.62      0.00
    5    4   28     -0.33      0.00
    6    4   28      8.39      0.00
    7    4   28     -5.62      0.00
    8    4   28     -2.35      0.00
    9    4   28     18.55      0.00
   10    4   28      8.29      0.00
   11    4   28     -5.76      0.00
   12    4   28     -6.99      0.00
   13    4   28    -15.57      0.00
   14    4   28     12.33      0.00
   15    4   28     19.24      0.00
   16    4   28    -10.24      0.00
   17    4   28     -7.46      0.00
   18    4   28      5.09      0.00
   19    4   28      1.17      0.00
   20    4   28     -7.11      0.00
   21    4   28      4.94      0.00
   22    4   28     11.08      0.00
   23    4   28     -6.33      0.00
   24    4   28      7.89      0.00
    1    5   28      0.01      0.00
    2    5   28     13.38      0.00
    3    5   28      7.38      0.00
    4    5   28    -20.16      0.00
    5    5   28     -9.17      0.00
    6    5   28      8.94      0.00
    7    5   28      7.20      0.00
    8    5   28     -0.19      0.00
    9    5   28    -11.03      0.00
   10    5   28     -4.76      0.00
   11    5   28     20.83      0.00
   12    5   28      7.95      0.00
   13    5   28     -5.37      0.00
   14    5   28     -8.40      0.00
   15    5   28    -15.57      0.00
   16    5   28      0.45      0.00
   17    5   28     20.71      0.00
   18    5   28     11.51      0.00
   19    5   28    -10.36      0.00
   20    5   28    -14.04      0.00
    0    6   28     -3.52      0.00
    1    6   28    -19.45      0.00
    2    6   28     -2.02      0.00
    3    6   28      5.37      0.00
    4    6   28      7.45      0.00
    5    6   28     10.65      0.00
    6    6   28    -11.82      0.00
    7    6   28    -16.47      0.00
    8    6   28     -4.10      0.00
    9    6   28      5.17      0.00
   10    6   28      5.49      0.00
   11    6   28      6.23      0.00
   12    6   28     -0.48      0.00
   13    6   28     -2.78      0.00
    8    0   29     29.31      0.00
    9    0   29      5.89      0.00
   10    0   29    -33.00      0.00
   11    0   29    -10.70      0.00
   12    0   29      8.42      0.00
   13    0   29     22.33      0.00
   14    0   29     -6.88      0.00
   15    0   29    -18.12      0.00
   16    0   29      4.42      0.00
   19    0   29      7.47      0.00
   21    0   29    -15.58      0.00
   23    0   29     -1.22      0.00
   24    0   29    -17.33      0.00
   25    0   29     12.80      0.00
   26    0   29      5.61      0.00
    3    1   29     -8.38      0.00
    4    1   29     -4.35      0.00
    5    1   29      1.56      0.00
    6    1   29     -4.22      0.00
    7    1   29     14.62      0.00
    8    1   29     -3.71      0.00
   11    1   29      1.83      0.00
   12    1   29    -14.41      0.00
   13    1   29     -7.82      0.00
   14    1   29      2.41      0.00
   15    1   29      8.11      0.00
   16    1   29     -9.33      0.00
   17    1   29     -9.08      0.00
   18    1   29      0.14      0.00
   19    1   29     -4.53      0.00
   20    1   29     16.54      0.00
   21    1   29     20.61      0.00
   22    1   29    -16.90      0.00
   23    1   29    -28.82      0.00
   24    1   29     10.33      0.00
   25    1   29     15.22      0.00
   26    1   29     -5.29      0.00
    1    2   29     -5.89      0.00
    2    2   29      3.45      0.00
    3    2   29     12.22      0.00
    4    2   29    -17.90      0.00
    5    2   29    -29.06      0.00
    6    2   29     21.82      0.00
    7    2   29     17.98      0.00
    8    2   29    -11.65      0.00
    9    2   29     -0.53      0.00
   10    2   29      6.71      0.00
   11    2   29     -3.71      0.00
   12    2   29      9.12      0.00
   13    2   29     -6.28      0.00
   14    2   29     -9.35      0.00
   15    2   29     -0.01      0.00
   16    2   29      2.75      0.00
   17    2   29     11.06      0.00
   18    2   29     -0.97      0.00
   19    2   29    -10.13      0.00
   20    2   29     -0.36      0.00
   21    2   29     -5.35      0.00
   22    2   29      3.79      0.00
   23    2   29     20.85      0.00
   24    2   29     -0.07      0.00
    0    3   29     14.16      0.00
    1    3   29    -23.15      0.00
    2    3   29     -0.44      0.00
    3    3   29     12.81      0.00
    4    3   29      2.65      0.00
    5    3   29      1.98      0.00
    6    3   29     -4.96      0.00
    7    3   29    -12.97      0.00
    8    3   29     11.44      0.00
    9    3   29     18.43      0.00
   10    3   29     -1.44      0.00
   11    3   29     -7.86      0.00
   12    3   29     -3.79      0.00
   13    3   29     13.93      0.00
   14    3   29     17.02      0.00
   15    3   29    -18.37      0.00
   16    3   29    -11.47      0.00
   17    3   29     12.73      0.00
   18    3   29     -4.34      0.00
   19    3   29      6.87      0.00
   20    3   29     11.92      0.00
   21    3   29    -11.93      0.00
   22    3   29     -5.28      0.00
    1    4   29     16.22      0.00
    2    4   29      6.50      0.00
    3    4   29    -24.28      0.00
    4    4   29     -8.31      0.00
    5    4   29     19.36      0.00
    6    4   29      4.33      0.00
    7    4   29     -6.31      0.00
    8    4   29     -4.93      0.00
    9    4   29      1.35      0.00
   10    4   29      2.57      0.00
   11    4   29      2.88      0.00
   12    4   29     -2.46      0.00
   13    4   29      6.23      0.00
   14    4   29     -0.20      0.00
   15    4   29     -8.03      0.00
   16    4   29      3.73      0.00
   17    4   29      3.78      0.00
   18    4   29     -6.96      0.00
    0    5   29      6.88      0.00
    1    5   29     34.53      0.00
    2    5   29     -6.38      0.00
    3    5   29     -2.07      0.00
    4    5   29     -1.89      0.00
    5    5   29    -27.57      0.00
    6    5   29      6.01      0.00
    7    5   29     31.09      0.00
    8    5   29    -13.98      0.00
    9    5   29    -22.90      0.00
   10    5   29      8.53      0.00
   11    5   29      6.42      0.00
    6    0   30    -13.31      0.00
    7    0   30      0.01      0.00
    9    0   30     -0.29      0.00
   10    0   30      4.06      0.00
   11    0   30     -4.01      0.00
   12    0   30     -6.67      0.00
   14    0   30    -10.50      0.00
   15    0   30    -15.89      0.00
   17    0   30      6.04      0.00
    1    1   30      0.40      0.00
    2    1   30     -3.61      0.00
    3    1   30    -21.11      0.00
    4    1   30     -7.11      0.00
    5    1   30     18.47      0.00
    6    1   30     10.65      0.00
    7    1   30    -11.96      0.00
    8    1   30    -11.69      0.00
    9    1   30     -8.12      0.00
   10    1   30     10.79      0.00
   11    1   30      2.86      0.00
   12    1   30     -1.59      0.00
   13    1   30      3.99      0.00
   15    1   30     -4.75      0.00
   19    1   30     18.89      0.00
    0    2   30    -13.05      0.00
    1    2   30     -3.32      0.00
    2    2   30     20.60      0.00
    3    2   30     -2.42      0.00
    4    2   30    -10.03      0.00
    5    2   30      3.48      0.00
    6    2   30     -2.30      0.00
    7    2   30      3.93      0.00
    8    2   30     15.16      0.00
    9    2   30      1.31      0.00
   10    2   30     -7.57      0.00
   11    2   30     -0.73      0.00
   12    2   30      0.47      0.00
   13    2   30      7.98      0.00
   14    2   30      3.31      0.00
   15    2   30     -1.10      0.00
   16    2   30      7.27      0.00
   17    2   30      0.93      0.00
    1    3   30      3.21      0.00
    2    3   30     -1.27      0.00
    3    3   30      7.56      0.00
    4    3   30     11.69      0.00
    5    3   30     -6.24      0.00
    6    3   30    -20.77      0.00
    7    3   30      8.52      0.00
    8    3   30      8.88      0.00
    9    3   30     -1.09      0.00
   10    3   30      7.72      0.00
   11    3   30      3.77      0.00
   12    3   30     -8.22      0.00
   13    3   30     -3.51      0.00
    0    4   30     36.23      0.00
    1    4   30      6.75      0.00
    2    4   30    -31.45      0.00
    3    4   30     -4.51      0.00
    0    1   31     24.22      0.00
    2    0    0   -678.24      0.00
    4    0    0   -312.10      0.00
    6    0    0    365.85      0.00
   66    0    0      4.68      0.00
   68    0    0     -1.80      0.00
   72    0    0      7.70      0.00
    2    1    0    406.44      0.00
    4    1    0     -3.36      0.00
   70    1    0     16.29      0.00
   72    1    0    -17.50      0.00
   70    2    0      2.87      0.00
   72    2    0      8.75      0.00
   72    3    0     23.14      0.00
   62    8    0      7.88      0.00
   50   11    0      5.41      0.00
    0   12    0     42.20      0.00
   44   12    0      3.40      0.00
    4   13    0     18.10      0.00
    6   14    0      4.35      0.00
   10   14    0     -7.57      0.00
    1    0    1    200.25      0.00
    2    0    1    283.84      0.00
    3    0    1   -301.75      0.00
    4    0    1   -115.07      0.00
    5    0    1    146.46      0.00
   65    0    1     -5.33      0.00
   66    0    1     -1.90      0.00
   67    0    1     -0.22      0.00
   70    0    1     -3.41      0.00
    0    1    1   -141.47      0.00
    1    1    1    309.42      0.00
    2    1    1    -11.61      0.00
   68    1    1     -2.35      0.00
   71    1    1      1.56      0.00
   72    1    1      2.43      0.00
   69    2    1     -5.22      0.00
   70    2    1     -8.18      0.00
   71    2    1      9.04      0.00
   72    2    1      8.57      0.00
   70    3    1     -3.05      0.00
   71    3    1      1.35      0.00
   72    3    1     -7.00      0.00
   69    4    1     -1.49      0.00
   70    4    1      8.26      0.00
   45    5    1     -2.79      0.00
   69    5    1      0.19      0.00
   67    6    1     -7.64      0.00
   65    7    1     -1.49      0.00
   62    8    1      4.97      0.00
   59    9    1      0.63      0.00
   55   10    1      0.59      0.00
   50   11    1      6.24      0.00
   44   12    1      9.40      0.00
    0   13    1     11.49      0.00
   37   13    1      5.84      0.00
    1   14    1      6.95      0.00
    5   14    1     -2.25      0.00
    7   14    1     -4.71      0.00
    9   14    1      6.30      0.00
   27   14    1     -7.04      0.00
    0    0    2   -468.95      0.00
    1    0    2    310.78      0.00
    2    0    2    154.81      0.00
    3    0    2   -155.23      0.00
   66    0    2    -17.71      0.00
   72    0    2     -1.03      0.00
   69    5    2    -13.32      0.00
   67    6    2      5.96      0.00
   65    7    2     10.54      0.00
   62    8    2      6.77      0.00
   55   10    2     -3.54      0.00
   50   11    2     12.94      0.00
   44   12    2    -17.12      0.00
    4   13    2      0.02      0.00
   37   13    2     11.20      0.00
    0   14    2      6.34      0.00
   10   14    2      9.55      0.00
   12   14    2     -3.31      0.00
   26   14    2     -2.81      0.00
   27   14    2     -4.78      0.00
   72    0    3    -14.25      0.00
   72    2    3     -6.05      0.00
   70    4    3     -3.17      0.00
   69    5    3     -5.78      0.00
   67    6    3     14.74      0.00
   62    8    3     -0.49      0.00
   54   10    3     -4.13      0.00
   50   11    3      0.15      0.00
   44   12    3     -0.23      0.00
    6   13    3      0.68      0.00
   36   13    3     11.04      0.00
   37   13    3    -11.32      0.00
    7   14    3      1.86      0.00
    8   14    3     -5.37      0.00
   26   14    3     -2.41      0.00
   27   14    3      6.02      0.00
   71    0    4    -16.12      0.00
   72    0    4     -6.97      0.00
   72    1    4    -10.84      0.00
   72    2    4     -0.75      0.00
   71    3    4      4.45      0.00
   70    4    4     -1.27      0.00
   64    7    4    -10.56      0.00
   58    9    4     -7.94      0.00
   54   10    4     10.29      0.00
   49   11    4      3.61      0.00
   43   12    4      6.75      0.00
   36   13    4     -1.62      0.00
    0   14    4     -3.52      0.00
    1   14    4    -23.40      0.00
   25   14    4      3.55      0.00
   26   14    4      6.18      0.00
   71    0    5      9.42      0.00
   72    0    5      8.58      0.00
   72    1    5     -7.82      0.00
   71    2    5     13.53      0.00
   71    3    5     -4.74      0.00
   68    5    5      1.27      0.00
   66    6    5     -5.57      0.00
   64    7    5      5.62      0.00
   61    8    5      2.25      0.00
   49   11    5     -4.40      0.00
   43   12    5     12.45      0.00
    0   13    5     -0.21      0.00
   35   13    5    -10.88      0.00
    1   14    5     10.40      0.00
   24   14    5      8.65      0.00
   25   14    5     -0.39      0.00
   71    0    6     -0.30      0.00
   72    0    6     -6.32      0.00
   72    1    6     17.19      0.00
   71    2    6     -8.04      0.00
   69    4    6      5.87      0.00
   68    5    6     -6.01      0.00
   66    6    6     -7.29      0.00
   57    9    6      9.77      0.00
   53   10    6     -9.29      0.00
   48   11    6      9.59      0.00
   42   12    6      8.08      0.00
   34   13    6     -7.03      0.00
    0   14    6      9.98      0.00
    1   14    6     10.20      0.00
    2   14    6     -8.88      0.00
    4   14    6      4.04      0.00
    6   14    6      5.04      0.00
   23   14    6      4.83      0.00
   24   14    6     -4.89      0.00
   70    0    7      8.81      0.00
   71    0    7     -6.41      0.00
   71    1    7      2.87      0.00
   71    2    7     -9.17      0.00
   70    3    7      2.35      0.00
   69    4    7      4.99      0.00
   67    5    7      3.70      0.00
   65    6    7      5.09      0.00
   63    7    7      0.76      0.00
   60    8    7     -7.03      0.00
   52   10    7     -1.20      0.00
   47   11    7     -1.79      0.00
   41   12    7     11.35      0.00
    2   13    7     -4.99      0.00
   33   13    7     -1.66      0.00
    1   14    7     -1.15      0.00
    2   14    7      9.99      0.00
    3   14    7      1.22      0.00
   21   14    7     -0.44      0.00
   22   14    7     -3.24      0.00
   69    0    8    -13.83      0.00
   70    0    8     -4.31      0.00
   71    0    8     21.95      0.00
   70    2    8     12.48      0.00
   68    4    8     -3.75      0.00
   62    7    8     -0.32      0.00
   59    8    8     -4.25      0.00
   56    9    8     -0.25      0.00
   51   10    8      5.65      0.00
   46   11    8      4.74      0.00
   40   12    8    -12.39      0.00
   32   13    8      7.19      0.00
    0   14    8     -0.27      0.00
    5   14    8      0.45      0.00
   19   14    8      1.19      0.00
   20   14    8     -6.36      0.00
   69    0    9      9.14      0.00
   70    0    9     11.51      0.00
   70    1    9      4.07      0.00
   66    5    9     -0.12      0.00
   64    6    9    -11.54      0.00
   55    9    9     -3.01      0.00
   50   10    9     -9.65      0.00
   51   10    9      2.34      0.00
   45   11    9      9.34      0.00
   39   12    9     -9.05      0.00
   30   13    9     -0.62      0.00
   31   13    9     -7.54      0.00
    2   14    9     -2.32      0.00
    3   14    9     -6.02      0.00
   16   14    9     -2.19      0.00
   17   14    9     -0.39      0.00
   18   14    9      8.40      0.00
   68    0   10      4.88      0.00
   69    0   10      1.06      0.00
   69    1   10     -4.75      0.00
   69    2   10     -8.94      0.00
   68    3   10      0.63      0.00
   65    5   10      3.71      0.00
   63    6   10     -6.32      0.00
   54    9   10     -6.95      0.00
   49   10   10      3.65      0.00
   50   10   10     10.99      0.00
   44   11   10      0.68      0.00
   38   12   10     -3.09      0.00
   28   13   10      4.22      0.00
   29   13   10      0.13      0.00
    0   14   10     16.85      0.00
    2   14   10    -10.37      0.00
    3   14   10     -5.03      0.00
    6   14   10      1.96      0.00
   12   14   10      1.77      0.00
   13   14   10      0.92      0.00
   14   14   10     11.57      0.00
   15   14   10     -4.35      0.00
   68    0   11      2.35      0.00
   68    2   11     -1.97      0.00
   67    3   11     15.70      0.00
   66    4   11     -5.76      0.00
   64    5   11      8.65      0.00
   62    6   11     -3.99      0.00
   53    9   11      1.63      0.00
   48   10   11     -6.79      0.00
   43   11   11      4.24      0.00
   36   12   11      7.57      0.00
   26   13   11     -1.71      0.00
   27   13   11     -0.47      0.00
    2   14   11     -4.33      0.00
    4   14   11      4.26      0.00
    5   14   11     -6.19      0.00
    6   14   11      1.84      0.00
    7   14   11      5.80      0.00
    8   14   11     -3.05      0.00
    9   14   11      6.33      0.00
   10   14   11      6.85      0.00
   67    0   12      6.73      0.00
   68    0   12      5.71      0.00
   67    2   12     -1.97      0.00
   66    3   12      2.70      0.00
   65    4   12      3.33      0.00
   63    5   12      0.90      0.00
   61    6   12      4.05      0.00
   55    8   12     -9.00      0.00
   52    9   12     -0.52      0.00
   46   10   12     -2.46      0.00
   47   10   12     -3.42      0.00
   41   11   12      6.71      0.00
   42   11   12      7.42      0.00
   34   12   12    -13.77      0.00
   24   13   12      3.02      0.00
   25   13   12     11.39      0.00
   66    0   13      3.43      0.00
   66    2   13     -0.11      0.00
   65    3   13      5.68      0.00
   64    4   13      6.97      0.00
   62    5   13     -7.09      0.00
   60    6   13     -0.36      0.00
   57    7   13      0.25      0.00
   54    8   13     -3.02      0.00
   50    9   13      9.12      0.00
   46   10   13      1.89      0.00
   40   11   13      6.12      0.00
   32   12   13     -1.60      0.00
   21   13   13     10.64      0.00
   22   13   13     -3.48      0.00
   65    1   14      0.09      0.00
   65    2   14      8.42      0.00
   64    3   14      3.47      0.00
   61    5   14      3.70      0.00
   59    6   14     -7.25      0.00
   56    7   14     -7.25      0.00
   53    8   14     -1.48      0.00
   49    9   14      3.29      0.00
   44   10   14     -5.68      0.00
   38   11   14      2.18      0.00
   30   12   14     -8.13      0.00
   16   13   14    -10.44      0.00
   17   13   14     -1.51      0.00
   18   13   14     -3.57      0.00
   64    0   15      9.08      0.00
   64    1   15      1.53      0.00
   61    4   15      9.43      0.00
   57    6   15      0.31      0.00
   51    8   15      2.99      0.00
   47    9   15     -5.43      0.00
   42   10   15     -3.21      0.00
   36   11   15     -0.08      0.00
   27   12   15     -0.50      0.00
   10   13   15     -7.78      0.00
   11   13   15     -1.33      0.00
   12   13   15      1.99      0.00
   13   13   15     -2.95      0.00
   63    0   16     -5.33      0.00
   63    1   16     -9.95      0.00
   62    2   16     -3.09      0.00
   61    3   16      3.28      0.00
   60    4   16     -0.68      0.00
   58    5   16      7.44      0.00
   56    6   16      2.60      0.00
   53    7   16      4.60      0.00
   45    9   16      4.28      0.00
   40   10   16      6.49      0.00
   33   11   16     -0.75      0.00
   23   12   16      3.98      0.00
   24   12   16     -0.85      0.00
    1   13   16     -0.47      0.00
    2   13   16      7.77      0.00
    3   13   16      5.89      0.00
    4   13   16     -7.62      0.00
   59    0   17     -4.97      0.00
   60    0   17      7.38      0.00
   61    0   17     13.00      0.00
   61    1   17      1.33      0.00
   61    2   17     -6.31      0.00
   60    3   17     -4.01      0.00
   58    4   17      5.56      0.00
   54    6   17     -2.60      0.00
   51    7   17     -1.41      0.00
   48    8   17     -2.63      0.00
   43    9   17     -2.18      0.00
   38   10   17     -2.99      0.00
   30   11   17     -7.39      0.00
   31   11   17    -10.49      0.00
   19   12   17     14.15      0.00
   20   12   17    -10.16      0.00
   57    0   18     -2.79      0.00
   58    0   18      3.88      0.00
   59    0   18    -11.84      0.00
   60    0   18     -7.70      0.00
   60    1   18     -3.79      0.00
   59    2   18     -2.38      0.00
   58    3   18     -1.37      0.00
   57    4   18      1.36      0.00
   55    5   18     -2.89      0.00
   52    6   18      3.04      0.00
   49    7   18      8.27      0.00
   46    8   18      4.92      0.00
   41    9   18      1.59      0.00
   35   10   18     10.09      0.00
   27   11   18     11.47      0.00
   12   12   18     -1.55      0.00
   13   12   18     -5.45      0.00
   14   12   18     -6.98      0.00
   15   12   18     -3.25      0.00
    1    0   19      3.86      0.00
   55    0   19     -4.88      0.00
   56    0   19      0.86      0.00
   57    0   19     11.77      0.00
   58    0   19      8.90      0.00
   56    1   19     -1.65      0.00
   57    1   19      1.24      0.00
   58    1   19      1.97      0.00
   57    2   19     -1.24      0.00
   56    3   19      6.07      0.00
   55    4   19      2.62      0.00
   53    5   19     -4.87      0.00
   50    6   19     -9.31      0.00
   47    7   19     -9.39      0.00
   43    8   19     -1.70      0.00
   38    9   19      4.04      0.00
   39    9   19      1.66      0.00
   32   10   19      6.04      0.00
   22   11   19      1.49      0.00
   23   11   19     13.72      0.00
   24   11   19     -2.20      0.00
    1   12   19      9.50      0.00
    2   12   19     -0.48      0.00
    3   12   19    -18.83      0.00
    4   12   19      4.32      0.00
    5   12   19     12.52      0.00
    0    0   20     -9.34      0.00
    1    0   20    -16.09      0.00
    2    0   20      0.66      0.00
   54    0   20    -11.86      0.00
   55    0   20     -8.83      0.00
   56    0   20      1.59      0.00
   54    1   20      4.95      0.00
   56    1   20      4.57      0.00
   54    3   20      1.68      0.00
   53    4   20      9.81      0.00
   51    5   20      3.72      0.00
   48    6   20     -1.93      0.00
   45    7   20      4.58      0.00
   41    8   20      3.84      0.00
   35    9   20      4.76      0.00
   36    9   20      2.12      0.00
   28   10   20     -5.30      0.00
   29   10   20     -4.66      0.00
   17   11   20      4.76      0.00
   18   11   20      2.47      0.00
   19   11   20     -4.09      0.00
    1    0   21     -6.21      0.00
    2    0   21      0.65      0.00
    3    0   21      4.54      0.00
   51    0   21      1.21      0.00
   53    0   21      6.95      0.00
   54    0   21     19.62      0.00
   53    1   21      1.46      0.00
   54    1   21     -8.52      0.00
   53    2   21      1.91      0.00
   52    3   21      2.49      0.00
   51    4   21     -9.87      0.00
   49    5   21      0.61      0.00
   46    6   21      2.96      0.00
   42    7   21     -5.61      0.00
   38    8   21      1.11      0.00
   32    9   21     -2.94      0.00
   24   10   21     -0.62      0.00
   25   10   21     -1.74      0.00
    7   11   21      0.70      0.00
    8   11   21      2.71      0.00
    9   11   21    -11.49      0.00
   10   11   21    -11.20      0.00
   11   11   21     15.34      0.00
    0    0   22     -2.48      0.00
    1    0   22     -0.83      0.00
    2    0   22      8.07      0.00
    3    0   22     -4.39      0.00
    4    0   22      1.75      0.00
    5    0   22      1.76      0.00
   49    0   22      6.92      0.00
   52    0   22     -7.58      0.00
    1    1   22      6.92      0.00
    2    1   22    -10.04      0.00
   52    1   22      1.83      0.00
   51    2   22     -2.42      0.00
   50    3   22     -5.48      0.00
   48    4   22     -2.20      0.00
   46    5   22      0.59      0.00
   43    6   22      5.61      0.00
   39    7   22      3.40      0.00
   40    7   22     -4.81      0.00
   34    8   22     -0.26      0.00
   35    8   22      1.64      0.00
   28    9   22      7.29      0.00
   29    9   22     -6.02      0.00
   18   10   22      1.57      0.00
   19   10   22     -1.70      0.00
    1    0   23     -2.21      0.00
    2    0   23     -7.80      0.00
    3    0   23     26.42      0.00
    4    0   23     -2.30      0.00
    5    0   23    -13.33      0.00
    6    0   23      2.80      0.00
   47    0   23     -1.02      0.00
   48    0   23     -9.02      0.00
   49    0   23     -3.07      0.00
   50    0   23     13.40      0.00
    0    1   23      7.26      0.00
   49    1   23     -6.40      0.00
   49    2   23      3.82      0.00
   46    4   23     -4.50      0.00
   43    5   23     -0.42      0.00
   40    6   23     -2.72      0.00
   35    7   23     -0.59      0.00
   36    7   23     -3.20      0.00
   31    8   23     -0.78      0.00
   23    9   23     -8.80      0.00
   24    9   23      3.39      0.00
    8   10   23     -8.46      0.00
    9   10   23      7.92      0.00
   10   10   23     20.93      0.00
   11   10   23     -0.70      0.00
   12   10   23     -7.30      0.00
    0    0   24    -20.71      0.00
    1    0   24     -8.95      0.00
    2    0   24     15.22      0.00
    3    0   24     -6.66      0.00
    4    0   24     -1.01      0.00
    5    0   24     -0.53      0.00
    6    0   24     -8.66      0.00
    7    0   24      8.42      0.00
   45    0   24      4.21      0.00
   46    0   24      0.65      0.00
   47    0   24      6.88      0.00
    1    1   24      0.03      0.00
    2    1   24     -6.09      0.00
   47    1   24      6.39      0.00
   46    2   24     -2.18      0.00
   45    3   24      2.45      0.00
   43    4   24      4.13      0.00
   39    5   24      6.99      0.00
   40    5   24      4.70      0.00
   37    6   24      2.08      0.00
   32    7   24      2.44      0.00
   33    7   24     -3.00      0.00
   26    8   24     18.68      0.00
   27    8   24     -7.46      0.00
   16    9   24    -15.40      0.00
   17    9   24    -11.14      0.00
   18    9   24      1.10      0.00
    1    0   25     -4.61      0.00
    2    0   25      0.92      0.00
    3    0   25     -5.77      0.00
    4    0   25    -14.76      0.00
    5    0   25    -13.62      0.00
    6    0   25     17.80      0.00
    7    0   25      6.89      0.00
    8    0   25     -1.60      0.00
   11    0   25    -23.07      0.00
   42    0   25    -10.01      0.00
   44    0   25     -7.79      0.00
    0    1   25      0.25      0.00
    1    1   25      7.08      0.00
    2    1   25      0.27      0.00
    3    1   25     -1.21      0.00
    4    1   25     -9.36      0.00
   44    1   25     -8.21      0.00
   43    2   25     -0.41      0.00
   41    3   25      7.81      0.00
   42    3   25     -1.27      0.00
   39    4   25      2.39      0.00
   40    4   25    -14.56      0.00
   37    5   25     10.86      0.00
   33    6   25      1.13      0.00
   27    7   25     13.34      0.00
   28    7   25      0.37      0.00
   20    8   25     15.40      0.00
   21    8   25      2.24      0.00
    0    9   25      7.25      0.00
    1    9   25      5.60      0.00
    2    9   25     -3.23      0.00
    3    9   25     -0.34      0.00
    4    9   25     -7.58      0.00
    5    9   25     -8.16      0.00
    6    9   25      3.40      0.00
    7    9   25      8.04      0.00
    8    9   25      0.47      0.00
    0    0   26     25.00      0.00
    1    0   26     11.46      0.00
    2    0   26    -25.34      0.00
    3    0   26      1.27      0.00
    4    0   26      8.30      0.00
    5    0   26     -6.56      0.00
    6    0   26    -23.13      0.00
    7    0   26     -0.18      0.00
    8    0   26     14.89      0.00
    9    0   26      2.33      0.00
   41    0   26     19.70      0.00
    1    1   26     -7.33      0.00
    2    1   26      6.03      0.00
    3    1   26     26.32      0.00
    4    1   26      4.90      0.00
    5    1   26     -6.93      0.00
   40    1   26      0.14      0.00
   41    1   26     -2.06      0.00
   39    2   26      3.17      0.00
   40    2   26    -13.65      0.00
   38    3   26      5.15      0.00
   36    4   26     -4.13      0.00
   33    5   26     -4.82      0.00
   28    6   26      6.02      0.00
   29    6   26      4.46      0.00
   22    7   26     -7.40      0.00
   23    7   26      0.51      0.00
   11    8   26    -19.61      0.00
   12    8   26     -2.04      0.00
   13    8   26     18.71      0.00
   14    8   26     -4.18      0.00
    1    0   27      9.50      0.00
    2    0   27     26.60      0.00
    3    0   27     -8.94      0.00
    4    0   27    -13.33      0.00
    5    0   27      5.37      0.00
    6    0   27    -12.26      0.00
    7    0   27      6.68      0.00
    8    0   27      5.52      0.00
    9    0   27     -3.32      0.00
   37    0   27      5.85      0.00
    0    1   27    -32.37      0.00
    1    1   27     23.89      0.00
    2    1   27     24.69      0.00
    3    1   27    -11.60      0.00
    4    1   27     20.45      0.00
   37    1   27      5.07      0.00
   36    2   27      2.02      0.00
   31    3   27     -0.96      0.00
   34    3   27     -7.32      0.00
   31    4   27     -4.46      0.00
   32    4   27      4.47      0.00
   28    5   27     16.10      0.00
   22    6   27    -10.50      0.00
   23    6   27      4.36      0.00
   14    7   27     -4.64      0.00
   15    7   27     -2.98      0.00
   16    7   27      2.17      0.00
    0    0   28     18.93      0.00
    1    0   28     36.03      0.00
    2    0   28     -6.79      0.00
    3    0   28    -12.83      0.00
    4    0   28      5.36      0.00
    5    0   28     -6.18      0.00
    6    0   28     35.38      0.00
    7    0   28      3.70      0.00
    8    0   28    -22.43      0.00
   32    0   28     -7.38      0.00
   33    0   28     15.63      0.00
    1    1   28     -9.77      0.00
    2    1   28     -4.37      0.00
    3    1   28     16.62      0.00
   32    1   28     -0.66      0.00
   33    1   28    -10.80      0.00
   30    2   28     -6.77      0.00
   31    2   28      5.39      0.00
   32    2   28     12.05      0.00
   29    3   28    -12.41      0.00
   30    3   28     -8.14      0.00
   25    4   28      3.46      0.00
   26    4   28    -17.95      0.00
   27    4   28      1.16      0.00
   21    5   28     -2.72      0.00
   22    5   28     -5.06      0.00
   14    6   28     -4.60      0.00
   15    6   28     -6.19      0.00
   16    6   28     -5.26      0.00
    1    0   29     -7.87      0.00
    2    0   29     10.15      0.00
    3    0   29     13.06      0.00
    4    0   29     -4.79      0.00
    5    0   29     13.36      0.00
    6    0   29    -12.14      0.00
    7    0   29    -12.21      0.00
   17    0   29      6.66      0.00
   18    0   29      8.04      0.00
   20    0   29    -10.86      0.00
   22    0   29     10.87      0.00
   27    0   29     -4.78      0.00
   28    0   29     12.08      0.00
    0    1   29    -17.26      0.00
    1    1   29     -7.99      0.00
    2    1   29      0.00      0.00
    9    1   29    -19.00      0.00
   10    1   29      7.28      0.00
   27    1   29     -1.81      0.00
   25    2   29    -14.03      0.00
   26    2   29     -1.98      0.00
   23    3   29      5.02      0.00
   24    3   29     -3.02      0.00
   19    4   29     -2.10      0.00
   20    4   29      4.31      0.00
   12    5   29     -3.57      0.00
   13    5   29      7.10      0.00
   14    5   29     -0.22      0.00
    0    0   30    -34.33      0.00
    1    0   30     -2.34      0.00
    2    0   30     10.81      0.00
    3    0   30     12.96      0.00
    4    0   30      1.69      0.00
    5    0   30    -15.24      0.00
    8    0   30      7.40      0.00
   13    0   30      2.73      0.00
   16    0   30     -1.55      0.00
   18    0   30     -2.52      0.00
   19    0   30     11.12      0.00
   20    0   30     15.11      0.00
   21    0   30    -18.88      0.00
   22    0   30    -12.59      0.00
   14    1   30      7.44      0.00
   16    1   30     -6.80      0.00
   17    1   30    -11.80      0.00
   18    1   30     -9.39      0.00
   20    1   30      4.91      0.00
   21    1   30     -5.94      0.00
   18    2   30     -4.27      0.00
   19    2   30     -0.92      0.00
   14    3   30     -0.84      0.00
   15    3   30      7.71      0.00
   16    3   30      3.28      0.00
    4    4   30     12.49      0.00
    5    4   30      2.73      0.00
    6    4   30     10.58      0.00
    7    4   30     -2.64      0.00
    8    4   30    -29.47      0.00
    9    4   30     -4.47      0.00
   10    4   30     18.14      0.00
    1    0   31    -10.37      0.00
    2    0   31    -20.94      0.00
    3    0   31     -0.24      0.00
    4    0   31     17.12      0.00
    5    0   31     -5.97      0.00
    6    0   31     -7.56      0.00
    7    0   31      1.98      0.00
    8    0   31    -15.62      0.00
    9    0   31     -1.03      0.00
   10    0   31     24.01      0.00
   11    0   31     -8.70      0.00
   12    0   31     -8.16      0.00
    1    1   31     -2.92      0.00
    2    1   31    -12.48      0.00
    3    1   31     -0.44      0.00
    4    1   31      4.70      0.00
    5    1   31      0.74      0.00
    6    1   31      1.38      0.00
    7    1   31     -0.94      0.00
    8    1   31     -5.62      0.00
    9    1   31      7.77      0.00
   10    1   31     -2.39      0.00
   11    1   31      2.59      0.00
    1    2   31      2.35      0.00
    2    2   31      2.33      0.00
    3    2   31      9.59      0.00
    4    2   31      5.66      0.00
    5    2   31     -4.43      0.00
    6    2   31     -3.70      0.00
    7    2   31     12.64      0.00
    0    0    0      0.00      0.00
# SQUEEZE RESULTS (Version =  50315)
# Note: Data are Listed for all Voids in the P1 Unit Cell
# i.e. Centre of Gravity, Solvent Accessible Volume,
# Recovered number of Electrons in the Void and
# Details about the Squeezed Material
loop_
  _platon_squeeze_void_nr
  _platon_squeeze_void_average_x
  _platon_squeeze_void_average_y
  _platon_squeeze_void_average_z
  _platon_squeeze_void_volume
  _platon_squeeze_void_count_electrons
  _platon_squeeze_void_content
   1  0.250 -0.008  0.751      1868       586 ' '
   2  0.750 -0.020  0.728      1872       587 ' '
   3  0.008  0.250  0.179        19         2 ' '
   4  0.508  0.250  0.321        18         2 ' '
   5  0.146  0.250  0.150         7         1 ' '
   6  0.646  0.250  0.350         7         1 ' '
   7  0.491  0.750  0.679        19         2 ' '
   8  0.991  0.750  0.821        19         2 ' '
   9  0.354  0.750  0.650         7         1 ' '
  10  0.854  0.750  0.850         7         1 ' '
# Missing Reflections Below sin(th)/lambda = 0.25
loop_
  _platon_missing_refln_index_h
  _platon_missing_refln_index_k
  _platon_missing_refln_index_l
  _platon_missing_refln_theta
    2    0    0     0.699
    4    0    0     1.397
    6    0    0     2.096
    2    1    0     1.836
    4    1    0     2.199
    1    0    1     0.889
    2    0    1     1.075
    3    0    1     1.329
    4    0    1     1.619
    5    0    1     1.929
    0    1    1     1.885
    1    1    1     1.917
    2    1    1     2.010
    0    0    2     1.635
    1    0    2     1.672
    2    0    2     1.778
    3    0    2     1.942
_platon_squeeze_void_probe_radius                  1.20
_platon_squeeze_details
)
TITL w         P n m a      R = 0.15
CELL   58.2950   11.9914   24.9110     90.00     90.00     90.00
SPGR Pnma
# Solvent Accessible Volume =    3963.3
# Electrons Found in S.A.V. =    1183.5
# Note: Atoms in Void as Cxxx and Qxxx all others
C101 0.670 0.252 0.172 !       5.78 eA-3
C102 0.637 0.753 0.219 !       3.92 eA-3
C103 0.699 0.747 0.430 !       3.90 eA-3
C104 0.199 0.759 0.023 !       3.83 eA-3
C105 0.775 0.753 0.234 !       3.83 eA-3
Q106 0.632 0.743 0.180 !       3.68 eA-3
C107 0.221 0.258 0.414 !       3.63 eA-3
C108 0.379 0.257 0.383 !       3.56 eA-3
Q109 0.936 0.753 0.196 !       3.49 eA-3
C110 0.133 0.748 0.086 !       3.46 eA-3
Q111 0.801 0.240 0.313 !       3.35 eA-3
C112 0.851 0.252 0.117 !       3.23 eA-3
Q113 0.430 0.747 0.430 !       3.16 eA-3
C114 0.140 0.749 0.117 !       3.15 eA-3
C115 0.144 0.749 0.172 !       3.11 eA-3
C116 0.105 0.757 0.055 !       3.10 eA-3
C117 0.844 0.249 0.086 !       3.09 eA-3
Q118 0.801 0.252 0.383 !       3.00 eA-3
C119 0.813 0.244 0.203 !       2.99 eA-3
C120 0.788 0.754 0.172 !       2.97 eA-3
C121 0.205 0.724 0.101 !       2.96 eA-3
Q122 0.758 0.246 0.297 !       2.94 eA-3
C123 0.805 0.257 0.008 !       2.91 eA-3
C124 0.184 0.188 0.321 !       2.87 eA-3
C125 0.216 0.246 0.289 !       2.80 eA-3
Q126 0.247 0.752 0.195 !       2.77 eA-3
C127 0.884 0.257 0.234 !       2.74 eA-3
C128 0.840 0.253 0.172 !       2.69 eA-3
Q129 0.753 0.253 0.367 !       2.68 eA-3
Q130 0.782 0.751 0.469 !       2.67 eA-3
C131 0.640 0.748 0.281 !       2.62 eA-3
Q132 0.437 0.764 0.375 !       2.61 eA-3
C133 0.860 0.257 0.211 !       2.61 eA-3
C134 0.841 0.082 0.228 !       2.60 eA-3
C135 0.294 0.249 0.274 !       2.59 eA-3
C136 0.294 0.257 0.461 !       2.58 eA-3
Q137 0.071 0.253 0.000 !       2.58 eA-3
Q138 0.466 0.255 0.453 !       2.54 eA-3
C139 0.322 0.246 0.437 !       2.53 eA-3
Q140 0.631 0.757 0.133 !       2.46 eA-3
Q141 0.802 0.247 0.476 !       2.44 eA-3
C142 0.886 0.245 0.164 !       2.43 eA-3
Q143 0.026 0.243 0.031 !       2.43 eA-3
Q144 0.468 0.255 0.383 !       2.42 eA-3
C145 0.286 0.843 0.311 !       2.40 eA-3
C146 0.874 0.300 0.187 !       2.36 eA-3
Q147 0.420 0.245 0.406 !       2.36 eA-3
Q148 0.113 0.256 0.352 !       2.35 eA-3
Q149 0.794 0.244 0.273 !       2.33 eA-3
C150 0.207 0.779 0.141 !       2.30 eA-3
C151 0.793 0.221 0.859 !       2.30 eA-3
C152 0.219 0.325 0.390 !       2.29 eA-3
Q153 0.813 0.754 0.422 !       2.28 eA-3
Q154 0.067 0.246 0.164 !       2.28 eA-3
Q155 0.048 0.746 0.391 !       2.28 eA-3
Q156 0.273 0.257 0.344 !       2.27 eA-3
Q157 0.571 0.249 0.125 !       2.27 eA-3
C158 0.338 0.573 0.283 !       2.26 eA-3
Q159 0.252 0.244 0.062 !       2.24 eA-3
C160 0.272 0.255 0.461 !       2.23 eA-3
C161 0.757 0.745 0.242 !       2.23 eA-3
C162 0.899 0.256 0.344 !       2.23 eA-3
Q163 0.043 0.642 0.221 !       2.22 eA-3
C164 0.850 0.249 0.281 !       2.19 eA-3
C165 0.176 0.751 0.164 !       2.19 eA-3
C166 0.846 0.485 0.241 !       2.18 eA-3
Q167 0.062 0.255 0.328 !       2.16 eA-3
Q168 0.066 0.251 0.414 !       2.15 eA-3
C169 0.835 0.255 0.242 !       2.14 eA-3
C170 0.192 0.751 0.133 !       2.10 eA-3
Q171 0.453 0.256 0.344 !       2.10 eA-3
Q172 0.769 0.243 0.414 !       2.09 eA-3
C173 0.323 0.217 0.327 !       2.09 eA-3
C174 0.353 0.205 0.346 !       2.09 eA-3
C175 0.714 0.074 0.151 !       2.07 eA-3
C176 0.896 0.176 0.235 !       2.06 eA-3
C177 0.686 0.255 0.156 !       2.06 eA-3
C178 0.207 0.205 0.258 !       2.05 eA-3
C179 0.808 0.251 0.102 !       2.04 eA-3
C180 0.377 0.252 0.180 !       2.03 eA-3
C181 0.816 0.513 0.167 !       2.03 eA-3
C182 0.126 0.745 0.023 !       2.03 eA-3
C183 0.700 0.251 0.273 !       2.02 eA-3
Q184 0.348 0.245 0.187 !       2.02 eA-3
C185 0.794 0.298-0.002 !       2.01 eA-3
C186 0.390 0.249 0.297 !       2.01 eA-3
Q187 0.864 0.200 0.303 !       2.00 eA-3
C188 0.879 0.188 0.274 !       2.00 eA-3
Q189 0.237 0.745 0.141 !       1.98 eA-3
C190 0.608 0.718 0.469 !       1.95 eA-3
Q191 0.419 0.756 0.242 !       1.94 eA-3
C192 0.832 0.704 0.211 !       1.94 eA-3
C193 0.207 0.105 0.311 !       1.94 eA-3
C194 0.504 0.262 0.320 !       1.94 eA-3
Q195 0.422 0.256 0.281 !       1.92 eA-3
Q196 0.101 0.716 0.404 !       1.91 eA-3
C197 0.397 0.230 0.234 !       1.91 eA-3
Q198 0.578 0.251 0.227 !       1.91 eA-3
C199 0.382 0.252 0.211 !       1.91 eA-3
)
;
_shelx_shelxl_version_number     2014/7
_olex2_submission_special_instructions 'No special instructions were received'
loop_
_space_group_symop_operation_xyz
'x, y, z'
'-x+1/2, -y, z+1/2'
'-x, y+1/2, -z'
'x+1/2, -y+1/2, -z+1/2'
'-x, -y, -z'
'x-1/2, y, -z-1/2'
'x, -y-1/2, z'
'-x-1/2, y-1/2, z-1/2'
loop_
_atom_site_label
_atom_site_type_symbol
_atom_site_fract_x
_atom_site_fract_y
_atom_site_fract_z
_atom_site_U_iso_or_equiv
_atom_site_adp_type
_atom_site_occupancy
_atom_site_site_symmetry_order
_atom_site_calc_flag
_atom_site_refinement_flags_posn
_atom_site_refinement_flags_adp
_atom_site_refinement_flags_occupancy
_atom_site_disorder_assembly
_atom_site_disorder_group
Pd1 Pd 0.56579(3) 0.2500 0.65984(6) 0.0479(5) Uani 1 2 d S TU P . .
Pd2 Pd 0.57080(2) 0.2500 0.53417(6) 0.0376(4) Uani 1 2 d S TU P . .
Pd3 Pd 0.56529(3) 0.2500 0.04723(7) 0.0936(9) Uani 1 2 d S TU P . .
Pd4 Pd 0.61224(2) 0.2500 0.11077(6) 0.0656(6) Uani 1 2 d S TU P . .
Pd5 Pd 0.80109(2) 0.2500 0.34551(6) 0.0373(4) Uani 1 2 d S TU P . .
Pd6 Pd 0.75349(2) 0.2500 0.40544(6) 0.0327(4) Uani 1 2 d S TU P . .
N1 N 0.58642(17) 0.3648(10) 0.6277(4) 0.046(3) Uani 1 1 d . U . . .
N2 N 0.59028(17) 0.3621(10) 0.5733(4) 0.042(2) Uani 1 1 d . U . . .
N3 N 0.5694(2) 0.3630(15) 0.1044(5) 0.085(4) Uani 1 1 d . U . . .
N4 N 0.5893(2) 0.3619(14) 0.1350(5) 0.076(3) Uani 1 1 d . U . . .
N5 N 0.77816(15) 0.3642(9) 0.3226(4) 0.037(2) Uani 1 1 d . U . . .
N6 N 0.75686(15) 0.3634(8) 0.3467(4) 0.032(2) Uani 1 1 d . U . . .
N7 N 0.64715(16) 0.4867(9) 0.3534(4) 0.041(2) Uani 1 1 d . U . . .
N8 N 0.54402(17) 0.3587(11) 0.6938(4) 0.044(2) Uani 1 1 d . U . . .
N9 N 0.54952(17) 0.3577(9) 0.4969(4) 0.039(2) Uani 1 1 d . U . . .
N10 N 0.5609(2) 0.3581(17) -0.0121(5) 0.083(4) Uani 1 1 d . U . . .
N11 N 0.63526(18) 0.1402(11) 0.0817(4) 0.050(3) Uani 1 1 d . U . . .
N12 N 0.82465(16) 0.1406(9) 0.3714(4) 0.039(2) Uani 1 1 d . U . . .
N13 N 0.75039(15) 0.1414(8) 0.4662(4) 0.033(2) Uani 1 1 d . U . . .
C1 C 0.6013(3) 0.4342(15) 0.6485(6) 0.067(5) Uani 1 1 d . U . . .
H1 H 0.6020 0.4529 0.6855 0.081 Uiso 1 1 calc R . . . .
C2 C 0.6158(3) 0.4765(15) 0.6104(6) 0.065(4) Uani 1 1 d . U . . .
H2 H 0.6284 0.5258 0.6157 0.078 Uiso 1 1 calc R . . . .
C3 C 0.6080(2) 0.4307(13) 0.5618(5) 0.050(3) Uani 1 1 d . U . . .
C4 C 0.6170(2) 0.4499(11) 0.5066(5) 0.039(3) Uani 1 1 d . U . . .
C5 C 0.6365(3) 0.5110(16) 0.4977(7) 0.084(5) Uani 1 1 d . U . . .
H5 H 0.6436 0.5460 0.5276 0.100 Uiso 1 1 calc R . . . .
C6 C 0.6461(3) 0.5243(14) 0.4488(6) 0.067(4) Uani 1 1 d . U . . .
H6 H 0.6593 0.5695 0.4452 0.081 Uiso 1 1 calc R . . . .
C7 C 0.6370(2) 0.4736(11) 0.4044(5) 0.041(3) Uani 1 1 d . U . . .
C8 C 0.6178(3) 0.4131(15) 0.4116(6) 0.070(4) Uani 1 1 d . U . . .
H8 H 0.6107 0.3792 0.3814 0.084 Uiso 1 1 calc R . . . .
C9 C 0.6077(3) 0.3985(14) 0.4644(6) 0.067(4) Uani 1 1 d . U . . .
H9 H 0.5946 0.3526 0.4688 0.081 Uiso 1 1 calc R . . . .
C10 C 0.5548(3) 0.4363(19) 0.1257(8) 0.100(5) Uani 1 1 d . U . . .
H10 H 0.5396 0.4495 0.1133 0.120 Uiso 1 1 calc R . . . .
C11 C 0.5655(3) 0.492(2) 0.1700(8) 0.101(5) Uani 1 1 d . U . . .
H11 H 0.5596 0.5515 0.1910 0.121 Uiso 1 1 calc R . . . .
C12 C 0.5866(3) 0.4389(18) 0.1751(7) 0.081(4) Uani 1 1 d . U . . .
C13 C 0.6035(3) 0.4535(16) 0.2202(6) 0.071(4) Uani 1 1 d . U . . .
C14 C 0.5981(3) 0.5261(15) 0.2618(6) 0.073(4) Uani 1 1 d . U . . .
H14 H 0.5845 0.5698 0.2598 0.087 Uiso 1 1 calc R . . . .
C15 C 0.6123(2) 0.5355(14) 0.3061(6) 0.066(4) Uani 1 1 d . U . . .
H15 H 0.6079 0.5797 0.3360 0.079 Uiso 1 1 calc R . . . .
C16 C 0.6334(2) 0.4788(12) 0.3063(5) 0.044(3) Uani 1 1 d . U . . .
C17 C 0.6390(2) 0.4144(13) 0.2643(6) 0.056(4) Uani 1 1 d . U . . .
H17 H 0.6533 0.3766 0.2643 0.067 Uiso 1 1 calc R . . . .
C18 C 0.6245(2) 0.4018(15) 0.2216(6) 0.069(4) Uani 1 1 d . U . . .
H18 H 0.6291 0.3564 0.1922 0.082 Uiso 1 1 calc R . . . .
C19 C 0.7770(2) 0.4299(12) 0.2785(5) 0.043(3) Uani 1 1 d . U . . .
H19 H 0.7892 0.4430 0.2539 0.052 Uiso 1 1 calc R . . . .
C20 C 0.7557(2) 0.4738(12) 0.2753(5) 0.043(3) Uani 1 1 d . U . . .
H20 H 0.7504 0.5239 0.2486 0.052 Uiso 1 1 calc R . . . .
C21 C 0.7431(2) 0.4325(11) 0.3182(5) 0.039(3) Uani 1 1 d . U . . .
C22 C 0.7183(2) 0.4502(10) 0.3310(5) 0.033(3) Uani 1 1 d . U . . .
C23 C 0.7057(2) 0.5214(13) 0.3008(6) 0.059(4) Uani 1 1 d . U . . .
H23 H 0.7131 0.5625 0.2732 0.071 Uiso 1 1 calc R . . . .
C24 C 0.6823(2) 0.5363(14) 0.3087(6) 0.068(4) Uani 1 1 d . U . . .
H24 H 0.6741 0.5876 0.2869 0.082 Uiso 1 1 calc R . . . .
C25 C 0.6711(2) 0.4785(11) 0.3472(5) 0.037(3) Uani 1 1 d . U . . .
C26 C 0.6838(2) 0.4113(14) 0.3794(6) 0.065(4) Uani 1 1 d . U . . .
H26 H 0.6768 0.3720 0.4080 0.078 Uiso 1 1 calc R . . . .
C27 C 0.7071(2) 0.4004(14) 0.3702(6) 0.066(4) Uani 1 1 d . U . . .
H27 H 0.7156 0.3538 0.3938 0.079 Uiso 1 1 calc R . . . .
C28 C 0.5268(2) 0.3104(12) 0.7232(5) 0.049(3) Uani 1 1 d . U . . .
C29 C 0.5097(3) 0.3772(14) 0.7466(7) 0.068(4) Uani 1 1 d . U . . .
H29 H 0.4973 0.3431 0.7650 0.081 Uiso 1 1 calc R . . . .
C30 C 0.5109(3) 0.4880(15) 0.7433(7) 0.073(4) Uani 1 1 d . U . . .
C31 C 0.5292(2) 0.5376(15) 0.7134(6) 0.064(4) Uani 1 1 d . U . . .
H31 H 0.5304 0.6162 0.7099 0.076 Uiso 1 1 calc R . . . .
C32 C 0.5445(3) 0.4694(14) 0.6907(6) 0.058(4) Uani 1 1 d . U . . .
H32 H 0.5567 0.5025 0.6709 0.069 Uiso 1 1 calc R . . . .
C33 C 0.4935(4) 0.5633(17) 0.7696(10) 0.133(9) Uani 1 1 d . U . . .
H33A H 0.4987 0.6408 0.7670 0.199 Uiso 1 1 calc GR . . . .
H33B H 0.4919 0.5426 0.8074 0.199 Uiso 1 1 calc GR . . . .
H33C H 0.4787 0.5554 0.7514 0.199 Uiso 1 1 calc GR . . . .
C34 C 0.5324(2) 0.3113(11) 0.4686(5) 0.045(3) Uani 1 1 d . U . . .
C35 C 0.5167(2) 0.3744(11) 0.4419(5) 0.044(3) Uani 1 1 d . U . . .
H35 H 0.5048 0.3385 0.4224 0.053 Uiso 1 1 calc R . . . .
C36 C 0.5177(2) 0.4929(11) 0.4425(6) 0.047(3) Uani 1 1 d . U . . .
C37 C 0.5356(2) 0.5401(13) 0.4716(6) 0.053(4) Uani 1 1 d . U . . .
H37 H 0.5375 0.6187 0.4722 0.064 Uiso 1 1 calc R . . . .
C38 C 0.5506(2) 0.4719(12) 0.4997(6) 0.049(3) Uani 1 1 d . U . . .
H38 H 0.5621 0.5054 0.5216 0.059 Uiso 1 1 calc R . . . .
C39 C 0.5019(3) 0.5656(13) 0.4130(6) 0.062(4) Uani 1 1 d . U . . .
H39A H 0.5073 0.5741 0.3760 0.094 Uiso 1 1 calc GR . . . .
H39B H 0.5013 0.6389 0.4303 0.094 Uiso 1 1 calc GR . . . .
H39C H 0.4866 0.5325 0.4129 0.094 Uiso 1 1 calc GR . . . .
C40 C 0.5618(3) 0.471(2) -0.0103(8) 0.090(4) Uani 1 1 d . U . . .
C41 C 0.5593(3) 0.536(2) -0.0553(8) 0.102(5) Uani 1 1 d . U . . .
H41 H 0.5591 0.6146 -0.0511 0.122 Uiso 1 1 calc R . . . .
C42 C 0.5570(3) 0.494(2) -0.1050(8) 0.097(5) Uani 1 1 d . U . . .
C43 C 0.5547(3) 0.377(2) -0.1068(7) 0.093(5) Uani 1 1 d . U . . .
H43 H 0.5512 0.3420 -0.1399 0.112 Uiso 1 1 calc R . . . .
C44 C 0.5577(2) 0.3112(16) -0.0606(6) 0.076(4) Uani 1 1 d . U . . .
C45 C 0.5561(5) 0.565(2) -0.1563(8) 0.148(10) Uani 1 1 d . U . . .
H45A H 0.5637 0.5253 -0.1856 0.222 Uiso 1 1 calc GR . . . .
H45B H 0.5641 0.6361 -0.1499 0.222 Uiso 1 1 calc GR . . . .
H45C H 0.5401 0.5798 -0.1659 0.222 Uiso 1 1 calc GR . . . .
C46 C 0.6538(2) 0.1885(11) 0.0572(5) 0.040(3) Uani 1 1 d . U . . .
C47 C 0.6709(2) 0.1242(12) 0.0355(5) 0.039(3) Uani 1 1 d . U . . .
H47 H 0.6834 0.1597 0.0181 0.047 Uiso 1 1 calc R . . . .
C48 C 0.6704(2) 0.0104(13) 0.0383(5) 0.047(3) Uani 1 1 d . U . . .
C49 C 0.6509(2) -0.0368(14) 0.0636(5) 0.055(3) Uani 1 1 d . U . . .
H49 H 0.6493 -0.1156 0.0659 0.066 Uiso 1 1 calc R . . . .
C50 C 0.6341(3) 0.0318(15) 0.0850(6) 0.059(3) Uani 1 1 d . U . . .
H50 H 0.6214 -0.0011 0.1028 0.070 Uiso 1 1 calc R . . . .
C51 C 0.6891(3) -0.0616(13) 0.0166(6) 0.062(4) Uani 1 1 d . U . . .
H51A H 0.6960 -0.0255 -0.0148 0.093 Uiso 1 1 calc GR . . . .
H51B H 0.6827 -0.1340 0.0061 0.093 Uiso 1 1 calc GR . . . .
H51C H 0.7008 -0.0726 0.0443 0.093 Uiso 1 1 calc GR . . . .
C52 C 0.8438(2) 0.1897(11) 0.3946(5) 0.045(3) Uani 1 1 d . U . . .
C53 C 0.8613(2) 0.1228(11) 0.4145(5) 0.039(3) Uani 1 1 d . U . . .
H53 H 0.8746 0.1567 0.4291 0.046 Uiso 1 1 calc R . . . .
C54 C 0.8596(2) 0.0074(11) 0.4134(5) 0.042(3) Uani 1 1 d . U . . .
C55 C 0.8407(2) -0.0371(12) 0.3902(5) 0.045(3) Uani 1 1 d . U . . .
H55 H 0.8394 -0.1160 0.3880 0.054 Uiso 1 1 calc R . . . .
C56 C 0.8234(2) 0.0284(11) 0.3697(5) 0.044(3) Uani 1 1 d . U . . .
H56 H 0.8104 -0.0061 0.3540 0.052 Uiso 1 1 calc R . . . .
C57 C 0.8785(2) -0.0636(12) 0.4356(6) 0.056(4) Uani 1 1 d . U . . .
H57A H 0.8910 -0.0684 0.4094 0.083 Uiso 1 1 calc GR . . . .
H57B H 0.8727 -0.1386 0.4431 0.083 Uiso 1 1 calc GR . . . .
H57C H 0.8843 -0.0303 0.4689 0.083 Uiso 1 1 calc GR . . . .
C58 C 0.7506(2) 0.0282(11) 0.4636(5) 0.044(3) Uani 1 1 d . U . . .
H58 H 0.7536 -0.0066 0.4300 0.053 Uiso 1 1 calc R . . . .
C59 C 0.7467(3) -0.0361(13) 0.5067(6) 0.065(4) Uani 1 1 d . U . . .
H59 H 0.7477 -0.1148 0.5032 0.078 Uiso 1 1 calc R . . . .
C60 C 0.7414(4) 0.0090(14) 0.5559(7) 0.085(6) Uani 1 1 d . U . . .
C61 C 0.7419(3) 0.1256(13) 0.5594(7) 0.074(5) Uani 1 1 d . U . . .
H61 H 0.7394 0.1609 0.5931 0.089 Uiso 1 1 calc R . . . .
C62 C 0.7457(2) 0.1873(11) 0.5160(5) 0.041(3) Uani 1 1 d . U . . .
C63 C 0.7357(5) -0.0640(17) 0.6057(8) 0.158(12) Uani 1 1 d . U . . .
H63A H 0.7228 -0.1134 0.5972 0.237 Uiso 1 1 calc GR . . . .
H63B H 0.7316 -0.0158 0.6359 0.237 Uiso 1 1 calc GR . . . .
H63C H 0.7491 -0.1089 0.6153 0.237 Uiso 1 1 calc GR . . . .
P1 P 0.4969(6) 0.2500 0.0922(14) 0.168(7) Uani 0.5 2 d S TU P . .
F1 F 0.5087(9) 0.2500 0.037(2) 0.190(10) Uani 0.5 2 d S TU P . .
F2 F 0.4743(9) 0.2500 0.063(2) 0.182(9) Uani 0.5 2 d S TU P . .
F3 F 0.4835(9) 0.2500 0.140(2) 0.182(9) Uani 0.5 2 d S TU P . .
F4 F 0.5161(9) 0.2500 0.124(2) 0.179(9) Uani 0.5 2 d S TU P . .
F5 F 0.4968(6) 0.374(3) 0.0819(14) 0.183(8) Uani 0.5 1 d . U . . .
P2 P 0.5101(3) 0.7500 0.0970(8) 0.115(5) Uani 0.5 2 d S TU P . .
F6 F 0.4929(6) 0.7500 0.0444(14) 0.123(8) Uani 0.5 2 d S TU P . .
F7 F 0.5006(5) 0.848(3) 0.1197(12) 0.160(8) Uani 0.5 1 d . U . . .
F8 F 0.5274(6) 0.7500 0.1427(15) 0.125(8) Uani 0.5 2 d S TU P . .
F9 F 0.5237(5) 0.661(2) 0.0656(11) 0.144(7) Uani 0.5 1 d . U . . .
P3 P 0.39530(16) 0.7500 0.2014(3) 0.095(2) Uani 1 2 d S TU P . .
F10 F 0.4029(3) 0.7500 0.1398(5) 0.089(4) Uani 1 2 d S TU P . .
F11 F 0.4204(3) 0.7500 0.2193(6) 0.137(6) Uani 1 2 d S TU P . .
F12 F 0.3876(3) 0.7500 0.2636(7) 0.142(6) Uani 1 2 d S TU P . .
F13 F 0.3689(3) 0.7500 0.1829(7) 0.147(6) Uani 1 2 d S TU P . .
F14 F 0.3940(3) 0.6201(12) 0.2017(5) 0.152(4) Uani 1 1 d . U . . .
P4 P 0.44362(16) 0.2500 0.4021(3) 0.059(2) Uani 0.75 2 d S TU P . .
F15 F 0.4412(4) 0.2500 0.3396(7) 0.099(6) Uani 0.75 2 d S TU P . .
F16 F 0.4600(3) 0.3474(15) 0.4020(6) 0.140(5) Uani 0.75 1 d . U . . .
F17 F 0.4268(3) 0.3500(14) 0.4000(6) 0.132(5) Uani 0.75 1 d . U . . .
F18 F 0.4408(5) 0.2500 0.4639(8) 0.114(6) Uani 0.75 2 d S TU P . .
P5 P 0.45020(15) 0.2500 0.6735(5) 0.077(3) Uani 0.75 2 d S TU P . .
F19 F 0.4509(4) 0.2500 0.6066(10) 0.121(6) Uani 0.75 2 d S TU P . .
F20 F 0.4231(3) 0.2500 0.6734(10) 0.111(6) Uani 0.75 2 d S TU P . .
F21 F 0.4506(4) 0.2500 0.7326(11) 0.145(7) Uani 0.75 2 d S TU P . .
F22 F 0.4774(3) 0.2500 0.6698(8) 0.082(5) Uani 0.75 2 d S TU P . .
F23 F 0.4495(3) 0.3754(13) 0.6646(7) 0.122(4) Uani 0.75 1 d . U . . .
P6 P 0.29257(12) 0.2500 0.8337(3) 0.0664(17) Uani 1 2 d S TU P . .
F24 F 0.2986(3) 0.2500 0.7711(5) 0.086(4) Uani 1 2 d S TU P . .
F25 F 0.27389(19) 0.1568(9) 0.8246(4) 0.101(3) Uani 1 1 d . U . . .
F26 F 0.2874(2) 0.2500 0.8965(5) 0.086(4) Uani 1 2 d S TU P . .
F27 F 0.3112(2) 0.3448(10) 0.8415(4) 0.115(4) Uani 1 1 d . U . . .
P7 P 0.4049(2) 0.2500 0.9574(7) 0.077(4) Uani 0.5 2 d DS TU P . .
F28 F 0.3907(6) 0.2500 0.8905(11) 0.127(8) Uani 0.5 2 d DS TU P . .
F29 F 0.3785(5) 0.2500 0.9716(15) 0.117(7) Uani 0.5 2 d S TU P . .
F30 F 0.4055(5) 0.2500 1.0119(15) 0.105(6) Uani 0.5 2 d S TU P . .
F31 F 0.4288(5) 0.2500 0.9445(16) 0.119(8) Uani 0.5 2 d S TU P . .
F32 F 0.4024(4) 0.3702(19) 0.9624(11) 0.117(5) Uani 0.5 1 d . U . . .
P8 P 0.71737(11) 0.2500 0.9005(3) 0.0570(15) Uani 1 2 d S TU P . .
F33 F 0.6952(3) 0.2500 0.8642(7) 0.101(4) Uani 1 2 d S TU P . .
F34 F 0.7079(2) 0.3489(10) 0.9353(5) 0.125(4) Uani 1 1 d . U . . .
F35 F 0.7411(2) 0.2500 0.9316(6) 0.091(4) Uani 1 2 d S TU P . .
F36 F 0.7276(2) 0.1539(9) 0.8643(5) 0.118(4) Uani 1 1 d . U . . .
N14 N 0.4309(5) 0.7500 0.6210(11) 0.138(11) Uani 1 2 d DS TU P . .
C64 C 0.4336(6) 0.7500 0.6679(12) 0.18(2) Uani 1 2 d DS TU P . .
C65 C 0.4335(8) 0.7500 0.7272(12) 0.27(4) Uani 1 2 d DS TU P . .
H65A H 0.4176 0.7536 0.7397 0.400 Uiso 0.5 1 d R . . A -1
H65B H 0.4420 0.8149 0.7407 0.400 Uiso 0.5 1 d R . . A -1
H65C H 0.4407 0.6815 0.7406 0.400 Uiso 0.5 1 d R . . A -1
N15 N 0.3080(5) 0.7500 0.5078(12) 0.123(10) Uani 1 2 d S TU P . .
C66 C 0.3196(5) 0.7500 0.4737(14) 0.106(11) Uani 1 2 d S TU P . .
C67 C 0.3385(6) 0.7500 0.4265(14) 0.151(15) Uani 1 2 d S TU P . .
H67A H 0.3414 0.8268 0.4149 0.226 Uiso 0.5 1 calc GR . . B -1
H67B H 0.3327 0.7065 0.3960 0.226 Uiso 0.5 1 calc GR . . B -1
H67C H 0.3527 0.7167 0.4397 0.226 Uiso 0.5 1 calc GR . . B -1
loop_
_atom_site_aniso_label
_atom_site_aniso_U_11
_atom_site_aniso_U_22
_atom_site_aniso_U_33
_atom_site_aniso_U_23
_atom_site_aniso_U_13
_atom_site_aniso_U_12
Pd1 0.0387(9) 0.0814(12) 0.0236(8) 0.000 0.0008(6) 0.000
Pd2 0.0280(7) 0.0542(10) 0.0307(8) 0.000 -0.0013(6) 0.000
Pd3 0.0254(9) 0.221(3) 0.0345(10) 0.000 -0.0050(7) 0.000
Pd4 0.0232(8) 0.1451(18) 0.0284(9) 0.000 0.0008(6) 0.000
Pd5 0.0211(7) 0.0428(9) 0.0479(10) 0.000 -0.0002(6) 0.000
Pd6 0.0254(7) 0.0360(8) 0.0366(8) 0.000 -0.0029(6) 0.000
N1 0.039(5) 0.072(7) 0.028(4) -0.008(4) -0.003(4) -0.008(5)
N2 0.032(5) 0.061(6) 0.034(4) -0.005(4) -0.004(3) 0.001(4)
N3 0.052(5) 0.144(7) 0.060(6) -0.004(5) -0.007(4) 0.017(5)
N4 0.046(5) 0.125(7) 0.057(6) -0.010(5) -0.004(4) 0.014(5)
N5 0.021(4) 0.048(6) 0.040(5) 0.006(4) -0.001(3) 0.005(4)
N6 0.022(4) 0.031(5) 0.042(5) 0.005(4) -0.002(3) 0.003(3)
N7 0.031(4) 0.051(6) 0.041(4) 0.002(4) 0.002(3) 0.004(4)
N8 0.033(5) 0.074(6) 0.024(5) -0.002(5) -0.008(4) -0.004(4)
N9 0.037(5) 0.051(5) 0.030(5) -0.004(4) -0.002(4) -0.005(4)
N10 0.030(6) 0.175(9) 0.044(5) -0.022(5) -0.006(5) 0.015(7)
N11 0.034(5) 0.091(6) 0.026(6) 0.014(5) -0.005(4) -0.014(4)
N12 0.026(4) 0.038(4) 0.053(6) -0.003(4) -0.003(4) 0.002(4)
N13 0.026(5) 0.031(4) 0.040(5) 0.007(3) -0.009(4) -0.001(4)
C1 0.061(8) 0.103(10) 0.039(6) -0.015(6) -0.003(5) -0.031(8)
C2 0.054(7) 0.090(10) 0.051(6) -0.009(6) -0.002(5) -0.022(7)
C3 0.038(6) 0.069(8) 0.042(5) -0.004(4) -0.001(4) -0.006(6)
C4 0.031(5) 0.049(7) 0.038(5) -0.003(4) -0.004(4) 0.004(5)
C5 0.079(7) 0.107(9) 0.065(6) -0.020(5) 0.016(5) -0.042(6)
C6 0.062(6) 0.083(8) 0.057(5) -0.017(5) 0.013(4) -0.031(6)
C7 0.037(5) 0.043(7) 0.044(5) 0.002(4) 0.004(4) 0.000(5)
C8 0.069(6) 0.089(8) 0.053(6) -0.010(5) 0.006(4) -0.035(6)
C9 0.067(7) 0.084(8) 0.051(5) -0.009(5) 0.001(4) -0.032(6)
C10 0.071(6) 0.146(9) 0.082(7) -0.010(7) -0.007(5) 0.024(6)
C11 0.070(6) 0.142(9) 0.091(8) -0.016(7) -0.010(5) 0.028(6)
C12 0.057(6) 0.120(8) 0.067(6) -0.013(6) -0.006(5) 0.020(5)
C13 0.051(5) 0.100(8) 0.062(6) -0.008(5) -0.001(4) 0.019(5)
C14 0.056(6) 0.101(8) 0.062(6) -0.010(5) -0.010(5) 0.025(6)
C15 0.049(5) 0.088(8) 0.060(6) -0.009(6) -0.005(4) 0.022(5)
C16 0.035(5) 0.057(8) 0.041(5) 0.003(5) 0.003(4) 0.001(5)
C17 0.044(6) 0.072(9) 0.052(6) -0.007(6) -0.002(5) 0.016(6)
C18 0.051(5) 0.099(8) 0.056(6) -0.013(6) -0.002(4) 0.020(5)
C19 0.027(5) 0.062(8) 0.041(6) 0.014(5) 0.000(4) 0.003(5)
C20 0.030(5) 0.056(8) 0.044(6) 0.020(6) -0.002(4) 0.007(5)
C21 0.032(4) 0.042(7) 0.042(6) 0.010(5) -0.001(4) 0.004(4)
C22 0.033(4) 0.034(6) 0.034(6) 0.005(5) -0.002(4) -0.002(4)
C23 0.041(5) 0.069(7) 0.067(7) 0.036(6) 0.008(4) 0.009(5)
C24 0.047(5) 0.084(8) 0.074(7) 0.039(6) 0.013(4) 0.012(5)
C25 0.033(4) 0.046(7) 0.033(6) 0.001(5) 0.005(3) 0.002(4)
C26 0.044(5) 0.085(8) 0.066(7) 0.033(6) 0.012(4) 0.009(5)
C27 0.046(5) 0.082(8) 0.070(7) 0.039(6) 0.009(4) 0.008(5)
C28 0.046(6) 0.062(7) 0.040(7) -0.007(5) 0.007(5) -0.002(5)
C29 0.047(7) 0.075(7) 0.080(10) -0.017(7) 0.023(7) -0.003(6)
C30 0.060(7) 0.075(7) 0.083(10) -0.018(7) 0.013(7) -0.003(6)
C31 0.052(7) 0.076(7) 0.063(9) -0.013(6) -0.005(6) -0.004(6)
C32 0.054(7) 0.073(6) 0.046(8) -0.001(5) -0.001(6) -0.004(5)
C33 0.107(13) 0.086(11) 0.21(2) -0.025(12) 0.082(15) 0.002(10)
C34 0.042(6) 0.047(6) 0.046(7) 0.002(5) -0.007(5) -0.003(5)
C35 0.038(6) 0.040(5) 0.053(8) 0.003(5) -0.009(5) -0.005(4)
C36 0.047(6) 0.039(5) 0.056(8) 0.002(5) -0.007(5) -0.001(5)
C37 0.053(7) 0.047(6) 0.060(8) -0.001(5) -0.009(6) -0.007(5)
C38 0.043(6) 0.051(5) 0.053(8) -0.001(5) -0.002(6) -0.007(5)
C39 0.060(8) 0.055(8) 0.072(10) 0.009(7) -0.019(7) 0.003(7)
C40 0.030(8) 0.172(9) 0.067(8) -0.027(6) -0.001(7) 0.016(8)
C41 0.078(12) 0.154(10) 0.074(8) -0.029(7) -0.017(8) 0.013(9)
C42 0.083(12) 0.137(10) 0.071(8) -0.020(7) -0.016(7) 0.014(9)
C43 0.096(13) 0.139(10) 0.045(7) -0.018(7) -0.021(7) 0.014(9)
C44 0.038(7) 0.147(10) 0.044(6) -0.014(6) -0.010(5) 0.014(7)
C45 0.22(3) 0.135(14) 0.085(10) -0.011(10) -0.038(12) -0.005(15)
C46 0.029(5) 0.070(6) 0.022(6) 0.014(5) -0.004(4) -0.004(4)
C47 0.030(5) 0.062(6) 0.025(6) 0.013(5) 0.002(5) -0.012(4)
C48 0.044(6) 0.062(6) 0.037(7) 0.015(5) 0.000(5) -0.012(5)
C49 0.052(6) 0.080(7) 0.032(7) 0.020(6) -0.004(5) -0.021(5)
C50 0.047(6) 0.089(6) 0.040(8) 0.016(6) -0.004(5) -0.020(5)
C51 0.061(7) 0.061(8) 0.065(10) 0.012(7) 0.002(7) -0.004(6)
C52 0.027(5) 0.050(6) 0.059(8) -0.002(5) -0.004(5) 0.001(4)
C53 0.027(5) 0.046(5) 0.043(7) -0.004(5) 0.005(5) 0.004(4)
C54 0.030(5) 0.044(5) 0.050(8) -0.006(5) 0.003(5) 0.005(4)
C55 0.035(5) 0.041(6) 0.058(8) -0.005(5) -0.002(5) 0.006(4)
C56 0.035(6) 0.037(5) 0.059(8) -0.007(5) -0.001(5) 0.004(4)
C57 0.035(6) 0.051(8) 0.080(10) -0.004(7) -0.005(6) 0.009(6)
C58 0.060(9) 0.031(5) 0.042(6) 0.005(4) -0.010(5) -0.002(5)
C59 0.107(12) 0.036(6) 0.052(6) 0.014(5) 0.004(7) -0.004(7)
C60 0.154(17) 0.046(6) 0.055(7) 0.010(5) 0.017(8) -0.013(7)
C61 0.120(14) 0.046(6) 0.055(7) 0.008(5) 0.017(7) -0.009(7)
C62 0.037(7) 0.042(6) 0.044(5) 0.003(4) -0.004(5) -0.015(5)
C63 0.34(4) 0.073(11) 0.065(10) 0.015(8) 0.059(14) -0.027(15)
P1 0.163(9) 0.163(10) 0.179(9) 0.000 -0.005(6) 0.000
F1 0.187(12) 0.194(13) 0.191(10) 0.000 0.000(7) 0.000
F2 0.177(10) 0.181(13) 0.188(11) 0.000 -0.007(7) 0.000
F3 0.178(11) 0.181(13) 0.188(10) 0.000 -0.001(7) 0.000
F4 0.173(10) 0.179(13) 0.185(11) 0.000 -0.005(7) 0.000
F5 0.174(11) 0.176(9) 0.197(11) 0.004(6) -0.006(8) -0.001(6)
P2 0.095(7) 0.134(8) 0.116(7) 0.000 0.001(6) 0.000
F6 0.112(10) 0.133(11) 0.124(10) 0.000 -0.001(7) 0.000
F7 0.158(11) 0.167(10) 0.154(10) -0.021(7) -0.016(8) 0.027(7)
F8 0.116(10) 0.135(11) 0.124(10) 0.000 -0.004(7) 0.000
F9 0.136(10) 0.152(10) 0.144(10) -0.011(7) -0.005(7) 0.015(7)
P3 0.131(6) 0.098(5) 0.055(4) 0.000 -0.037(4) 0.000
F10 0.114(9) 0.095(9) 0.059(6) 0.000 -0.043(5) 0.000
F11 0.140(8) 0.211(15) 0.059(8) 0.000 -0.051(6) 0.000
F12 0.165(12) 0.190(15) 0.071(7) 0.000 -0.027(6) 0.000
F13 0.138(8) 0.212(16) 0.091(10) 0.000 -0.034(7) 0.000
F14 0.222(11) 0.124(7) 0.109(8) 0.017(5) -0.019(7) -0.009(6)
P4 0.087(6) 0.039(4) 0.052(4) 0.000 -0.017(4) 0.000
F15 0.133(14) 0.098(12) 0.067(7) 0.000 -0.024(7) 0.000
F16 0.194(10) 0.146(10) 0.080(9) 0.022(7) -0.036(8) -0.063(8)
F17 0.196(10) 0.102(9) 0.099(9) 0.014(7) -0.010(8) 0.041(8)
F18 0.212(18) 0.058(10) 0.070(7) 0.000 -0.006(7) 0.000
P5 0.050(4) 0.062(5) 0.119(7) 0.000 0.022(4) 0.000
F19 0.097(11) 0.128(14) 0.137(8) 0.000 0.009(7) 0.000
F20 0.065(7) 0.087(12) 0.181(14) 0.000 0.019(7) 0.000
F21 0.092(11) 0.213(18) 0.131(8) 0.000 0.028(7) 0.000
F22 0.061(6) 0.079(11) 0.106(11) 0.000 0.021(6) 0.000
F23 0.088(8) 0.091(6) 0.187(11) 0.006(6) 0.046(8) 0.008(5)
P6 0.088(4) 0.057(4) 0.054(4) 0.000 -0.002(3) 0.000
F24 0.115(10) 0.080(9) 0.064(6) 0.000 0.005(6) 0.000
F25 0.118(7) 0.088(7) 0.096(7) -0.009(5) 0.003(6) -0.028(6)
F26 0.090(9) 0.103(10) 0.065(6) 0.000 -0.008(5) 0.000
F27 0.129(8) 0.105(7) 0.110(7) -0.031(6) 0.015(6) -0.029(6)
P7 0.059(6) 0.044(6) 0.127(10) 0.000 -0.013(7) 0.000
F28 0.119(15) 0.108(19) 0.155(12) 0.000 -0.014(10) 0.000
F29 0.080(8) 0.102(15) 0.170(15) 0.000 -0.008(9) 0.000
F30 0.078(11) 0.091(14) 0.145(11) 0.000 -0.003(9) 0.000
F31 0.081(8) 0.103(17) 0.172(17) 0.000 0.003(9) 0.000
F32 0.086(10) 0.080(7) 0.185(14) -0.003(6) -0.036(9) -0.002(6)
P8 0.066(4) 0.040(3) 0.065(4) 0.000 0.005(3) 0.000
F33 0.101(8) 0.072(9) 0.131(10) 0.000 -0.033(7) 0.000
F34 0.108(8) 0.116(8) 0.149(9) -0.062(7) -0.009(7) 0.036(6)
F35 0.080(7) 0.078(9) 0.115(9) 0.000 -0.013(6) 0.000
F36 0.139(8) 0.088(7) 0.126(8) -0.036(6) -0.012(6) 0.040(6)
N14 0.15(2) 0.17(3) 0.100(17) 0.000 0.028(18) 0.000
C64 0.09(2) 0.35(7) 0.104(17) 0.000 0.032(18) 0.000
C65 0.16(4) 0.54(11) 0.099(18) 0.000 0.030(19) 0.000
N15 0.097(19) 0.17(3) 0.10(2) 0.000 -0.003(13) 0.000
C66 0.076(18) 0.15(3) 0.09(2) 0.000 -0.018(12) 0.000
C67 0.10(2) 0.23(4) 0.12(2) 0.000 0.012(17) 0.000
loop_
_atom_type_symbol
_atom_type_description
_atom_type_scat_dispersion_real
_atom_type_scat_dispersion_imag
_atom_type_scat_source
C C 0.0033 0.0016 'International Tables Vol C Tables 4.2.6.8 and 6.1.1.4'
H H 0.0000 0.0000 'International Tables Vol C Tables 4.2.6.8 and 6.1.1.4'
F F 0.0171 0.0103 'International Tables Vol C Tables 4.2.6.8 and 6.1.1.4'
N N 0.0061 0.0033 'International Tables Vol C Tables 4.2.6.8 and 6.1.1.4'
P P 0.1023 0.0942 'International Tables Vol C Tables 4.2.6.8 and 6.1.1.4'
Pd Pd -0.9988 1.0072 'International Tables Vol C Tables 4.2.6.8 and 6.1.1.4'
loop_
_geom_angle_atom_site_label_1
_geom_angle_atom_site_label_2
_geom_angle_atom_site_label_3
_geom_angle
_geom_angle_site_symmetry_1
_geom_angle_site_symmetry_3
N1 Pd1 Pd2 62.9(3) 7_565 .
N1 Pd1 Pd2 62.9(3) . .
N1 Pd1 N1 87.2(7) 7_565 .
N1 Pd1 N8 176.9(5) . 7_565
N1 Pd1 N8 95.9(5) 7_565 7_565
N1 Pd1 N8 176.9(5) 7_565 .
N1 Pd1 N8 95.9(5) . .
N8 Pd1 Pd2 118.6(3) . .
N8 Pd1 Pd2 118.6(3) 7_565 .
N8 Pd1 N8 81.0(7) 7_565 .
N2 Pd2 Pd1 64.5(3) . .
N2 Pd2 Pd1 64.5(3) 7_565 .
N2 Pd2 N2 83.8(6) . 7_565
N2 Pd2 N9 98.2(4) 7_565 7_565
N2 Pd2 N9 98.2(4) . .
N2 Pd2 N9 176.4(4) 7_565 .
N2 Pd2 N9 176.4(4) . 7_565
N9 Pd2 Pd1 113.6(3) . .
N9 Pd2 Pd1 113.6(3) 7_565 .
N9 Pd2 N9 79.7(6) . 7_565
N3 Pd3 Pd4 62.2(4) 7_565 .
N3 Pd3 Pd4 62.2(4) . .
N3 Pd3 N3 86.3(9) 7_565 .
N3 Pd3 N10 96.0(7) 7_565 7_565
N3 Pd3 N10 177.7(7) . 7_565
N3 Pd3 N10 177.7(7) 7_565 .
N3 Pd3 N10 96.0(7) . .
N10 Pd3 Pd4 119.0(4) 7_565 .
N10 Pd3 Pd4 119.0(4) . .
N10 Pd3 N10 81.7(10) . 7_565
N4 Pd4 Pd3 64.5(4) 7_565 .
N4 Pd4 Pd3 64.5(4) . .
N4 Pd4 N4 85.0(9) 7_565 .
N4 Pd4 N11 176.6(5) . .
N4 Pd4 N11 96.6(6) 7_565 .
N4 Pd4 N11 176.6(5) 7_565 7_565
N4 Pd4 N11 96.6(6) . 7_565
N11 Pd4 Pd3 113.4(3) 7_565 .
N11 Pd4 Pd3 113.4(3) . .
N11 Pd4 N11 81.6(7) . 7_565
N5 Pd5 Pd6 63.0(3) . .
N5 Pd5 Pd6 63.0(3) 7_565 .
N5 Pd5 N5 86.6(6) . 7_565
N5 Pd5 N12 95.8(4) 7_565 .
N5 Pd5 N12 95.8(4) . 7_565
N5 Pd5 N12 177.1(4) 7_565 7_565
N5 Pd5 N12 177.1(4) . .
N12 Pd5 Pd6 116.8(3) 7_565 .
N12 Pd5 Pd6 116.8(3) . .
N12 Pd5 N12 81.7(6) 7_565 .
N6 Pd6 Pd5 64.4(3) 7_565 .
N6 Pd6 Pd5 64.4(3) . .
N6 Pd6 N6 85.3(6) 7_565 .
N13 Pd6 Pd5 115.9(3) . .
N13 Pd6 Pd5 115.9(3) 7_565 .
N13 Pd6 N6 177.8(4) 7_565 7_565
N13 Pd6 N6 96.8(4) . 7_565
N13 Pd6 N6 96.8(4) 7_565 .
N13 Pd6 N6 177.8(4) . .
N13 Pd6 N13 81.1(6) 7_565 .
N2 N1 Pd1 118.6(8) . .
C1 N1 Pd1 132.8(10) . .
C1 N1 N2 107.3(11) . .
N1 N2 Pd2 113.7(8) . .
C3 N2 Pd2 137.4(9) . .
C3 N2 N1 108.6(10) . .
N4 N3 Pd3 119.4(12) . .
C10 N3 Pd3 131.2(12) . .
C10 N3 N4 108.8(15) . .
N3 N4 Pd4 113.7(11) . .
C12 N4 Pd4 139.0(11) . .
C12 N4 N3 107.3(13) . .
N6 N5 Pd5 118.2(7) . .
C19 N5 Pd5 131.6(8) . .
C19 N5 N6 108.2(9) . .
N5 N6 Pd6 114.2(7) . .
C21 N6 Pd6 137.5(8) . .
C21 N6 N5 107.6(9) . .
C7 N7 C16 119.9(10) . .
C25 N7 C7 120.4(10) . .
C25 N7 C16 117.7(10) . .
C28 N8 Pd1 114.5(10) . .
C32 N8 Pd1 127.6(10) . .
C32 N8 C28 117.9(13) . .
C34 N9 Pd2 115.7(9) . .
C34 N9 C38 118.4(12) . .
C38 N9 Pd2 125.9(9) . .
C40 N10 Pd3 128.5(13) . .
C44 N10 Pd3 114.4(15) . .
C44 N10 C40 117.0(17) . .
C46 N11 Pd4 114.2(10) . .
C50 N11 Pd4 126.5(10) . .
C50 N11 C46 119.3(13) . .
C52 N12 Pd5 114.1(8) . .
C56 N12 Pd5 127.3(9) . .
C56 N12 C52 118.6(11) . .
C58 N13 Pd6 127.8(9) . .
C58 N13 C62 116.2(11) . .
C62 N13 Pd6 115.8(8) . .
N1 C1 H1 124.1 . .
N1 C1 C2 111.7(13) . .
C2 C1 H1 124.1 . .
C1 C2 H2 127.6 . .
C1 C2 C3 104.7(13) . .
C3 C2 H2 127.6 . .
N2 C3 C2 107.6(12) . .
N2 C3 C4 123.9(12) . .
C2 C3 C4 128.5(13) . .
C5 C4 C3 121.5(13) . .
C9 C4 C3 120.9(13) . .
C9 C4 C5 117.3(14) . .
C4 C5 H5 118.3 . .
C6 C5 C4 123.5(16) . .
C6 C5 H5 118.3 . .
C5 C6 H6 119.4 . .
C5 C6 C7 121.1(15) . .
C7 C6 H6 119.4 . .
C6 C7 N7 121.1(12) . .
C8 C7 N7 122.0(13) . .
C8 C7 C6 116.9(13) . .
C7 C8 H8 119.2 . .
C7 C8 C9 121.6(14) . .
C9 C8 H8 119.2 . .
C4 C9 C8 119.5(14) . .
C4 C9 H9 120.2 . .
C8 C9 H9 120.2 . .
N3 C10 H10 125.2 . .
N3 C10 C11 109.6(17) . .
C11 C10 H10 125.2 . .
C10 C11 H11 128.0 . .
C12 C11 C10 104.0(18) . .
C12 C11 H11 128.0 . .
N4 C12 C11 110.1(16) . .
N4 C12 C13 123.2(15) . .
C11 C12 C13 126.4(17) . .
C14 C13 C12 118.7(14) . .
C18 C13 C12 123.4(15) . .
C18 C13 C14 117.8(15) . .
C13 C14 H14 119.7 . .
C15 C14 C13 120.6(15) . .
C15 C14 H14 119.7 . .
C14 C15 H15 120.4 . .
C14 C15 C16 119.1(15) . .
C16 C15 H15 120.4 . .
C15 C16 N7 117.6(12) . .
C17 C16 N7 123.0(12) . .
C17 C16 C15 119.2(13) . .
C16 C17 H17 119.2 . .
C16 C17 C18 121.6(14) . .
C18 C17 H17 119.2 . .
C13 C18 H18 119.4 . .
C17 C18 C13 121.3(15) . .
C17 C18 H18 119.4 . .
N5 C19 H19 125.7 . .
C20 C19 N5 108.7(11) . .
C20 C19 H19 125.7 . .
C19 C20 H20 126.1 . .
C19 C20 C21 107.7(11) . .
C21 C20 H20 126.1 . .
N6 C21 C20 107.8(11) . .
N6 C21 C22 123.3(11) . .
C20 C21 C22 128.8(11) . .
C23 C22 C21 119.8(11) . .
C27 C22 C21 125.0(12) . .
C27 C22 C23 115.2(12) . .
C22 C23 H23 118.8 . .
C22 C23 C24 122.4(13) . .
C24 C23 H23 118.8 . .
C23 C24 H24 119.7 . .
C25 C24 C23 120.6(14) . .
C25 C24 H24 119.7 . .
C24 C25 N7 121.4(12) . .
C24 C25 C26 117.3(12) . .
C26 C25 N7 121.3(12) . .
C25 C26 H26 120.1 . .
C25 C26 C27 119.7(14) . .
C27 C26 H26 120.1 . .
C22 C27 C26 124.5(14) . .
C22 C27 H27 117.7 . .
C26 C27 H27 117.7 . .
N8 C28 C28 114.9(8) . 7_565
N8 C28 C29 120.0(14) . .
C29 C28 C28 124.8(9) . 7_565
C28 C29 H29 119.7 . .
C30 C29 C28 120.6(16) . .
C30 C29 H29 119.7 . .
C29 C30 C31 118.8(16) . .
C29 C30 C33 122.6(17) . .
C31 C30 C33 118.6(16) . .
C30 C31 H31 121.1 . .
C32 C31 C30 117.7(16) . .
C32 C31 H31 121.1 . .
N8 C32 C31 124.8(16) . .
N8 C32 H32 117.6 . .
C31 C32 H32 117.6 . .
C30 C33 H33A 109.5 . .
C30 C33 H33B 109.5 . .
C30 C33 H33C 109.5 . .
H33A C33 H33B 109.5 . .
H33A C33 H33C 109.5 . .
H33B C33 H33C 109.5 . .
N9 C34 C34 114.5(7) . 7_565
N9 C34 C35 121.7(12) . .
C35 C34 C34 123.8(8) . 7_565
C34 C35 H35 119.3 . .
C34 C35 C36 121.5(13) . .
C36 C35 H35 119.3 . .
C35 C36 C39 124.2(13) . .
C37 C36 C35 116.3(13) . .
C37 C36 C39 119.4(13) . .
C36 C37 H37 120.1 . .
C38 C37 C36 119.8(14) . .
C38 C37 H37 120.1 . .
N9 C38 C37 122.2(13) . .
N9 C38 H38 118.9 . .
C37 C38 H38 118.9 . .
C36 C39 H39A 109.5 . .
C36 C39 H39B 109.5 . .
C36 C39 H39C 109.5 . .
H39A C39 H39B 109.5 . .
H39A C39 H39C 109.5 . .
H39B C39 H39C 109.5 . .
N10 C40 C41 122.5(19) . .
C40 C41 H41 118.4 . .
C42 C41 C40 123(2) . .
C42 C41 H41 118.4 . .
C41 C42 C43 114(2) . .
C41 C42 C45 124(2) . .
C43 C42 C45 121.6(19) . .
C42 C43 H43 119.3 . .
C42 C43 C44 121.4(18) . .
C44 C43 H43 119.3 . .
N10 C44 C43 121.1(18) . .
N10 C44 C44 114.7(12) . 7_565
C43 C44 C44 124.2(11) . 7_565
C42 C45 H45A 109.5 . .
C42 C45 H45B 109.5 . .
C42 C45 H45C 109.5 . .
H45A C45 H45B 109.5 . .
H45A C45 H45C 109.5 . .
H45B C45 H45C 109.5 . .
N11 C46 C46 115.0(8) . 7_565
C47 C46 N11 120.7(13) . .
C47 C46 C46 124.2(8) . 7_565
C46 C47 H47 119.1 . .
C48 C47 C46 121.7(12) . .
C48 C47 H47 119.1 . .
C47 C48 C49 116.0(14) . .
C47 C48 C51 123.0(12) . .
C49 C48 C51 121.0(14) . .
C48 C49 H49 120.0 . .
C50 C49 C48 119.9(15) . .
C50 C49 H49 120.0 . .
N11 C50 C49 122.2(15) . .
N11 C50 H50 118.9 . .
C49 C50 H50 118.9 . .
C48 C51 H51A 109.5 . .
C48 C51 H51B 109.5 . .
C48 C51 H51C 109.5 . .
H51A C51 H51B 109.5 . .
H51A C51 H51C 109.5 . .
H51B C51 H51C 109.5 . .
N12 C52 C52 115.1(7) . 7_565
C53 C52 N12 119.6(12) . .
C53 C52 C52 125.3(8) . 7_565
C52 C53 H53 119.4 . .
C52 C53 C54 121.2(12) . .
C54 C53 H53 119.4 . .
C53 C54 C57 120.4(12) . .
C55 C54 C53 117.4(13) . .
C55 C54 C57 122.2(13) . .
C54 C55 H55 119.0 . .
C54 C55 C56 121.9(13) . .
C56 C55 H55 119.0 . .
N12 C56 C55 121.2(13) . .
N12 C56 H56 119.4 . .
C55 C56 H56 119.4 . .
C54 C57 H57A 109.5 . .
C54 C57 H57B 109.5 . .
C54 C57 H57C 109.5 . .
H57A C57 H57B 109.5 . .
H57A C57 H57C 109.5 . .
H57B C57 H57C 109.5 . .
N13 C58 H58 118.8 . .
C59 C58 N13 122.3(13) . .
C59 C58 H58 118.8 . .
C58 C59 H59 119.1 . .
C58 C59 C60 121.7(14) . .
C60 C59 H59 119.1 . .
C59 C60 C61 116.3(15) . .
C59 C60 C63 122.5(15) . .
C61 C60 C63 121.2(16) . .
C60 C61 H61 119.7 . .
C62 C61 C60 120.6(16) . .
C62 C61 H61 119.7 . .
N13 C62 C62 113.4(7) . 7_565
C61 C62 N13 122.8(13) . .
C61 C62 C62 123.8(9) . 7_565
C60 C63 H63A 109.5 . .
C60 C63 H63B 109.5 . .
C60 C63 H63C 109.5 . .
H63A C63 H63B 109.5 . .
H63A C63 H63C 109.5 . .
H63B C63 H63C 109.5 . .
F2 P1 F1 88(3) . .
F2 P1 F5 85(2) . .
F2 P1 F5 85(2) . 7_565
F3 P1 F1 174(4) . .
F3 P1 F2 86(3) . .
F3 P1 F5 98(2) . 7_565
F3 P1 F5 98(2) . .
F4 P1 F1 99(4) . .
F4 P1 F2 173(4) . .
F4 P1 F3 88(4) . .
F4 P1 F5 96(2) . .
F4 P1 F5 96(2) . 7_565
F5 P1 F1 81(2) 7_565 .
F5 P1 F1 81(2) . .
F5 P1 F5 160(4) 7_565 .
F7 P2 F6 94.5(17) . .
F7 P2 F6 94.5(17) 7_575 .
F7 P2 F7 112(3) . 7_575
F7 P2 F8 87.7(17) . .
F7 P2 F8 87.7(17) 7_575 .
F7 P2 F9 80.0(17) 7_575 .
F7 P2 F9 168(2) . .
F7 P2 F9 80.0(17) . 7_575
F7 P2 F9 168(2) 7_575 7_575
F8 P2 F6 176(2) . .
F8 P2 F9 92.3(17) . 7_575
F8 P2 F9 92.3(17) . .
F9 P2 F6 84.8(16) 7_575 .
F9 P2 F6 84.8(16) . .
F9 P2 F9 88(2) 7_575 .
F10 P3 F12 179.9(11) . .
F10 P3 F13 89.4(9) . .
F11 P3 F10 91.0(10) . .
F11 P3 F12 89.1(10) . .
F11 P3 F13 179.6(11) . .
F11 P3 F14 92.6(7) . 7_575
F11 P3 F14 92.6(7) . .
F13 P3 F12 90.5(11) . .
F14 P3 F10 91.1(6) . .
F14 P3 F10 91.1(6) 7_575 .
F14 P3 F12 88.9(6) . .
F14 P3 F12 88.9(6) 7_575 .
F14 P3 F13 87.4(7) 7_575 .
F14 P3 F13 87.4(7) . .
F14 P3 F14 174.3(15) . 7_575
F16 P4 F15 93.3(9) . .
F16 P4 F15 93.3(9) 7_565 .
F16 P4 F16 101.3(17) 7_565 .
F16 P4 F17 78.6(10) . .
F16 P4 F17 178.0(10) 7_565 .
F16 P4 F17 178.0(10) . 7_565
F16 P4 F17 78.6(10) 7_565 7_565
F16 P4 F18 93.9(9) 7_565 .
F16 P4 F18 93.9(9) . .
F17 P4 F15 84.7(8) 7_565 .
F17 P4 F15 84.7(8) . .
F17 P4 F17 101.3(16) 7_565 .
F18 P4 F15 168.7(15) . .
F18 P4 F17 88.1(9) . 7_565
F18 P4 F17 88.1(9) . .
F20 P5 F19 91.4(13) . .
F20 P5 F22 176.6(14) . .
F21 P5 F19 177.7(14) . .
F21 P5 F20 91.0(14) . .
F21 P5 F22 92.4(13) . .
F21 P5 F23 98.4(8) . .
F21 P5 F23 98.4(8) . 7_565
F22 P5 F19 85.2(11) . .
F23 P5 F19 81.7(8) 7_565 .
F23 P5 F19 81.7(8) . .
F23 P5 F20 88.4(7) . .
F23 P5 F20 88.4(7) 7_565 .
F23 P5 F22 91.1(7) . .
F23 P5 F22 91.1(7) 7_565 .
F23 P5 F23 163.0(17) 7_565 .
F25 P6 F24 90.7(6) 7_565 .
F25 P6 F24 90.7(6) . .
F25 P6 F25 90.2(9) . 7_565
F25 P6 F26 90.7(6) 7_565 .
F25 P6 F26 90.7(6) . .
F25 P6 F27 88.9(6) . 7_565
F25 P6 F27 88.9(6) 7_565 .
F25 P6 F27 178.6(8) 7_565 7_565
F25 P6 F27 178.6(8) . .
F26 P6 F24 178.1(9) . .
F27 P6 F24 88.2(6) . .
F27 P6 F24 88.2(6) 7_565 .
F27 P6 F26 90.5(6) . .
F27 P6 F26 90.5(6) 7_565 .
F27 P6 F27 91.9(10) 7_565 .
F29 P7 F28 76.6(18) . .
F30 P7 F28 155(2) . .
F30 P7 F29 79(2) . .
F30 P7 F31 102(2) . .
F30 P7 F32 85.3(13) . 7_565
F30 P7 F32 85.3(13) . .
F31 P7 F28 103(2) . .
F31 P7 F29 180(2) . .
F31 P7 F32 96.7(11) . .
F31 P7 F32 96.7(11) . 7_565
F32 P7 F28 91.8(12) 7_565 .
F32 P7 F28 91.8(12) . .
F32 P7 F29 83.3(11) 7_565 .
F32 P7 F29 83.3(11) . .
F32 P7 F32 165(2) 7_565 .
F33 P8 F35 174.2(10) . .
F33 P8 F36 89.0(7) . 7_565
F33 P8 F36 89.0(7) . .
F34 P8 F33 91.7(7) 7_565 .
F34 P8 F33 91.7(7) . .
F34 P8 F34 98.2(11) . 7_565
F34 P8 F35 92.1(6) . .
F34 P8 F35 92.1(6) 7_565 .
F34 P8 F36 177.5(8) 7_565 7_565
F34 P8 F36 84.1(7) . 7_565
F34 P8 F36 84.1(7) 7_565 .
F34 P8 F36 177.5(8) . .
F36 P8 F35 87.0(6) . .
F36 P8 F35 87.0(6) 7_565 .
F36 P8 F36 93.6(10) . 7_565
N14 C64 C65 172(4) . .
C64 C65 H65A 108.6 . .
C64 C65 H65B 110.0 . .
C64 C65 H65C 109.9 . .
H65A C65 H65B 109.4 . .
H65A C65 H65C 109.5 . .
H65B C65 H65C 109.5 . .
N15 C66 C67 175(4) . .
C66 C67 H67A 109.5 . .
C66 C67 H67B 109.5 . .
C66 C67 H67C 109.5 . .
H67A C67 H67B 109.5 . .
H67A C67 H67C 109.5 . .
H67B C67 H67C 109.5 . .
loop_
_geom_bond_atom_site_label_1
_geom_bond_atom_site_label_2
_geom_bond_distance
_geom_bond_site_symmetry_2
Pd1 Pd2 3.144(2) .
Pd1 N1 1.996(11) .
Pd1 N1 1.995(11) 7_565
Pd1 N8 2.006(11) 7_565
Pd1 N8 2.006(11) .
Pd2 N2 2.011(11) .
Pd2 N2 2.011(11) 7_565
Pd2 N9 2.017(11) .
Pd2 N9 2.017(11) 7_565
Pd3 Pd4 3.161(2) .
Pd3 N3 1.980(16) .
Pd3 N3 1.980(16) 7_565
Pd3 N10 1.983(17) .
Pd3 N10 1.983(17) 7_565
Pd4 N4 1.987(14) 7_565
Pd4 N4 1.987(14) .
Pd4 N11 2.015(13) 7_565
Pd4 N11 2.015(13) .
Pd5 Pd6 3.1510(19) .
Pd5 N5 1.997(10) 7_565
Pd5 N5 1.997(10) .
Pd5 N12 2.006(10) .
Pd5 N12 2.006(10) 7_565
Pd6 N6 2.007(10) .
Pd6 N6 2.007(10) 7_565
Pd6 N13 2.004(10) 7_565
Pd6 N13 2.004(10) .
N1 N2 1.374(13) .
N1 C1 1.312(17) .
N2 C3 1.354(16) .
N3 N4 1.387(16) .
N3 C10 1.33(2) .
N4 C12 1.37(2) .
N5 N6 1.380(12) .
N5 C19 1.353(15) .
N6 C21 1.356(15) .
N7 C7 1.411(15) .
N7 C16 1.423(15) .
N7 C25 1.408(15) .
N8 C28 1.372(16) .
N8 C32 1.330(18) .
N9 C34 1.343(15) .
N9 C38 1.372(17) .
N10 C40 1.35(3) .
N10 C44 1.345(19) .
N11 C46 1.371(15) .
N11 C50 1.303(19) .
N12 C52 1.388(15) .
N12 C56 1.348(16) .
N13 C58 1.358(16) .
N13 C62 1.385(15) .
C1 H1 0.9500 .
C1 C2 1.368(19) .
C2 H2 0.9500 .
C2 C3 1.404(18) .
C3 C4 1.490(18) .
C4 C5 1.367(19) .
C4 C9 1.334(18) .
C5 H5 0.9500 .
C5 C6 1.35(2) .
C6 H6 0.9500 .
C6 C7 1.368(18) .
C7 C8 1.346(18) .
C8 H8 0.9500 .
C8 C9 1.45(2) .
C9 H9 0.9500 .
C10 H10 0.9500 .
C10 C11 1.43(2) .
C11 H11 0.9500 .
C11 C12 1.39(2) .
C12 C13 1.50(2) .
C13 C14 1.39(2) .
C13 C18 1.37(2) .
C14 H14 0.9500 .
C14 C15 1.39(2) .
C15 H15 0.9500 .
C15 C16 1.404(18) .
C16 C17 1.340(18) .
C17 H17 0.9500 .
C17 C18 1.365(19) .
C18 H18 0.9500 .
C19 H19 0.9500 .
C19 C20 1.351(16) .
C20 H20 0.9500 .
C20 C21 1.390(17) .
C21 C22 1.490(16) .
C22 C23 1.356(17) .
C22 C27 1.319(17) .
C23 H23 0.9500 .
C23 C24 1.389(18) .
C24 H24 0.9500 .
C24 C25 1.352(18) .
C25 C26 1.357(18) .
C26 H26 0.9500 .
C26 C27 1.383(19) .
C27 H27 0.9500 .
C28 C28 1.45(3) 7_565
C28 C29 1.402(19) .
C29 H29 0.9500 .
C29 C30 1.33(2) .
C30 C31 1.43(2) .
C30 C33 1.50(2) .
C31 H31 0.9500 .
C31 C32 1.34(2) .
C32 H32 0.9500 .
C33 H33A 0.9800 .
C33 H33B 0.9800 .
C33 H33C 0.9800 .
C34 C34 1.47(3) 7_565
C34 C35 1.363(17) .
C35 H35 0.9500 .
C35 C36 1.422(19) .
C36 C37 1.390(18) .
C36 C39 1.465(18) .
C37 H37 0.9500 .
C37 C38 1.388(19) .
C38 H38 0.9500 .
C39 H39A 0.9800 .
C39 H39B 0.9800 .
C39 H39C 0.9800 .
C40 C41 1.38(3) .
C41 H41 0.9500 .
C41 C42 1.34(2) .
C42 C43 1.41(3) .
C42 C45 1.54(3) .
C43 H43 0.9500 .
C43 C44 1.41(2) .
C44 C44 1.47(4) 7_565
C45 H45A 0.9800 .
C45 H45B 0.9800 .
C45 H45C 0.9800 .
C46 C46 1.47(3) 7_565
C46 C47 1.370(17) .
C47 H47 0.9500 .
C47 C48 1.367(19) .
C48 C49 1.418(18) .
C48 C51 1.49(2) .
C49 H49 0.9500 .
C49 C50 1.38(2) .
C50 H50 0.9500 .
C51 H51A 0.9800 .
C51 H51B 0.9800 .
C51 H51C 0.9800 .
C52 C52 1.45(3) 7_565
C52 C53 1.387(17) .
C53 H53 0.9500 .
C53 C54 1.388(18) .
C54 C55 1.351(17) .
C54 C57 1.501(18) .
C55 H55 0.9500 .
C55 C56 1.378(17) .
C56 H56 0.9500 .
C57 H57A 0.9800 .
C57 H57B 0.9800 .
C57 H57C 0.9800 .
C58 H58 0.9500 .
C58 C59 1.342(18) .
C59 H59 0.9500 .
C59 C60 1.38(2) .
C60 C61 1.40(2) .
C60 C63 1.55(2) .
C61 H61 0.9500 .
C61 C62 1.329(18) .
C62 C62 1.50(3) 7_565
C63 H63A 0.9800 .
C63 H63B 0.9800 .
C63 H63C 0.9800 .
P1 F1 1.53(5) .
P1 F2 1.50(5) .
P1 F3 1.43(5) .
P1 F4 1.37(5) .
P1 F5 1.51(4) 7_565
P1 F5 1.51(4) .
P2 F6 1.65(4) .
P2 F7 1.42(3) 7_575
P2 F7 1.42(3) .
P2 F8 1.52(4) .
P2 F9 1.54(3) .
P2 F9 1.54(3) 7_575
P3 F10 1.596(16) .
P3 F11 1.528(19) .
P3 F12 1.613(19) .
P3 F13 1.60(2) .
P3 F14 1.560(14) .
P3 F14 1.560(14) 7_575
P4 F15 1.563(19) .
P4 F16 1.510(17) .
P4 F16 1.510(17) 7_565
P4 F17 1.551(17) .
P4 F17 1.551(17) 7_565
P4 F18 1.55(2) .
P5 F19 1.67(3) .
P5 F20 1.58(2) .
P5 F21 1.47(3) .
P5 F22 1.589(18) .
P5 F23 1.521(16) .
P5 F23 1.521(16) 7_565
P6 F24 1.600(14) .
P6 F25 1.577(11) 7_565
P6 F25 1.577(11) .
P6 F26 1.592(14) .
P6 F27 1.583(12) 7_565
P6 F27 1.583(12) .
P7 F28 1.861(18) .
P7 F29 1.58(3) .
P7 F30 1.36(4) .
P7 F31 1.43(3) .
P7 F32 1.45(2) .
P7 F32 1.45(2) 7_565
P8 F33 1.579(16) .
P8 F34 1.569(11) .
P8 F34 1.569(11) 7_565
P8 F35 1.586(15) .
P8 F36 1.581(11) 7_565
P8 F36 1.580(11) .
N14 C64 1.180(18) .
C64 C65 1.477(19) .
C65 H65A 0.9801 .
C65 H65B 0.9798 .
C65 H65C 0.9799 .
N15 C66 1.08(3) .
C66 C67 1.61(4) .
C67 H67A 0.9800 .
C67 H67B 0.9800 .
C67 H67C 0.9800 .
