#------------------------------------------------------------------------------
#$Date: 2017-05-18 05:29:14 +0300 (Thu, 18 May 2017) $
#$Revision: 196732 $
#$URL: file:///home/coder/svn-repositories/cod/cif/7/04/29/7042995.cif $
#------------------------------------------------------------------------------
#
# This file is available in the Crystallography Open Database (COD),
# http://www.crystallography.net/
#
# All data on this site have been placed in the public domain by the
# contributors.
#
data_7042995
loop_
_publ_author_name
'Llabres, Pedro'
'Pitarch-Jarque, Javier'
'Ballesteros-Garrido, Rafael'
'Abarca, Bel\'en'
'Ballesteros, Rafael'
'Garc\'ia-Espa\~na, Enrique'
_publ_section_title
;
 Bicyclo[2.2.2]octane-1,4-dicarboxylic acid: Towards Transparent
 Metal-Organic Frameworks.
;
_journal_name_full               'Dalton Trans.'
_journal_paper_doi               10.1039/C7DT00855D
_journal_year                    2017
_chemical_formula_moiety         'C40 H48 O16 Zn4'
_chemical_formula_sum            'C46 H62 N2 O18 Zn4'
_chemical_formula_weight         1192.45
_space_group_crystal_system      monoclinic
_space_group_IT_number           15
_space_group_name_Hall           '-C 2yc'
_space_group_name_H-M_alt        'C 1 2/c 1'
_symmetry_space_group_name_Hall  '-C 2yc'
_symmetry_space_group_name_H-M   'C 1 2/c 1'
_atom_sites_solution_hydrogens   geom
_atom_sites_solution_primary     direct
_audit_creation_date             2017-05-07
_audit_creation_method
;
Olex2 1.2
(compiled 2016.02.19 svn.r3266 for OlexSys, GUI svn.r5155)
;
_audit_update_record
;
2017-05-07 deposited with the CCDC.
2017-05-10 downloaded from the CCDC.
;
_cell_angle_alpha                90
_cell_angle_beta                 90.675(2)
_cell_angle_gamma                90
_cell_formula_units_Z            2
_cell_length_a                   6.1210(2)
_cell_length_b                   19.5910(9)
_cell_length_c                   19.6970(7)
_cell_measurement_reflns_used    914
_cell_measurement_temperature    120(1)
_cell_measurement_theta_max      27.485
_cell_measurement_theta_min      2.910
_cell_volume                     2361.83(16)
_computing_cell_refinement       'HKL Scalepack (Otwinowski & Minor 1997)'
_computing_data_collection       'Collect (Bruker AXS BV, 1997-2004)'
_computing_data_reduction
'HKL Denzo and Scalepack (Otwinowski & Minor 1997)'
_computing_molecular_graphics    'Olex2 (Dolomanov et al., 2009)'
_computing_publication_material  'Olex2 (Dolomanov et al., 2009)'
_computing_structure_refinement  'ShelXL (Sheldrick, 2015)'
_computing_structure_solution    'SIR2004 (Burla et al., 2007)'
_diffrn_ambient_temperature      120(1)
_diffrn_detector_area_resol_mean 9
_diffrn_measured_fraction_theta_full 0.997
_diffrn_measured_fraction_theta_max 0.997
_diffrn_measurement_device       '95mm CCD camera on \k-goniostat'
_diffrn_measurement_device_type  KappaCCD
_diffrn_measurement_method       CCD
_diffrn_radiation_type           MoK\a
_diffrn_radiation_wavelength     0.71073
_diffrn_reflns_av_R_equivalents  0.0266
_diffrn_reflns_av_unetI/netI     0.0341
_diffrn_reflns_Laue_measured_fraction_full 0.997
_diffrn_reflns_Laue_measured_fraction_max 0.997
_diffrn_reflns_limit_h_max       7
_diffrn_reflns_limit_h_min       -7
_diffrn_reflns_limit_k_max       23
_diffrn_reflns_limit_k_min       -23
_diffrn_reflns_limit_l_max       23
_diffrn_reflns_limit_l_min       -23
_diffrn_reflns_number            3902
_diffrn_reflns_point_group_measured_fraction_full 0.997
_diffrn_reflns_point_group_measured_fraction_max 0.997
_diffrn_reflns_theta_full        24.999
_diffrn_reflns_theta_max         24.999
_diffrn_reflns_theta_min         2.322
_exptl_absorpt_coefficient_mu    2.086
_exptl_absorpt_correction_type   none
_exptl_crystal_colour            colourless
_exptl_crystal_colour_primary    colourless
_exptl_crystal_density_diffrn    1.677
_exptl_crystal_description       block
_exptl_crystal_F_000             1232
_exptl_crystal_size_max          0.4
_exptl_crystal_size_mid          0.2
_exptl_crystal_size_min          0.2
_refine_diff_density_max         0.938
_refine_diff_density_min         -0.589
_refine_diff_density_rms         0.157
_refine_ls_extinction_method     none
_refine_ls_goodness_of_fit_ref   1.076
_refine_ls_hydrogen_treatment    constr
_refine_ls_matrix_type           full
_refine_ls_number_parameters     200
_refine_ls_number_reflns         2076
_refine_ls_number_restraints     177
_refine_ls_restrained_S_all      1.042
_refine_ls_R_factor_all          0.0638
_refine_ls_R_factor_gt           0.0576
_refine_ls_shift/su_max          0.000
_refine_ls_shift/su_mean         0.000
_refine_ls_structure_factor_coef Fsqd
_refine_ls_weighting_details
'w=1/[\s^2^(Fo^2^)+(0.0983P)^2^+26.9843P] where P=(Fo^2^+2Fc^2^)/3'
_refine_ls_weighting_scheme      calc
_refine_ls_wR_factor_gt          0.1671
_refine_ls_wR_factor_ref         0.1747
_reflns_Friedel_coverage         0.000
_reflns_number_gt                1837
_reflns_number_total             2076
_reflns_threshold_expression     'I > 2\s(I)'
_iucr_refine_instructions_details
;

    shelxl_sq.res created by SHELXL-2014/7

TITL shelxl_a.res in C2/c
REM Old TITL shelxl in C2/c #15
REM SHELXT solution in C2/c
REM R1 0.199, Rweak 0.010, Alpha 0.071, Orientation as input
REM Formula found by SHELXT: C27 O8 Zn2
CELL 0.71073 6.121 19.591 19.697 90 90.675 90
ZERR 2 0.0002 0.0009 0.0007 0 0.002 0
LATT 7
SYMM -X,+Y,0.5-Z
SFAC C H N O Zn
UNIT 92 124 4 36 8
RIGU
 
L.S. 8 0 50
PLAN  20
TEMP -153.1(10)
BOND $H
MORE -1
CONF
ABIN
fmap 2
acta
TWIN 1 0 0 0 -1 0 0 0 -1 2
OMIT -3 50
OMIT 0 0 2
OMIT 0 2 0
OMIT 0 4 2
OMIT 3 5 12
REM <olex2.extras>
REM <HklSrc "%.\\shelxl_sq.hkl">
REM </olex2.extras>
 
WGHT    0.098300   26.984299
BASF   0.10162
FVAR       0.25417
ZN1   5    0.501466    0.776737    0.525379    11.00000    0.03470    0.01016 =
         0.01242   -0.00228   -0.00934    0.00377
O1    4    0.459705    0.679006    0.535623    11.00000    0.03515    0.01335 =
         0.05106    0.00515   -0.00551   -0.00006
O2    4    0.213716    0.653887    0.455497    11.00000    0.04271    0.01761 =
         0.05566   -0.01508   -0.00400    0.00852
O3    4    0.721155    0.790942    0.595482    11.00000    0.03434    0.04764 =
         0.01762   -0.00705   -0.01005   -0.00146
O4    4    0.961627    0.707990    0.571278    11.00000    0.03561    0.04147 =
         0.01587    0.00770   -0.00558   -0.00170
C1    1    0.363993    0.638450    0.495583    11.00000    0.03297    0.01726 =
         0.06996   -0.00448   -0.00284    0.00381
PART -1
C2A   1    0.439711    0.564618    0.481063    10.50000    0.02882    0.01413 =
         0.04169   -0.00001   -0.00111    0.00584
C2B   1    0.561201    0.437999    0.488873    10.50000    0.02993    0.00559 =
         0.03771    0.00319   -0.00368    0.00560
C3A   1    0.358280    0.530403    0.549594    10.50000    0.03012    0.01599 =
         0.04381   -0.00323   -0.00337    0.00199
AFIX  23
H3AA  2    0.408875    0.557842    0.588948    10.50000   -1.20000
H3AB  2    0.196597    0.529230    0.549851    10.50000   -1.20000
AFIX   0
C3B   1    0.449962    0.456386    0.555561    10.50000    0.04420    0.01834 =
         0.04523    0.00189    0.00273    0.00641
AFIX  23
H3BA  2    0.556557    0.453606    0.593654    10.50000   -1.20000
H3BB  2    0.329574    0.423986    0.564516    10.50000   -1.20000
AFIX   0
C4A   1    0.342822    0.525435    0.423010    10.50000    0.04786    0.01367 =
         0.04811    0.00094   -0.01248    0.00908
AFIX  23
H4AA  2    0.400409    0.543527    0.379837    10.50000   -1.20000
H4AB  2    0.182298    0.531643    0.422388    10.50000   -1.20000
AFIX   0
C4B   1    0.398001    0.446599    0.428639    10.50000    0.05492    0.01506 =
         0.04373    0.00216   -0.01585    0.01219
AFIX  23
H4BA  2    0.263345    0.420027    0.436914    10.50000   -1.20000
H4BB  2    0.464160    0.430154    0.386032    10.50000   -1.20000
AFIX   0
C5A   1    0.691525    0.558977    0.483615    10.50000    0.03439    0.00445 =
         0.04286    0.00189   -0.00240    0.00107
AFIX  23
H5AA  2    0.749044    0.578656    0.526530    10.50000   -1.20000
H5AB  2    0.755795    0.584308    0.445216    10.50000   -1.20000
AFIX   0
C5B   1    0.753141    0.480661    0.478950    10.50000    0.03805    0.00920 =
         0.04875   -0.00181    0.00086    0.00382
AFIX  23
H5BA  2    0.816146    0.470970    0.433904    10.50000   -1.20000
H5BB  2    0.864924    0.469671    0.514004    10.50000   -1.20000
AFIX   0
PART 0
C6    1    0.869408    0.749136    0.612902    11.00000    0.03131    0.05865 =
         0.01478    0.00102   -0.00663   -0.00140
C7    1    0.942018    0.747850    0.686599    11.00000    0.02843    0.07767 =
         0.01510   -0.00174   -0.00706    0.00100
PART 1
C8A   1    1.128132    0.691380    0.700530    10.50000    0.03221    0.10154 =
         0.02626    0.01400    0.00672    0.01241
AFIX  23
H8AA  2    1.229990    0.686892    0.662115    10.50000   -1.20000
H8AB  2    1.066262    0.646207    0.712044    10.50000   -1.20000
AFIX   0
PART 0
PART 2
C8B   1    1.181849    0.739765    0.695895    10.50000    0.03048    0.06768 =
         0.02574   -0.01085   -0.00361    0.00767
AFIX  23
H8BB  2    1.257276    0.784048    0.702244    10.50000   -1.20000
H8BA  2    1.249144    0.714170    0.658182    10.50000   -1.20000
AFIX   0
PART 0
PART 1
C9A   1    1.047206    0.817344    0.702865    10.50000    0.05451    0.09106 =
         0.01820    0.00904   -0.01575   -0.01994
AFIX  23
H9AA  2    0.983102    0.855207    0.675963    10.50000   -1.20000
H9AB  2    1.208153    0.816949    0.698471    10.50000   -1.20000
AFIX   0
PART 0
PART 2
C9B   1    0.864472    0.815788    0.723559    10.50000    0.04441    0.09128 =
         0.02497   -0.00980   -0.01146    0.01715
AFIX  23
H9BA  2    0.731993    0.809756    0.751280    10.50000   -1.20000
H9BB  2    0.848910    0.855457    0.692743    10.50000   -1.20000
AFIX   0
PART 0
PART 1
C10A  1    0.752369    0.731464    0.729718    10.50000    0.02646    0.06275 =
         0.02193    0.00557   -0.00210    0.00330
AFIX  23
H10A  2    0.648951    0.700617    0.705841    10.50000   -1.20000
H10B  2    0.674120    0.773408    0.743383    10.50000   -1.20000
AFIX   0
PART 0
PART 2
C10B  1    0.827884    0.688770    0.723904    10.50000    0.03377    0.08532 =
         0.01771    0.00090   -0.00636    0.00004
AFIX  23
H10C  2    0.918858    0.647143    0.727817    10.50000   -1.20000
H10D  2    0.681608    0.677689    0.704965    10.50000   -1.20000
AFIX   0
HKLF 4
 
REM  shelxl_a.res in C2/c
REM R1 =  0.0576 for    1837 Fo > 4sig(Fo)  and  0.0638 for all    2076 data
REM    200 parameters refined using    177 restraints
 
END  
     
WGHT      0.0983     26.9861 

REM Highest difference peak  0.938,  deepest hole -0.589,  1-sigma level  0.157
Q1    1   0.6508  0.7765  0.5337  11.00000  0.05    0.94
Q2    1   1.2103  0.7828  0.6049  11.00000  0.05    0.55
Q3    1   0.1535  0.4403  0.4416  11.00000  0.05    0.50
Q4    1   0.3513  0.7805  0.5100  11.00000  0.05    0.48
Q5    1   1.0745  0.6599  0.6975  11.00000  0.05    0.47
Q6    1   0.5630  0.7601  0.7802  11.00000  0.05    0.44
Q7    1   1.1006  0.7846  0.6951  11.00000  0.05    0.42
Q8    1   0.1948  0.4839  0.3904  11.00000  0.05    0.41
Q9    1   0.6754  0.6821  0.7326  11.00000  0.05    0.40
Q10   1   0.5000  0.7996  0.7500  10.50000  0.05    0.40
Q11   1   0.7575  0.7342  0.7677  11.00000  0.05    0.39
Q12   1   1.1442  0.7409  0.6821  11.00000  0.05    0.39
Q13   1   0.4603  0.5006  0.3492  11.00000  0.05    0.39
Q14   1   1.2823  0.6677  0.6054  11.00000  0.05    0.37
Q15   1   1.2990  0.7888  0.6539  11.00000  0.05    0.36
Q16   1   0.8323  0.7222  0.7071  11.00000  0.05    0.36
Q17   1   1.1924  0.6544  0.5999  11.00000  0.05    0.35
Q18   1   0.8137  0.5457  0.4179  11.00000  0.05    0.35
Q19   1   1.2395  0.7003  0.7296  11.00000  0.05    0.35
Q20   1   0.4225  0.5325  0.3408  11.00000  0.05    0.35

  REM The information below was added by Olex2.
  REM
  REM R1 = 0.0576 for 1837 Fo > 4sig(Fo) and 0.0638 for all 6522 data
  REM n/a parameters refined using n/a restraints
  REM Highest difference peak 0.94, deepest hole -0.59
  REM Mean Shift 0, Max Shift 0.000.
  
  REM +++ Tabular Listing of Refinement Information +++
  REM R1_all = 0.0638
  REM R1_gt = 0.0576
  REM wR_ref = 0.1747
  REM GOOF = 1.076
  REM Shift_max = 0.000
  REM Shift_mean = 0
  REM Reflections_all = 6522
  REM Reflections_gt = 1837
  REM Parameters = n/a
  REM Hole = -0.59
  REM Peak = 0.94
  REM Flack = n/a
  
  
;
_cod_data_source_file            c7dt00855d2.cif
_cod_data_source_block           pytmof
_cod_database_code               7042995
_shelx_space_group_comment
;
The symmetry employed for this shelxl refinement is uniquely defined
by the following loop, which should always be used as a source of
symmetry information in preference to the above space-group names.
They are only intended as comments.
;
_olex2_refinement_description
;
1. Twinned data refinement
 Scales: 0.898(4) 0.102(4)
2. Fixed Uiso
 At 1.2 times of:
  All C(H,H) groups
3. Rigid body (RIGU) restrains
 All non-hydrogen atoms
 with sigma for 1-2 distances of 0.004 and sigma for 1-3 distances of 0.004
4. Others
 Fixed Sof: C2A(0.5) C2B(0.5) C3A(0.5) H3AA(0.5) H3AB(0.5) C3B(0.5) H3BA(0.5)
 H3BB(0.5) C4A(0.5) H4AA(0.5) H4AB(0.5) C4B(0.5) H4BA(0.5) H4BB(0.5) C5A(0.5)
 H5AA(0.5) H5AB(0.5) C5B(0.5) H5BA(0.5) H5BB(0.5) C8A(0.5) H8AA(0.5) H8AB(0.5)
 C8B(0.5) H8BB(0.5) H8BA(0.5) C9A(0.5) H9AA(0.5) H9AB(0.5) C9B(0.5) H9BA(0.5)
 H9BB(0.5) C10A(0.5) H10A(0.5) H10B(0.5) C10B(0.5) H10C(0.5) H10D(0.5)
5.a Secondary CH2 refined with riding coordinates:
 C3A(H3AA,H3AB), C3B(H3BA,H3BB), C4A(H4AA,H4AB), C4B(H4BA,H4BB), C5A(H5AA,
 H5AB), C5B(H5BA,H5BB), C8A(H8AA,H8AB), C8B(H8BB,H8BA), C9A(H9AA,H9AB),
 C9B(H9BA,H9BB), C10A(H10A,H10B), C10B(H10C,H10D)
;
_shelx_fab_checksum              27627
_shelx_fab_file
;
    7    5    3      0.02      0.00
    7    5    2     -1.02      0.00
    7    5    1      0.45      0.00
    7    5    0      0.49      0.00
   -7    5    1      0.43      0.00
   -7    5    2     -0.85      0.00
   -7    5    3      0.92      0.00
   -7    5    4      1.75      0.00
    7    3    5      0.25      0.00
    7    3    4      2.63      0.00
    7    3    3     -0.49      0.00
    7    3    2     -0.76      0.00
    7    3    1      0.94      0.00
    7    3    0     -0.58      0.00
   -7    3    1      1.06      0.00
   -7    3    2     -0.05      0.00
   -7    3    3     -0.24      0.00
   -7    3    4      2.36      0.00
   -7    3    5     -0.68      0.00
    7    1    6     -3.36      0.00
    7    1    5      0.25      0.00
    7    1    4      2.71      0.00
    7    1    3     -0.30      0.00
    7    1    2     -0.63      0.00
    7    1    1      0.50      0.00
    7    1    0     -1.33      0.00
   -7    1    1      0.64      0.00
   -7    1    2      0.89      0.00
   -7    1    3     -0.44      0.00
   -7    1    4      2.10      0.00
   -7    1    5     -0.01      0.00
   -7    1    6     -4.29      0.00
    6   12    5      0.47      0.00
    6   12    4      1.76      0.00
    6   12    3     -0.99      0.00
    6   12    2     -2.67      0.00
    6   12    1      0.81      0.00
    6   12    0      1.24      0.00
   -6   12    1      0.27      0.00
   -6   12    2      0.18      0.00
   -6   12    3      0.05      0.00
   -6   12    4      0.06      0.00
   -6   12    5      0.11      0.00
    6   10    8     -1.51      0.00
    6   10    7     -0.37      0.00
    6   10    6      0.60      0.00
    6   10    5     -0.20      0.00
    6   10    4      1.31      0.00
    6   10    3      0.20      0.00
    6   10    2     -1.58      0.00
    6   10    1     -1.25      0.00
    6   10    0     -0.50      0.00
   -6   10    1     -2.08      0.00
   -6   10    2      1.85      0.00
   -6   10    3      1.05      0.00
   -6   10    4     -1.01      0.00
   -6   10    5      0.50      0.00
   -6   10    6     -0.56      0.00
   -6   10    7     -0.18      0.00
   -6   10    8      0.80      0.00
    6    8   10      2.29      0.00
    6    8    9      2.24      0.00
    6    8    8     -2.68      0.00
    6    8    7     -0.72      0.00
    6    8    6      2.10      0.00
    6    8    5      0.29      0.00
    6    8    4     -1.26      0.00
    6    8    3      0.19      0.00
    6    8    2      1.56      0.00
    6    8    1     -1.84      0.00
    6    8    0     -3.00      0.00
   -6    8    1     -2.54      0.00
   -6    8    2      3.41      0.00
   -6    8    3      0.67      0.00
   -6    8    4     -2.24      0.00
   -6    8    5      1.32      0.00
   -6    8    6      0.89      0.00
   -6    8    7     -0.76      0.00
   -6    8    8     -1.02      0.00
   -6    8    9     -1.00      0.00
   -6    8   10      2.17      0.00
    6    6   11     -2.43      0.00
    6    6   10      2.97      0.00
    6    6    9      2.09      0.00
    6    6    8     -3.56      0.00
    6    6    7     -1.38      0.00
    6    6    6      3.95      0.00
    6    6    5      1.22      0.00
    6    6    4     -4.20      0.00
    6    6    3     -0.52      0.00
    6    6    2      4.41      0.00
    6    6    1     -1.01      0.00
    6    6    0     -4.73      0.00
   -6    6    1     -1.45      0.00
   -6    6    2      4.62      0.00
   -6    6    3      0.03      0.00
   -6    6    4     -3.57      0.00
   -6    6    5      1.18      0.00
   -6    6    6      2.41      0.00
   -6    6    7     -0.36      0.00
   -6    6    9     -1.05      0.00
   -6    6   10      2.89      0.00
   -6    6   12     -3.21      0.00
    6    4   12     -1.04      0.00
    6    4   11     -1.32      0.00
    6    4   10      1.74      0.00
    6    4    9      1.21      0.00
    6    4    8     -2.81      0.00
    6    4    7     -1.05      0.00
    6    4    6      4.13      0.00
    6    4    4     -5.10      0.00
    6    4    3     -1.00      0.00
    6    4    2      5.35      0.00
    6    4    1      0.22      0.00
    6    4    0     -5.15      0.00
   -6    4    1     -0.33      0.00
   -6    4    2      4.93      0.00
   -6    4    3      0.35      0.00
   -6    4    4     -4.19      0.00
   -6    4    5     -0.25      0.00
   -6    4    6      3.31      0.00
   -6    4    7      0.68      0.00
   -6    4    8     -2.42      0.00
   -6    4    9     -1.08      0.00
   -6    4   10      1.96      0.00
   -6    4   11      0.19      0.00
   -6    4   12     -2.26      0.00
    6    2   12      0.62      0.00
    6    2   11     -0.43      0.00
    6    2   10     -0.58      0.00
    6    2    9      0.37      0.00
    6    2    8     -0.51      0.00
    6    2    7     -0.30      0.00
    6    2    6      2.15      0.00
    6    2    5      0.54      0.00
    6    2    4     -3.85      0.00
    6    2    3     -0.82      0.00
    6    2    2      4.99      0.00
    6    2    1      0.60      0.00
    6    2    0     -5.01      0.00
   -6    2    1      0.19      0.00
   -6    2    2      4.39      0.00
   -6    2    3      0.61      0.00
   -6    2    4     -3.81      0.00
   -6    2    5     -0.99      0.00
   -6    2    6      3.55      0.00
   -6    2    7      0.98      0.00
   -6    2    8     -2.41      0.00
   -6    2    9     -0.77      0.00
   -6    2   10      0.70      0.00
   -6    2   11      0.11      0.00
   -6    2   12     -0.53      0.00
   -6    2   13      0.96      0.00
    5   15    7     -2.91      0.00
    5   15    6     -0.77      0.00
    5   15    4      2.78      0.00
    5   15    3      1.05      0.00
    5   15    2     -2.94      0.00
    5   15    1     -2.65      0.00
    5   15    0      2.56      0.00
   -5   15    1     -1.83      0.00
   -5   15    2     -3.67      0.00
   -5   15    3      0.26      0.00
   -5   15    4      3.33      0.00
   -5   15    5      0.62      0.00
   -5   15    6     -1.99      0.00
   -5   15    7     -1.53      0.00
   -5   15    8      1.10      0.00
    5   13   10     -0.50      0.00
    5   13    9     -0.58      0.00
    5   13    8      1.58      0.00
    5   13    7      0.62      0.00
    5   13    6     -3.71      0.00
    5   13    5     -0.47      0.00
    5   13    4      4.50      0.00
    5   13    3      1.26      0.00
    5   13    2     -3.66      0.00
    5   13    1     -2.13      0.00
    5   13    0      3.09      0.00
   -5   13    1     -1.70      0.00
   -5   13    2     -3.61      0.00
   -5   13    3      0.83      0.00
   -5   13    4      3.32      0.00
   -5   13    5     -0.15      0.00
   -5   13    6     -2.49      0.00
   -5   13    7     -0.84      0.00
   -5   13    8      2.15      0.00
   -5   13    9      1.94      0.00
   -5   13   10     -2.52      0.00
   -5   13   11     -1.55      0.00
    5   11   12      1.38      0.00
    5   11   11      1.63      0.00
    5   11   10     -2.09      0.00
    5   11    9     -3.26      0.00
    5   11    8      4.04      0.00
    5   11    7      3.05      0.00
    5   11    6     -4.99      0.00
    5   11    5     -2.63      0.00
    5   11    4      3.75      0.00
    5   11    3      2.34      0.00
    5   11    2     -2.26      0.00
    5   11    1     -1.57      0.00
    5   11    0      2.47      0.00
   -5   11    2     -3.25      0.00
   -5   11    3      0.51      0.00
   -5   11    4      3.34      0.00
   -5   11    5     -0.85      0.00
   -5   11    6     -2.96      0.00
   -5   11    7      0.61      0.00
   -5   11    8      3.05      0.00
   -5   11    9      0.00      0.00
   -5   11   10     -3.49      0.00
   -5   11   11      0.37      0.00
   -5   11   12      3.08      0.00
   -5   11   13     -1.74      0.00
    5    9   14     -0.92      0.00
    5    9   13      0.56      0.00
    5    9   12      1.65      0.00
    5    9   11      2.86      0.00
    5    9   10     -2.62      0.00
    5    9    9     -3.49      0.00
    5    9    8      3.61      0.00
    5    9    7      3.54      0.00
    5    9    6     -3.59      0.00
    5    9    5     -4.44      0.00
    5    9    4      2.23      0.00
    5    9    3      4.00      0.00
    5    9    2     -1.16      0.00
    5    9    1     -1.34      0.00
    5    9    0      1.75      0.00
   -5    9    1      0.52      0.00
   -5    9    2     -2.73      0.00
   -5    9    3     -0.16      0.00
   -5    9    4      3.20      0.00
   -5    9    5     -1.22      0.00
   -5    9    6     -3.11      0.00
   -5    9    7      1.62      0.00
   -5    9    8      3.25      0.00
   -5    9    9     -1.36      0.00
   -5    9   10     -3.48      0.00
   -5    9   11      1.72      0.00
   -5    9   12      2.83      0.00
   -5    9   13     -2.63      0.00
   -5    9   14     -1.02      0.00
    5    7   15     -3.01      0.00
    5    7   14     -0.95      0.00
    5    7   13      0.28      0.00
    5    7   12      2.44      0.00
    5    7   11      1.86      0.00
    5    7   10     -2.46      0.00
    5    7    9     -2.27      0.00
    5    7    8      2.04      0.00
    5    7    7      3.48      0.00
    5    7    6     -2.18      0.00
    5    7    5     -5.49      0.00
    5    7    4      1.95      0.00
    5    7    3      5.00      0.00
    5    7    2     -1.05      0.00
    5    7    1     -1.76      0.00
    5    7    0      0.85      0.00
   -5    7    1      0.05      0.00
   -5    7    2     -1.74      0.00
   -5    7    3      0.68      0.00
   -5    7    4      2.56      0.00
   -5    7    5     -2.08      0.00
   -5    7    6     -2.67      0.00
   -5    7    7      2.08      0.00
   -5    7    8      2.51      0.00
   -5    7    9     -1.26      0.00
   -5    7   10     -2.45      0.00
   -5    7   11      1.00      0.00
   -5    7   12      2.03      0.00
   -5    7   13     -1.46      0.00
   -5    7   14     -0.83      0.00
   -5    7   15      1.94      0.00
    5    5   16      0.40      0.00
    5    5   15     -2.17      0.00
    5    5   14     -1.76      0.00
    5    5   13      1.37      0.00
    5    5   12      3.08      0.00
    5    5   11     -0.08      0.00
    5    5   10     -2.72      0.00
    5    5    9     -1.22      0.00
    5    5    8      2.21      0.00
    5    5    7      3.35      0.00
    5    5    6     -2.72      0.00
    5    5    3      5.39      0.00
    5    5    2     -0.89      0.00
    5    5    1     -3.56      0.00
    5    5    0     -0.50      0.00
   -5    5    1     -2.71      0.00
   -5    5    2     -0.03      0.00
   -5    5    3      3.14      0.00
   -5    5    4      0.87      0.00
   -5    5    5     -3.42      0.00
   -5    5    6     -1.18      0.00
   -5    5    7      2.41      0.00
   -5    5    8      0.98      0.00
   -5    5    9     -0.57      0.00
   -5    5   10     -0.86      0.00
   -5    5   11     -0.91      0.00
   -5    5   12      1.08      0.00
   -5    5   13      1.16      0.00
   -5    5   14     -1.20      0.00
   -5    5   15     -0.21      0.00
   -5    5   16      0.74      0.00
    5    3   15     -1.95      0.00
    5    3   14     -1.66      0.00
    5    3   12      2.70      0.00
    5    3   11     -1.08      0.00
    5    3   10     -3.41      0.00
    5    3    9     -0.62      0.00
    5    3    8      3.85      0.00
    5    3    7      2.47      0.00
    5    3    6     -4.05      0.00
    5    3    5     -4.06      0.00
    5    3    4      3.02      0.00
    5    3    3      4.84      0.00
    5    3    2     -0.69      0.00
    5    3    1     -4.85      0.00
    5    3    0     -1.44      0.00
   -5    3    1     -4.76      0.00
   -5    3    2      2.07      0.00
   -5    3    3      4.42      0.00
   -5    3    4     -2.08      0.00
   -5    3    5     -3.60      0.00
   -5    3    6      1.53      0.00
   -5    3    7      2.17      0.00
   -5    3    8     -1.05      0.00
   -5    3    9     -0.13      0.00
   -5    3   10      0.84      0.00
   -5    3   11     -1.90      0.00
   -5    3   12     -0.04      0.00
   -5    3   13      2.65      0.00
   -5    3   14     -1.64      0.00
   -5    3   15     -1.53      0.00
   -5    3   16      2.75      0.00
    5    1   16      1.51      0.00
    5    1   15     -0.92      0.00
    5    1   14     -0.69      0.00
    5    1   13      1.08      0.00
    5    1   12      1.80      0.00
    5    1   11     -0.55      0.00
    5    1   10     -3.87      0.00
    5    1    9     -0.16      0.00
    5    1    8      5.06      0.00
    5    1    7      0.80      0.00
    5    1    6     -4.63      0.00
    5    1    5     -1.47      0.00
    5    1    4      2.98      0.00
    5    1    3      2.08      0.00
    5    1    2     -0.82      0.00
    5    1    1     -2.40      0.00
    5    1    0     -1.52      0.00
   -5    1    1     -2.52      0.00
   -5    1    2      3.62      0.00
   -5    1    3      2.11      0.00
   -5    1    4     -4.72      0.00
   -5    1    5     -1.51      0.00
   -5    1    6      3.97      0.00
   -5    1    7      0.87      0.00
   -5    1    8     -2.66      0.00
   -5    1    9     -0.03      0.00
   -5    1   10      2.05      0.00
   -5    1   11     -0.90      0.00
   -5    1   12     -0.95      0.00
   -5    1   13      1.29      0.00
   -5    1   14     -1.81      0.00
   -5    1   15     -0.84      0.00
   -5    1   16      4.26      0.00
   -5    1   17      0.08      0.00
    4   18    7      4.57      0.00
    4   18    6     -1.73      0.00
    4   18    5     -2.15      0.00
    4   18    4      2.02      0.00
    4   18    3     -2.47      0.00
    4   18    2     -2.15      0.00
    4   18    1      4.49      0.00
    4   18    0      1.22      0.00
   -4   18    1      2.25      0.00
   -4   18    2      1.08      0.00
   -4   18    3     -0.15      0.00
   -4   18    4     -2.22      0.00
   -4   18    5      0.07      0.00
   -4   18    6      0.91      0.00
   -4   18    7     -0.06      0.00
    4   16   10     -0.30      0.00
    4   16    9     -1.62      0.00
    4   16    8      2.10      0.00
    4   16    7      1.68      0.00
    4   16    6     -2.21      0.00
    4   16    5      0.78      0.00
    4   16    4      0.87      0.00
    4   16    3     -4.34      0.00
    4   16    1      5.54      0.00
    4   16    0     -0.71      0.00
   -4   16    1      3.24      0.00
   -4   16    2      2.04      0.00
   -4   16    3     -0.56      0.00
   -4   16    4     -2.05      0.00
   -4   16    5     -0.07      0.00
   -4   16    6      0.41      0.00
   -4   16    7     -0.07      0.00
   -4   16    8      0.49      0.00
   -4   16    9     -0.71      0.00
   -4   16   10      1.85      0.00
   -4   16   11      1.41      0.00
    4   14   13      0.86      0.00
    4   14   11     -1.09      0.00
    4   14    9      1.38      0.00
    4   14    8      2.13      0.00
    4   14    7     -1.68      0.00
    4   14    6     -1.42      0.00
    4   14    5      2.23      0.00
    4   14    4      0.19      0.00
    4   14    3     -3.08      0.00
    4   14    2      0.26      0.00
    4   14    1      3.34      0.00
    4   14    0     -0.19      0.00
   -4   14    1      2.57      0.00
   -4   14    2      0.09      0.00
   -4   14    3     -1.07      0.00
   -4   14    4      0.49      0.00
   -4   14    5      0.20      0.00
   -4   14    6     -1.29      0.00
   -4   14    7      0.07      0.00
   -4   14    8      0.99      0.00
   -4   14    9     -0.52      0.00
   -4   14   10      1.66      0.00
   -4   14   11      0.77      0.00
   -4   14   12     -4.86      0.00
   -4   14   13     -0.22      0.00
    4   12   15      0.28      0.00
    4   12   14      1.16      0.00
    4   12   12     -0.04      0.00
    4   12   11     -2.42      0.00
    4   12   10     -0.66      0.00
    4   12    8      0.70      0.00
    4   12    7     -2.94      0.00
    4   12    6     -0.78      0.00
    4   12    5      2.45      0.00
    4   12    4      1.16      0.00
    4   12    3     -1.37      0.00
    4   12    2     -1.19      0.00
    4   12    1      0.37      0.00
    4   12    0      0.69      0.00
   -4   12    1      0.63      0.00
   -4   12    2     -0.76      0.00
   -4   12    3     -0.65      0.00
   -4   12    4      1.40      0.00
   -4   12    5     -0.20      0.00
   -4   12    6     -1.78      0.00
   -4   12    7      1.19      0.00
   -4   12    8      1.29      0.00
   -4   12    9     -1.18      0.00
   -4   12   10      0.21      0.00
   -4   12   11      0.14      0.00
   -4   12   12     -2.14      0.00
   -4   12   13      0.72      0.00
   -4   12   14      3.10      0.00
   -4   12   15     -0.37      0.00
    4   10   16     -0.10      0.00
    4   10   15      1.33      0.00
    4   10   14      0.43      0.00
    4   10   13      1.26      0.00
    4   10   12     -0.34      0.00
    4   10   11     -2.86      0.00
    4   10   10     -0.21      0.00
    4   10    8      0.76      0.00
    4   10    7     -2.87      0.00
    4   10    6     -1.12      0.00
    4   10    5      3.46      0.00
    4   10    4      1.22      0.00
    4   10    3     -1.62      0.00
    4   10    2     -0.72      0.00
    4   10    1     -1.73      0.00
    4   10    0     -0.16      0.00
   -4   10    1     -2.62      0.00
   -4   10    2      0.26      0.00
   -4   10    3      1.71      0.00
   -4   10    4      0.61      0.00
   -4   10    5     -1.66      0.00
   -4   10    6     -1.30      0.00
   -4   10    7      2.57      0.00
   -4   10    8      1.49      0.00
   -4   10    9     -1.92      0.00
   -4   10   10     -1.50      0.00
   -4   10   11     -0.47      0.00
   -4   10   12      1.13      0.00
   -4   10   13      1.83      0.00
   -4   10   14     -0.02      0.00
   -4   10   15     -0.69      0.00
   -4   10   16     -1.36      0.00
    4    8   17     -0.86      0.00
    4    8   16      2.40      0.00
    4    8   15      1.20      0.00
    4    8   14     -0.82      0.00
    4    8   13      1.22      0.00
    4    8   12      0.12      0.00
    4    8   11     -2.51      0.00
    4    8   10     -2.06      0.00
    4    8    9      2.23      0.00
    4    8    8      3.72      0.00
    4    8    7     -3.39      0.00
    4    8    6     -2.32      0.00
    4    8    5      4.67      0.00
    4    8    4     -0.37      0.00
    4    8    3     -1.83      0.00
    4    8    2      1.44      0.00
    4    8    1     -3.56      0.00
    4    8    0     -0.90      0.00
   -4    8    1     -5.69      0.00
   -4    8    2      0.07      0.00
   -4    8    3      3.83      0.00
   -4    8    4      0.83      0.00
   -4    8    5     -2.20      0.00
   -4    8    6     -1.33      0.00
   -4    8    7      2.32      0.00
   -4    8    8      1.68      0.00
   -4    8    9     -1.51      0.00
   -4    8   10     -2.36      0.00
   -4    8   11     -1.02      0.00
   -4    8   12      2.95      0.00
   -4    8   13      2.45      0.00
   -4    8   14     -2.38      0.00
   -4    8   15     -1.23      0.00
   -4    8   16      0.39      0.00
   -4    8   17     -0.44      0.00
    4    6   18     -2.08      0.00
    4    6   17      0.61      0.00
    4    6   16      3.53      0.00
    4    6   15      1.28      0.00
    4    6   14     -1.88      0.00
    4    6   13     -0.27      0.00
    4    6   12      1.22      0.00
    4    6   11     -1.45      0.00
    4    6   10     -4.29      0.00
    4    6    9      2.75      0.00
    4    6    8      6.30      0.00
    4    6    7     -4.39      0.00
    4    6    6     -3.08      0.00
    4    6    5      4.65      0.00
    4    6    4     -1.55      0.00
    4    6    3     -0.93      0.00
    4    6    2      2.33      0.00
    4    6    1     -4.27      0.00
    4    6    0     -0.17      0.00
   -4    6    1     -5.88      0.00
   -4    6    2     -1.38      0.00
   -4    6    3      3.32      0.00
   -4    6    4      1.54      0.00
   -4    6    5     -0.90      0.00
   -4    6    6     -1.14      0.00
   -4    6    7      0.62      0.00
   -4    6    8      1.14      0.00
   -4    6    9     -0.41      0.00
   -4    6   10     -1.97      0.00
   -4    6   11     -0.97      0.00
   -4    6   12      3.28      0.00
   -4    6   13      2.07      0.00
   -4    6   14     -3.88      0.00
   -4    6   15     -1.80      0.00
   -4    6   16      2.70      0.00
   -4    6   17      1.41      0.00
   -4    6   18      0.07      0.00
    4    4   19     -3.53      0.00
    4    4   18     -0.40      0.00
    4    4   17      0.69      0.00
    4    4   16      3.37      0.00
    4    4   15      2.51      0.00
    4    4   14     -2.78      0.00
    4    4   13     -2.56      0.00
    4    4   12      1.57      0.00
    4    4   11     -0.05      0.00
    4    4   10     -3.32      0.00
    4    4    9      2.81      0.00
    4    4    8      4.55      0.00
    4    4    7     -4.28      0.00
    4    4    6     -1.40      0.00
    4    4    5      3.63      0.00
    4    4    4     -2.75      0.00
    4    4    3     -0.65      0.00
    4    4    2      3.09      0.00
    4    4    1     -2.56      0.00
    4    4    0     -0.85      0.00
   -4    4    1     -3.16      0.00
   -4    4    2     -0.49      0.00
   -4    4    3      1.23      0.00
   -4    4    4      0.08      0.00
   -4    4    5      0.42      0.00
   -4    4    6      0.56      0.00
   -4    4    7     -0.48      0.00
   -4    4    8     -0.34      0.00
   -4    4    9      0.01      0.00
   -4    4   10     -1.06      0.00
   -4    4   11     -0.22      0.00
   -4    4   12      3.24      0.00
   -4    4   13      1.06      0.00
   -4    4   14     -5.01      0.00
   -4    4   15     -2.12      0.00
   -4    4   16      4.80      0.00
   -4    4   17      3.30      0.00
   -4    4   18     -1.84      0.00
   -4    4   19     -4.09      0.00
    4    2   19     -2.03      0.00
    4    2   18      0.93      0.00
    4    2   17     -0.07      0.00
    4    2   16      3.45      0.00
    4    2   15      2.66      0.00
    4    2   14     -3.71      0.00
    4    2   13     -2.83      0.00
    4    2   12      0.70      0.00
    4    2   11      0.61      0.00
    4    2   10      0.53      0.00
    4    2    9      1.65      0.00
    4    2    8     -0.37      0.00
    4    2    7     -2.49      0.00
    4    2    6      2.29      0.00
    4    2    5      2.07      0.00
    4    2    4     -5.25      0.00
    4    2    3     -0.86      0.00
    4    2    2      5.88      0.00
    4    2    1     -0.38      0.00
    4    2    0     -4.45      0.00
   -4    2    1     -0.62      0.00
   -4    2    2      3.25      0.00
   -4    2    3     -0.02      0.00
   -4    2    4     -3.09      0.00
   -4    2    5      0.52      0.00
   -4    2    6      2.83      0.00
   -4    2    7     -0.36      0.00
   -4    2    8     -1.67      0.00
   -4    2    9     -0.14      0.00
   -4    2   10     -0.62      0.00
   -4    2   11      0.31      0.00
   -4    2   12      3.51      0.00
   -4    2   13      0.27      0.00
   -4    2   14     -5.75      0.00
   -4    2   15     -1.54      0.00
   -4    2   16      5.74      0.00
   -4    2   17      2.93      0.00
   -4    2   18     -2.50      0.00
   -4    2   19     -3.51      0.00
    3   21    3      1.99      0.00
    3   21    2      0.26      0.00
    3   21    1     -2.84      0.00
    3   21    0     -2.55      0.00
   -3   21    1     -2.25      0.00
   -3   21    2      3.38      0.00
   -3   21    3      1.57      0.00
    3   19    9     -0.93      0.00
    3   19    8     -0.23      0.00
    3   19    7     -0.01      0.00
    3   19    6      2.52      0.00
    3   19    5      0.66      0.00
    3   19    4     -3.06      0.00
    3   19    3      0.23      0.00
    3   19    2      3.00      0.00
    3   19    1     -0.96      0.00
    3   19    0     -2.96      0.00
   -3   19    1     -0.37      0.00
   -3   19    2      2.28      0.00
   -3   19    4     -1.33      0.00
   -3   19    5      0.50      0.00
   -3   19    6      1.24      0.00
   -3   19    7      0.47      0.00
   -3   19    8     -1.68      0.00
   -3   19    9     -1.10      0.00
    3   17   12      1.69      0.00
    3   17   11      0.40      0.00
    3   17   10     -1.59      0.00
    3   17    9     -0.59      0.00
    3   17    8     -0.92      0.00
    3   17    7     -0.54      0.00
    3   17    6      3.63      0.00
    3   17    5      1.71      0.00
    3   17    3     -1.94      0.00
    3   17    2      2.45      0.00
    3   17    1      2.32      0.00
    3   17    0     -0.60      0.00
   -3   17    1      3.61      0.00
   -3   17    2     -0.44      0.00
   -3   17    3     -4.69      0.00
   -3   17    4      0.04      0.00
   -3   17    5      3.41      0.00
   -3   17    6      2.21      0.00
   -3   17    7     -0.83      0.00
   -3   17    8     -4.27      0.00
   -3   17    9     -1.05      0.00
   -3   17   10      3.07      0.00
   -3   17   11      1.71      0.00
   -3   17   12      0.36      0.00
    3   15   14      0.21      0.00
    3   15   13      0.94      0.00
    3   15   12      0.24      0.00
    3   15   11     -0.13      0.00
    3   15   10     -0.12      0.00
    3   15    9      0.38      0.00
    3   15    8     -1.25      0.00
    3   15    7     -1.54      0.00
    3   15    6      2.66      0.00
    3   15    5      2.63      0.00
    3   15    4     -2.12      0.00
    3   15    3     -3.18      0.00
    3   15    2     -0.26      0.00
    3   15    0      2.50      0.00
   -3   15    1      4.20      0.00
   -3   15    2     -2.71      0.00
   -3   15    3     -3.50      0.00
   -3   15    4      0.84      0.00
   -3   15    5      1.30      0.00
   -3   15    6      2.31      0.00
   -3   15    7      1.04      0.00
   -3   15    8     -4.84      0.00
   -3   15    9     -1.77      0.00
   -3   15   10      4.38      0.00
   -3   15   11      0.99      0.00
   -3   15   12     -1.56      0.00
   -3   15   13     -0.03      0.00
   -3   15   14      0.23      0.00
   -3   15   15     -0.54      0.00
    3   13   16     -1.14      0.00
    3   13   15     -2.04      0.00
    3   13   14      1.26      0.00
    3   13   13      1.19      0.00
    3   13   12     -1.28      0.00
    3   13   11     -0.58      0.00
    3   13   10      1.18      0.00
    3   13    9      0.97      0.00
    3   13    8     -1.58      0.00
    3   13    7     -1.23      0.00
    3   13    6      2.11      0.00
    3   13    5      0.93      0.00
    3   13    4     -1.08      0.00
    3   13    3     -1.07      0.00
    3   13    2     -1.84      0.00
    3   13    1      1.57      0.00
    3   13    0      4.48      0.00
   -3   13    1      1.08      0.00
   -3   13    2     -4.51      0.00
   -3   13    3      1.48      0.00
   -3   13    4      2.06      0.00
   -3   13    5     -3.50      0.00
   -3   13    6      0.85      0.00
   -3   13    7      3.29      0.00
   -3   13    8     -3.22      0.00
   -3   13    9     -1.36      0.00
   -3   13   10      4.29      0.00
   -3   13   11     -0.48      0.00
   -3   13   12     -3.79      0.00
   -3   13   13      0.94      0.00
   -3   13   14      3.16      0.00
   -3   13   15     -0.44      0.00
   -3   13   16     -3.54      0.00
    3   11   18      1.18      0.00
    3   11   17      0.98      0.00
    3   11   16     -1.55      0.00
    3   11   15     -2.08      0.00
    3   11   14      1.39      0.00
    3   11   13      1.54      0.00
    3   11   12     -0.88      0.00
    3   11   11     -1.22      0.00
    3   11   10      0.86      0.00
    3   11    9      1.28      0.00
    3   11    8     -1.52      0.00
    3   11    7      0.53      0.00
    3   11    6      1.76      0.00
    3   11    5     -3.24      0.00
    3   11    4     -0.48      0.00
    3   11    3      2.97      0.00
    3   11    2     -1.95      0.00
    3   11    1     -0.20      0.00
    3   11    0      3.81      0.00
   -3   11    1      0.48      0.00
   -3   11    2     -3.72      0.00
   -3   11    3      2.43      0.00
   -3   11    4      1.48      0.00
   -3   11    5     -4.19      0.00
   -3   11    6      0.66      0.00
   -3   11    7      2.20      0.00
   -3   11    8     -2.29      0.00
   -3   11    9      1.05      0.00
   -3   11   10      3.69      0.00
   -3   11   11     -2.19      0.00
   -3   11   12     -4.47      0.00
   -3   11   13      0.93      0.00
   -3   11   14      4.44      0.00
   -3   11   15      0.63      0.00
   -3   11   16     -4.21      0.00
   -3   11   17     -0.85      0.00
   -3   11   18      3.74      0.00
    3    9   19      2.70      0.00
    3    9   18      1.28      0.00
    3    9   17      0.08      0.00
    3    9   16     -1.58      0.00
    3    9   15     -2.33      0.00
    3    9   13      2.54      0.00
    3    9   12      2.58      0.00
    3    9   11     -2.57      0.00
    3    9   10     -1.66      0.00
    3    9    9      2.19      0.00
    3    9    8     -0.51      0.00
    3    9    7      0.95      0.00
    3    9    6      0.45      0.00
    3    9    5     -4.57      0.00
    3    9    4      1.07      0.00
    3    9    3      3.36      0.00
    3    9    2     -1.05      0.00
    3    9    1      1.63      0.00
    3    9    0     -0.62      0.00
   -3    9    1      3.94      0.00
   -3    9    2      2.21      0.00
   -3    9    3     -1.33      0.00
   -3    9    4     -3.49      0.00
   -3    9    5     -1.02      0.00
   -3    9    6      3.74      0.00
   -3    9    7     -0.50      0.00
   -3    9    8     -3.34      0.00
   -3    9    9      3.39      0.00
   -3    9   10      2.97      0.00
   -3    9   11     -3.74      0.00
   -3    9   12     -2.84      0.00
   -3    9   13      1.39      0.00
   -3    9   14      2.76      0.00
   -3    9   15      0.75      0.00
   -3    9   16     -2.83      0.00
   -3    9   17     -0.80      0.00
   -3    9   18      2.88      0.00
   -3    9   19     -0.09      0.00
    3    7   20      0.98      0.00
    3    7   19      3.91      0.00
    3    7   18      0.94      0.00
    3    7   17     -0.51      0.00
    3    7   16     -1.12      0.00
    3    7   15     -2.87      0.00
    3    7   14     -3.33      0.00
    3    7   10     -4.79      0.00
    3    7    9      3.20      0.00
    3    7    8      0.36      0.00
    3    7    7     -0.71      0.00
    3    7    6      0.07      0.00
    3    7    5     -1.55      0.00
    3    7    4      1.04      0.00
    3    7    3     -0.02      0.00
    3    7    2      1.72      0.00
    3    7    1      3.94      0.00
    3    7    0     -6.88      0.00
   -3    7    1      5.23      0.00
   -3    7    2      9.69      0.00
   -3    7    3     -2.55      0.00
   -3    7    4     -9.07      0.00
   -3    7    5     -0.10      0.00
   -3    7    6      6.75      0.00
   -3    7    7     -0.72      0.00
   -3    7    8     -4.24      0.00
   -3    7    9      3.63      0.00
   -3    7   10      2.14      0.00
   -3    7   11     -4.88      0.00
   -3    7   12     -0.78      0.00
   -3    7   13      3.14      0.00
   -3    7   14      0.42      0.00
   -3    7   15     -0.86      0.00
   -3    7   16     -1.20      0.00
   -3    7   17      0.38      0.00
   -3    7   18      2.25      0.00
   -3    7   19     -0.72      0.00
   -3    7   20     -1.92      0.00
    3    5   20      2.52      0.00
    3    5   19      3.02      0.00
    3    5   18      0.67      0.00
    3    5   17      0.08      0.00
    3    5   16     -1.82      0.00
    3    5   15     -3.50      0.00
    3    5   14     -3.59      0.00
    3    5   13      4.55      0.00
    3    5   11     -3.89      0.00
    3    5   10     -5.56      0.00
    3    5    9      2.89      0.00
    3    5    8     -0.52      0.00
    3    5    7     -1.45      0.00
    3    5    6      1.78      0.00
    3    5    5      0.19      0.00
    3    5    4     -0.97      0.00
    3    5    3     -0.59      0.00
    3    5    2      4.48      0.00
    3    5    1      1.82      0.00
    3    5    0    -10.23      0.00
   -3    5    1      1.25      0.00
   -3    5    2     12.14      0.00
   -3    5    3      1.01      0.00
   -3    5    4     -9.45      0.00
   -3    5    5     -2.70      0.00
   -3    5    6      5.79      0.00
   -3    5    7      1.38      0.00
   -3    5    8     -3.43      0.00
   -3    5    9      2.34      0.00
   -3    5   10      2.08      0.00
   -3    5   11     -5.08      0.00
   -3    5   12     -0.72      0.00
   -3    5   13      4.44      0.00
   -3    5   14     -0.26      0.00
   -3    5   15     -2.07      0.00
   -3    5   16     -0.57      0.00
   -3    5   17      0.92      0.00
   -3    5   18      2.39      0.00
   -3    5   19     -0.82      0.00
   -3    5   20     -2.25      0.00
    3    3   21     -1.15      0.00
    3    3   20      2.92      0.00
    3    3   19      0.87      0.00
    3    3   18      2.09      0.00
    3    3   17      1.15      0.00
    3    3   16     -5.37      0.00
    3    3   15     -3.32      0.00
    3    3   14      0.44      0.00
    3    3   13      3.56      0.00
    3    3   12      5.40      0.00
    3    3   10     -2.94      0.00
    3    3    9      1.46      0.00
    3    3    8     -2.90      0.00
    3    3    7     -0.31      0.00
    3    3    6      3.10      0.00
    3    3    5     -1.31      0.00
    3    3    4     -0.64      0.00
    3    3    3      2.31      0.00
    3    3    2      3.10      0.00
    3    3    1     -2.33      0.00
    3    3    0     -8.40      0.00
   -3    3    1     -2.87      0.00
   -3    3    2      9.11      0.00
   -3    3    3      3.85      0.00
   -3    3    4     -5.36      0.00
   -3    3    5     -4.25      0.00
   -3    3    6      2.21      0.00
   -3    3    7      2.48      0.00
   -3    3    8     -2.32      0.00
   -3    3    9      1.10      0.00
   -3    3   10      3.47      0.00
   -3    3   11     -3.86      0.00
   -3    3   12     -2.50      0.00
   -3    3   13      3.60      0.00
   -3    3   14      0.08      0.00
   -3    3   15     -1.48      0.00
   -3    3   16      0.08      0.00
   -3    3   17      0.24      0.00
   -3    3   18      2.27      0.00
   -3    3   19     -0.27      0.00
   -3    3   20     -2.85      0.00
   -3    3   21      0.14      0.00
    3    1   21     -0.02      0.00
    3    1   20      2.40      0.00
    3    1   19     -0.14      0.00
    3    1   18      4.21      0.00
    3    1   17      0.74      0.00
    3    1   16     -9.40      0.00
    3    1   15     -1.39      0.00
    3    1   14      5.14      0.00
    3    1   13      1.33      0.00
    3    1   12      1.34      0.00
    3    1   11     -0.79      0.00
    3    1   10      0.22      0.00
    3    1    9      0.37      0.00
    3    1    8     -4.90      0.00
    3    1    7      0.20      0.00
    3    1    6      2.90      0.00
    3    1    5     -1.23      0.00
    3    1    4      2.03      0.00
    3    1    3      2.03      0.00
    3    1    2     -0.68      0.00
    3    1    1     -2.03      0.00
    3    1    0     -4.85      0.00
   -3    1    1     -1.95      0.00
   -3    1    2      5.80      0.00
   -3    1    3      2.05      0.00
   -3    1    4     -1.99      0.00
   -3    1    5     -1.98      0.00
   -3    1    6     -0.22      0.00
   -3    1    7      1.19      0.00
   -3    1    8     -2.11      0.00
   -3    1    9      0.31      0.00
   -3    1   10      5.09      0.00
   -3    1   11     -1.45      0.00
   -3    1   12     -3.99      0.00
   -3    1   13      1.27      0.00
   -3    1   14      0.05      0.00
   -3    1   15     -0.32      0.00
   -3    1   16      1.11      0.00
   -3    1   17     -0.17      0.00
   -3    1   18      1.68      0.00
   -3    1   19      0.02      0.00
   -3    1   20     -3.22      0.00
   -3    1   21      0.11      0.00
    2   22    4     -2.00      0.00
    2   22    3      0.86      0.00
    2   22    2      3.09      0.00
    2   22    1     -1.31      0.00
    2   22    0     -1.89      0.00
   -2   22    1     -1.17      0.00
   -2   22    3     -0.18      0.00
   -2   22    4     -0.11      0.00
    2   20   10      0.04      0.00
    2   20    9     -0.49      0.00
    2   20    8      0.34      0.00
    2   20    7     -0.67      0.00
    2   20    6     -0.18      0.00
    2   20    5      0.46      0.00
    2   20    4     -1.44      0.00
    2   20    3     -0.35      0.00
    2   20    2      2.92      0.00
    2   20    1      1.29      0.00
    2   20    0     -2.80      0.00
   -2   20    4     -2.05      0.00
   -2   20    5      1.16      0.00
   -2   20    6      2.15      0.00
   -2   20    7      1.96      0.00
   -2   20    8     -1.90      0.00
   -2   20    9     -4.37      0.00
    2   18   13     -2.21      0.00
    2   18   12      1.48      0.00
    2   18   11      2.16      0.00
    2   18   10     -0.24      0.00
    2   18    9     -0.62      0.00
    2   18    8     -0.28      0.00
    2   18    7     -0.51      0.00
    2   18    6     -0.39      0.00
    2   18    5      0.41      0.00
    2   18    4      0.46      0.00
    2   18    3     -0.37      0.00
    2   18    2      0.68      0.00
    2   18    1      1.16      0.00
    2   18    0     -1.90      0.00
   -2   18    4     -1.94      0.00
   -2   18    5     -1.14      0.00
   -2   18    6      0.70      0.00
   -2   18    7      4.19      0.00
   -2   18    8     -0.08      0.00
   -2   18    9     -5.81      0.00
   -2   18   10      1.38      0.00
   -2   18   11      3.99      0.00
   -2   18   12     -3.73      0.00
   -2   18   13     -0.57      0.00
    2   16   15      0.89      0.00
    2   16   14     -2.15      0.00
    2   16   13     -2.16      0.00
    2   16   12      2.36      0.00
    2   16   11      2.31      0.00
    2   16   10     -0.78      0.00
    2   16    8     -0.15      0.00
    2   16    7      1.11      0.00
    2   16    6     -1.10      0.00
    2   16    5     -1.37      0.00
    2   16    4      2.31      0.00
    2   16    3      1.84      0.00
    2   16    2     -1.44      0.00
    2   16    1     -2.18      0.00
   -2   16    5     -3.13      0.00
   -2   16    6     -0.93      0.00
   -2   16    7      4.31      0.00
   -2   16    8      0.63      0.00
   -2   16    9     -5.41      0.00
   -2   16   10      1.66      0.00
   -2   16   11      4.71      0.00
   -2   16   12     -4.73      0.00
   -2   16   13     -2.42      0.00
   -2   16   14      5.21      0.00
   -2   16   15      0.82      0.00
    2   14   17      0.75      0.00
    2   14   16      1.44      0.00
    2   14   15      1.82      0.00
    2   14   14     -2.49      0.00
    2   14   13     -3.48      0.00
    2   14   12      2.97      0.00
    2   14   11      3.46      0.00
    2   14   10     -2.24      0.00
    2   14    9     -2.90      0.00
    2   14    8      2.08      0.00
    2   14    7      2.63      0.00
    2   14    6     -3.15      0.00
    2   14    5     -2.76      0.00
    2   14    4      3.05      0.00
    2   14    3      3.72      0.00
    2   14    2     -0.58      0.00
    2   14    1     -5.38      0.00
   -2   14    3      4.98      0.00
   -2   14    4     -0.63      0.00
   -2   14    5     -3.52      0.00
   -2   14    6      0.66      0.00
   -2   14    7      3.55      0.00
   -2   14    8     -1.49      0.00
   -2   14    9     -5.02      0.00
   -2   14   10      2.28      0.00
   -2   14   11      5.90      0.00
   -2   14   12     -3.16      0.00
   -2   14   13     -4.97      0.00
   -2   14   14      3.09      0.00
   -2   14   15      3.34      0.00
   -2   14   16     -0.85      0.00
   -2   14   17     -2.43      0.00
    2   12   18     -0.16      0.00
    2   12   17     -0.38      0.00
    2   12   16      1.33      0.00
    2   12   15      3.95      0.00
    2   12   14     -2.37      0.00
    2   12   13     -5.65      0.00
    2   12   12      2.76      0.00
    2   12   11      4.54      0.00
    2   12   10     -3.17      0.00
    2   12    9     -2.75      0.00
    2   12    8      4.22      0.00
    2   12    7      1.39      0.00
    2   12    6     -4.30      0.00
    2   12    5     -0.88      0.00
    2   12    4      1.44      0.00
    2   12    3      2.61      0.00
    2   12    2      2.79      0.00
    2   12    1     -6.11      0.00
    2   12    0     -4.73      0.00
   -2   12    1     -7.62      0.00
   -2   12    2      3.81      0.00
   -2   12    3      6.33      0.00
   -2   12    4     -2.78      0.00
   -2   12    5     -4.28      0.00
   -2   12    6      3.28      0.00
   -2   12    7      3.95      0.00
   -2   12    8     -3.30      0.00
   -2   12    9     -5.14      0.00
   -2   12   10      1.47      0.00
   -2   12   11      6.01      0.00
   -2   12   12      0.30      0.00
   -2   12   13     -5.41      0.00
   -2   12   14     -0.64      0.00
   -2   12   15      4.02      0.00
   -2   12   16      0.94      0.00
   -2   12   17     -3.15      0.00
   -2   12   18     -1.86      0.00
   -2   12   19      2.54      0.00
    2   10   20     -1.57      0.00
    2   10   19      0.88      0.00
    2   10   18      0.33      0.00
    2   10   17     -2.44      0.00
    2   10   16      1.67      0.00
    2   10   15      6.00      0.00
    2   10   14     -1.82      0.00
    2   10   13     -7.14      0.00
    2   10   12      0.75      0.00
    2   10   11      4.81      0.00
    2   10   10     -1.55      0.00
    2   10    9     -1.81      0.00
    2   10    8      3.63      0.00
    2   10    7     -0.27      0.00
    2   10    6     -2.85      0.00
    2   10    5      0.93      0.00
    2   10    4     -1.33      0.00
    2   10    3      0.94      0.00
    2   10    2      4.34      0.00
    2   10    1     -4.70      0.00
    2   10    0     -3.52      0.00
   -2   10    1     -7.07      0.00
   -2   10    3      7.11      0.00
   -2   10    4     -1.19      0.00
   -2   10    5     -5.89      0.00
   -2   10    6      2.26      0.00
   -2   10    7      4.83      0.00
   -2   10    8     -1.91      0.00
   -2   10    9     -4.45      0.00
   -2   10   10     -0.65      0.00
   -2   10   11      4.52      0.00
   -2   10   12      2.87      0.00
   -2   10   13     -4.18      0.00
   -2   10   14     -2.61      0.00
   -2   10   15      3.26      0.00
   -2   10   16      1.24      0.00
   -2   10   17     -2.75      0.00
   -2   10   18     -1.08      0.00
   -2   10   19      2.38      0.00
   -2   10   20      1.83      0.00
    2    8   20     -1.95      0.00
    2    8   19      2.17      0.00
    2    8   18     -0.29      0.00
    2    8   17     -3.41      0.00
    2    8   16      2.91      0.00
    2    8   15      6.61      0.00
    2    8   14     -1.17      0.00
    2    8   13     -7.65      0.00
    2    8   12     -2.32      0.00
    2    8   11      5.48      0.00
    2    8   10      1.40      0.00
    2    8    9     -2.86      0.00
    2    8    8      2.50      0.00
    2    8    7      1.56      0.00
    2    8    6     -2.88      0.00
    2    8    5     -1.36      0.00
    2    8    4     -0.14      0.00
    2    8    3      1.85      0.00
    2    8    2      0.68      0.00
    2    8    1     -2.88      0.00
    2    8    0      2.30      0.00
   -2    8    1     -4.44      0.00
   -2    8    2     -4.34      0.00
   -2    8    3      6.07      0.00
   -2    8    4      3.33      0.00
   -2    8    5     -6.32      0.00
   -2    8    6     -1.10      0.00
   -2    8    7      4.47      0.00
   -2    8    8      0.31      0.00
   -2    8    9     -2.83      0.00
   -2    8   10     -1.75      0.00
   -2    8   11      3.38      0.00
   -2    8   12      3.52      0.00
   -2    8   13     -4.22      0.00
   -2    8   14     -2.97      0.00
   -2    8   15      3.42      0.00
   -2    8   16      0.53      0.00
   -2    8   17     -2.36      0.00
   -2    8   18      0.52      0.00
   -2    8   19      1.80      0.00
   -2    8   20      0.92      0.00
   -2    8   21     -0.10      0.00
    2    6   21     -3.02      0.00
    2    6   20     -2.68      0.00
    2    6   19      2.08      0.00
    2    6   18     -0.79      0.00
    2    6   17     -2.95      0.00
    2    6   15      5.76      0.00
    2    6   12     -4.55      0.00
    2    6   11      7.13      0.00
    2    6   10      2.48      0.00
    2    6    9     -5.66      0.00
    2    6    8      3.99      0.00
    2    6    7      4.20      0.00
    2    6    6     -6.52      0.00
    2    6    5     -3.09      0.00
    2    6    4      5.16      0.00
    2    6    3      2.47      0.00
    2    6    2     -5.47      0.00
    2    6    1     -2.43      0.00
    2    6    0      7.44      0.00
   -2    6    1     -3.51      0.00
   -2    6    2     -7.30      0.00
   -2    6    3      5.40      0.00
   -2    6    4      4.56      0.00
   -2    6    5     -5.66      0.00
   -2    6    6     -1.18      0.00
   -2    6    7      3.24      0.00
   -2    6    8     -0.83      0.00
   -2    6    9     -1.73      0.00
   -2    6   10     -0.35      0.00
   -2    6   11      3.63      0.00
   -2    6   12      3.52      0.00
   -2    6   13     -5.42      0.00
   -2    6   14     -4.14      0.00
   -2    6   15      3.94      0.00
   -2    6   16      0.87      0.00
   -2    6   17     -1.80      0.00
   -2    6   18      1.84      0.00
   -2    6   19      1.15      0.00
   -2    6   20     -0.80      0.00
   -2    6   21      0.08      0.00
    2    4   22      2.59      0.00
    2    4   21     -2.58      0.00
    2    4   20     -3.37      0.00
    2    4   19      1.96      0.00
    2    4   18     -0.65      0.00
    2    4   17     -2.33      0.00
    2    4   16      3.18      0.00
    2    4   15      4.26      0.00
    2    4   14      1.33      0.00
    2    4   12     -5.57      0.00
    2    4   10      1.24      0.00
    2    4    9     -6.78      0.00
    2    4    8      5.79      0.00
    2    4    7      2.99      0.00
    2    4    6     -6.73      0.00
    2    4    5      0.64      0.00
    2    4    4      5.23      0.00
    2    4    3     -0.41      0.00
    2    4    2     -7.74      0.00
    2    4    1     -3.20      0.00
    2    4    0     10.59      0.00
   -2    4    1     -6.37      0.00
   -2    4    2     -7.99      0.00
   -2    4    3      7.20      0.00
   -2    4    4      2.03      0.00
   -2    4    5     -5.37      0.00
   -2    4    6      3.27      0.00
   -2    4    7      2.36      0.00
   -2    4    8     -5.55      0.00
   -2    4    9     -1.49      0.00
   -2    4   10      2.85      0.00
   -2    4   11      3.70      0.00
   -2    4   12      3.14      0.00
   -2    4   13     -4.99      0.00
   -2    4   14     -5.63      0.00
   -2    4   15      2.79      0.00
   -2    4   16      1.77      0.00
   -2    4   17     -0.42      0.00
   -2    4   18      2.57      0.00
   -2    4   19      0.48      0.00
   -2    4   20     -2.16      0.00
   -2    4   21     -0.50      0.00
   -2    4   22     -0.59      0.00
    2    2   22      2.72      0.00
    2    2   21     -1.74      0.00
    2    2   20     -3.10      0.00
    2    2   19      1.61      0.00
    2    2   18     -0.60      0.00
    2    2   17     -1.61      0.00
    2    2   16      1.74      0.00
    2    2   15      2.37      0.00
    2    2   14      3.69      0.00
    2    2   13     -3.88      0.00
    2    2   12     -6.23      0.00
    2    2   11      5.31      0.00
    2    2   10     -0.21      0.00
    2    2    9     -4.46      0.00
    2    2    8      4.74      0.00
    2    2    7      0.29      0.00
    2    2    6      0.41      0.00
    2    2    5      3.72      0.00
    2    2    4     -3.65      0.00
    2    2    2     -4.66      0.00
    2    2    1     -2.67      0.00
    2    2    0     13.80      0.00
   -2    2    1     -6.74      0.00
   -2    2    2    -10.92      0.00
   -2    2    3      6.63      0.00
   -2    2    4      0.34      0.00
   -2    2    5     -3.96      0.00
   -2    2    6      8.20      0.00
   -2    2    7      1.42      0.00
   -2    2    8    -10.48      0.00
   -2    2    9     -0.96      0.00
   -2    2   10      6.09      0.00
   -2    2   11      2.27      0.00
   -2    2   12      1.85      0.00
   -2    2   13     -2.65      0.00
   -2    2   14     -5.53      0.00
   -2    2   15      0.93      0.00
   -2    2   16      1.62      0.00
   -2    2   17      0.51      0.00
   -2    2   18      3.11      0.00
   -2    2   19      0.04      0.00
   -2    2   20     -2.44      0.00
   -2    2   21     -0.73      0.00
   -2    2   22     -0.84      0.00
    1   23    1      2.93      0.00
    1   23    0      3.27      0.00
    1   21    9      2.30      0.00
    1   21    8      0.84      0.00
    1   21    7     -2.25      0.00
    1   21    6     -1.19      0.00
    1   21    5      2.20      0.00
    1   21    4      2.43      0.00
    1   21    3     -2.45      0.00
    1   21    2     -3.44      0.00
    1   21    1      2.78      0.00
   -1   21    3     -2.30      0.00
   -1   21    4      3.39      0.00
   -1   21    5      1.55      0.00
   -1   21    6     -3.20      0.00
   -1   21    7     -2.06      0.00
   -1   21    9      3.36      0.00
    1   19   13      0.32      0.00
    1   19   12     -0.04      0.00
    1   19   11     -2.68      0.00
    1   19   10      0.53      0.00
    1   19    9      4.92      0.00
    1   19    8      0.45      0.00
    1   19    7     -5.90      0.00
    1   19    6     -1.54      0.00
    1   19    5      5.41      0.00
    1   19    4      2.07      0.00
    1   19    3     -3.78      0.00
    1   19    2     -2.04      0.00
   -1   19    4      2.48      0.00
   -1   19    5      2.47      0.00
   -1   19    6     -1.47      0.00
   -1   19    7     -3.25      0.00
   -1   19    8     -0.36      0.00
   -1   19    9      4.35      0.00
   -1   19   10      1.55      0.00
   -1   19   11     -3.89      0.00
   -1   19   12     -1.01      0.00
   -1   19   13      1.59      0.00
    1   17   15      0.02      0.00
    1   17   14     -1.57      0.00
    1   17   13      0.89      0.00
    1   17   12     -1.47      0.00
    1   17   11     -3.08      0.00
    1   17   10      1.51      0.00
    1   17    9      5.45      0.00
    1   17    8      0.41      0.00
    1   17    7     -6.93      0.00
    1   17    6     -0.97      0.00
    1   17    5      6.88      0.00
    1   17    4     -0.19      0.00
    1   17    3     -5.64      0.00
    1   17    2      1.16      0.00
   -1   17    4      0.83      0.00
   -1   17    5      2.37      0.00
   -1   17    6     -0.17      0.00
   -1   17    7     -0.71      0.00
   -1   17    8     -1.10      0.00
   -1   17    9      1.23      0.00
   -1   17   10      1.67      0.00
   -1   17   11     -2.38      0.00
   -1   17   12     -0.46      0.00
   -1   17   13      2.10      0.00
   -1   17   14     -1.26      0.00
   -1   17   15     -0.92      0.00
    1   15   17      0.62      0.00
    1   15   16      4.05      0.00
    1   15   15     -1.15      0.00
    1   15   14     -0.94      0.00
    1   15   13      2.25      0.00
    1   15   12     -1.96      0.00
    1   15   11     -3.12      0.00
    1   15   10      1.75      0.00
    1   15    9      4.00      0.00
    1   15    8     -0.70      0.00
    1   15    7     -5.56      0.00
    1   15    6      1.92      0.00
    1   15    5      7.62      0.00
    1   15    4     -3.94      0.00
    1   15    3     -9.85      0.00
   -1   15    5      3.72      0.00
   -1   15    6     -0.53      0.00
   -1   15    7      1.18      0.00
   -1   15    8      1.06      0.00
   -1   15    9     -1.35      0.00
   -1   15   10     -0.34      0.00
   -1   15   11     -1.33      0.00
   -1   15   12      0.36      0.00
   -1   15   13      2.89      0.00
   -1   15   14     -1.67      0.00
   -1   15   15     -2.47      0.00
   -1   15   16      2.09      0.00
   -1   15   17      1.67      0.00
    1   13   19     -0.45      0.00
    1   13   18     -3.81      0.00
    1   13   17      0.13      0.00
    1   13   16      2.51      0.00
    1   13   15     -2.13      0.00
    1   13   14      0.18      0.00
    1   13   13      3.63      0.00
    1   13   12     -1.77      0.00
    1   13   11     -2.42      0.00
    1   13   10      1.83      0.00
    1   13    9      0.94      0.00
    1   13    8     -3.14      0.00
    1   13    7     -2.68      0.00
    1   13    6      6.12      0.00
    1   13    5      8.16      0.00
    1   13    4     -7.10      0.00
    1   13    3    -15.49      0.00
   -1   13    2      3.13      0.00
   -1   13    3    -16.39      0.00
   -1   13    4     -2.80      0.00
   -1   13    5      7.68      0.00
   -1   13    6     -0.12      0.00
   -1   13    7     -1.41      0.00
   -1   13    8      2.44      0.00
   -1   13    9      0.22      0.00
   -1   13   10     -1.37      0.00
   -1   13   11     -1.84      0.00
   -1   13   12     -0.33      0.00
   -1   13   13      2.57      0.00
   -1   13   14     -0.29      0.00
   -1   13   15     -1.94      0.00
   -1   13   16      1.57      0.00
   -1   13   17      2.01      0.00
   -1   13   18     -1.29      0.00
   -1   13   19     -2.85      0.00
    1   11   20      2.20      0.00
    1   11   19      0.42      0.00
    1   11   18     -1.63      0.00
    1   11   17     -0.41      0.00
    1   11   16     -0.13      0.00
    1   11   15     -2.93      0.00
    1   11   14      1.06      0.00
    1   11   13      4.33      0.00
    1   11   12     -0.33      0.00
    1   11   11     -0.89      0.00
    1   11   10      0.62      0.00
    1   11    9     -2.45      0.00
    1   11    8     -4.14      0.00
    1   11    7     -0.10      0.00
    1   11    6      7.84      0.00
    1   11    5      8.39      0.00
    1   11    4     -7.49      0.00
    1   11    3    -17.86      0.00
    1   11    2      4.69      0.00
    1   11    1     23.49      0.00
    1   11    0     -4.42      0.00
   -1   11    1     22.68      0.00
   -1   11    2      6.84      0.00
   -1   11    3    -17.03      0.00
   -1   11    4     -7.46      0.00
   -1   11    5     10.36      0.00
   -1   11    6      4.06      0.00
   -1   11    7     -5.49      0.00
   -1   11    8     -0.23      0.00
   -1   11    9      3.08      0.00
   -1   11   10     -0.30      0.00
   -1   11   11     -2.11      0.00
   -1   11   12     -0.99      0.00
   -1   11   13      0.80      0.00
   -1   11   14      0.89      0.00
   -1   11   15      0.64      0.00
   -1   11   16      0.33      0.00
   -1   11   17      0.21      0.00
   -1   11   18     -0.62      0.00
   -1   11   19     -3.18      0.00
   -1   11   20      0.10      0.00
    1    9   21     -0.13      0.00
    1    9   20     -0.53      0.00
    1    9   19      1.80      0.00
    1    9   18      1.75      0.00
    1    9   17     -0.48      0.00
    1    9   16     -3.07      0.00
    1    9   15     -4.04      0.00
    1    9   14      1.50      0.00
    1    9   13      5.05      0.00
    1    9   12      1.80      0.00
    1    9   11     -0.16      0.00
    1    9   10     -1.53      0.00
    1    9    9     -3.70      0.00
    1    9    8     -3.37      0.00
    1    9    7      0.19      0.00
    1    9    6      7.32      0.00
    1    9    5      8.20      0.00
    1    9    4     -6.84      0.00
    1    9    3    -14.29      0.00
    1    9    2      5.29      0.00
    1    9    1     14.48      0.00
    1    9    0     -6.67      0.00
   -1    9    1     11.61      0.00
   -1    9    2      9.97      0.00
   -1    9    3     -9.36      0.00
   -1    9    4    -12.06      0.00
   -1    9    5      8.34      0.00
   -1    9    6     10.43      0.00
   -1    9    7     -6.04      0.00
   -1    9    8     -5.76      0.00
   -1    9    9      2.89      0.00
   -1    9   10      1.47      0.00
   -1    9   11     -1.22      0.00
   -1    9   12     -0.08      0.00
   -1    9   13      0.19      0.00
   -1    9   14      0.68      0.00
   -1    9   15      1.66      0.00
   -1    9   16     -1.11      0.00
   -1    9   17     -1.77      0.00
   -1    9   18      0.93      0.00
   -1    9   19     -1.40      0.00
   -1    9   20     -0.72      0.00
   -1    9   21      3.89      0.00
    1    7   22      2.17      0.00
    1    7   21     -2.85      0.00
    1    7   20     -2.53      0.00
    1    7   19      3.55      0.00
    1    7   18      4.22      0.00
    1    7   17     -0.63      0.00
    1    7   16     -5.53      0.00
    1    7   15     -4.57      0.00
    1    7   14      2.97      0.00
    1    7   13      5.53      0.00
    1    7   12      1.08      0.00
    1    7   11     -0.75      0.00
    1    7   10     -0.60      0.00
    1    7    9     -3.18      0.00
    1    7    8     -4.23      0.00
    1    7    7      0.95      0.00
    1    7    6      7.84      0.00
    1    7    5      4.96      0.00
    1    7    4     -8.41      0.00
    1    7    3     -8.29      0.00
    1    7    2      8.08      0.00
    1    7    1      6.74      0.00
    1    7    0     -7.60      0.00
   -1    7    1      4.55      0.00
   -1    7    2      7.29      0.00
   -1    7    3     -4.64      0.00
   -1    7    4     -9.90      0.00
   -1    7    5      5.56      0.00
   -1    7    6     12.78      0.00
   -1    7    7     -3.04      0.00
   -1    7    8    -10.27      0.00
   -1    7    9     -0.58      0.00
   -1    7   10      3.48      0.00
   -1    7   11      0.27      0.00
   -1    7   12      0.27      0.00
   -1    7   13      1.74      0.00
   -1    7   14      1.41      0.00
   -1    7   15     -0.42      0.00
   -1    7   16     -3.64      0.00
   -1    7   17     -1.99      0.00
   -1    7   18      3.02      0.00
   -1    7   19      0.87      0.00
   -1    7   20     -1.25      0.00
   -1    7   21      1.59      0.00
   -1    7   22      0.32      0.00
    1    5   22      2.44      0.00
    1    5   21     -4.15      0.00
    1    5   20     -2.69      0.00
    1    5   19      4.15      0.00
    1    5   18      4.67      0.00
    1    5   17     -1.09      0.00
    1    5   16     -6.80      0.00
    1    5   15     -3.15      0.00
    1    5   14      6.08      0.00
    1    5   13      4.09      0.00
    1    5   12     -4.74      0.00
    1    5   11     -0.74      0.00
    1    5   10      5.61      0.00
    1    5    9     -3.92      0.00
    1    5    8     -6.06      0.00
    1    5    7      6.28      0.00
    1    5    6      5.65      0.00
    1    5    5     -3.39      0.00
    1    5    4     -9.71      0.00
    1    5    3     -4.75      0.00
    1    5    2     16.49      0.00
    1    5    1     13.00      0.00
    1    5    0    -15.07      0.00
   -1    5    1     16.15      0.00
   -1    5    2      4.59      0.00
   -1    5    3    -13.28      0.00
   -1    5    4     -0.14      0.00
   -1    5    5      7.30      0.00
   -1    5    6      6.17      0.00
   -1    5    7     -0.01      0.00
   -1    5    8    -10.28      0.00
   -1    5    9     -4.40      0.00
   -1    5   10      5.91      0.00
   -1    5   11      2.13      0.00
   -1    5   12     -1.73      0.00
   -1    5   13      2.53      0.00
   -1    5   14      3.86      0.00
   -1    5   15     -2.39      0.00
   -1    5   16     -6.68      0.00
   -1    5   17     -1.04      0.00
   -1    5   18      4.98      0.00
   -1    5   19      1.61      0.00
   -1    5   20     -1.57      0.00
   -1    5   21      0.32      0.00
   -1    5   22      0.14      0.00
    1    3   22      2.80      0.00
    1    3   21     -2.99      0.00
    1    3   20     -2.74      0.00
    1    3   19      2.87      0.00
    1    3   18      4.21      0.00
    1    3   17     -1.18      0.00
    1    3   16     -6.70      0.00
    1    3   15     -0.82      0.00
    1    3   14      9.06      0.00
    1    3   13      1.34      0.00
    1    3   12    -12.72      0.00
    1    3   11      0.37      0.00
    1    3   10     13.49      0.00
    1    3    9     -5.12      0.00
    1    3    8     -4.03      0.00
    1    3    7     11.06      0.00
    1    3    6     -5.69      0.00
    1    3    5    -10.12      0.00
    1    3    4     -5.58      0.00
    1    3    3     -3.51      0.00
    1    3    2     31.67      0.00
    1    3    1     21.72      0.00
    1    3    0    -37.78      0.00
   -1    3    1     29.48      0.00
   -1    3    2     13.02      0.00
   -1    3    3    -22.65      0.00
   -1    3    4      9.85      0.00
   -1    3    5      9.69      0.00
   -1    3    6     -7.19      0.00
   -1    3    7      1.02      0.00
   -1    3    8     -5.42      0.00
   -1    3    9     -5.52      0.00
   -1    3   10      7.59      0.00
   -1    3   11      3.31      0.00
   -1    3   12     -3.92      0.00
   -1    3   13      1.15      0.00
   -1    3   14      5.10      0.00
   -1    3   15     -1.95      0.00
   -1    3   16     -7.80      0.00
   -1    3   17     -0.34      0.00
   -1    3   18      6.02      0.00
   -1    3   19      0.89      0.00
   -1    3   20     -2.54      0.00
   -1    3   21      0.62      0.00
   -1    3   22      1.27      0.00
   -1    3   23     -1.06      0.00
    1    1   23      0.73      0.00
    1    1   22      3.78      0.00
    1    1   21     -1.05      0.00
    1    1   20     -3.45      0.00
    1    1   19      0.94      0.00
    1    1   18      3.97      0.00
    1    1   17     -0.45      0.00
    1    1   16     -6.03      0.00
    1    1   14     10.39      0.00
    1    1   13      0.00      0.00
    1    1   12    -17.95      0.00
    1    1   11      0.52      0.00
    1    1   10     18.25      0.00
    1    1    9     -2.63      0.00
    1    1    8      0.48      0.00
    1    1    7      5.85      0.00
    1    1    6    -18.98      0.00
    1    1    4      0.79      0.00
    1    1    3     -1.45      0.00
    1    1    2     45.15      0.00
    1    1    1     11.59      0.00
    1    1    0    -61.82      0.00
   -1    1    1     15.90      0.00
   -1    1    2     26.38      0.00
   -1    1    3    -12.00      0.00
   -1    1    4     14.63      0.00
   -1    1    5      4.95      0.00
   -1    1    6    -18.19      0.00
   -1    1    7      0.45      0.00
   -1    1    8     -0.24      0.00
   -1    1    9     -2.61      0.00
   -1    1   10      7.98      0.00
   -1    1   11      1.84      0.00
   -1    1   12     -4.52      0.00
   -1    1   13      0.03      0.00
   -1    1   14      4.30      0.00
   -1    1   15     -0.64      0.00
   -1    1   16     -6.96      0.00
   -1    1   17     -0.03      0.00
   -1    1   18      6.13      0.00
   -1    1   19      0.19      0.00
   -1    1   20     -3.70      0.00
   -1    1   21      0.43      0.00
   -1    1   22      3.01      0.00
   -1    1   23     -0.67      0.00
    0   22    7      1.23      0.00
    0   22    6     -0.84      0.00
    0   22    5     -2.01      0.00
    0   22    4     -0.17      0.00
    0   22    3      2.90      0.00
    0   22    2      1.55      0.00
    0   20   12      1.27      0.00
    0   20   11      1.08      0.00
    0   20   10     -2.91      0.00
    0   20    9     -2.76      0.00
    0   20    8      2.91      0.00
    0   20    7      4.48      0.00
    0   20    6     -1.49      0.00
    0   20    5     -4.73      0.00
    0   20    4     -0.40      0.00
    0   20    3      2.66      0.00
    0   18   14      0.74      0.00
    0   18   13      0.38      0.00
    0   18   12      2.32      0.00
    0   18   11      1.00      0.00
    0   18   10     -3.98      0.00
    0   18    9     -4.10      0.00
    0   18    8      2.91      0.00
    0   18    7      7.11      0.00
    0   18    6     -0.56      0.00
    0   18    5     -6.95      0.00
    0   18    4     -1.33      0.00
    0   18    3      2.35      0.00
    0   16   17      0.00      0.00
    0   16   16     -1.99      0.00
    0   16   15      0.34      0.00
    0   16   14      0.15      0.00
    0   16   13     -1.46      0.00
    0   16   12      2.33      0.00
    0   16   11      3.27      0.00
    0   16   10     -2.13      0.00
    0   16    9     -5.69      0.00
    0   16    8     -0.07      0.00
    0   16    7      7.94      0.00
    0   16    6      1.30      0.00
    0   16    5     -7.55      0.00
    0   16    4     -1.08      0.00
    0   14   18      1.33      0.00
    0   14   17     -0.59      0.00
    0   14   16     -0.90      0.00
    0   14   15      2.58      0.00
    0   14   14     -1.44      0.00
    0   14   13     -5.53      0.00
    0   14   12      2.44      0.00
    0   14   11      6.86      0.00
    0   14   10     -0.20      0.00
    0   14    9     -6.47      0.00
    0   14    8     -1.74      0.00
    0   14    7      6.08      0.00
    0   14    6      0.10      0.00
    0   14    5     -5.85      0.00
    0   14    4      2.64      0.00
    0   12   20     -0.56      0.00
    0   12   19      2.07      0.00
    0   12   18      0.75      0.00
    0   12   17     -1.93      0.00
    0   12   16      0.62      0.00
    0   12   15      4.80      0.00
    0   12   14     -2.90      0.00
    0   12   13     -8.04      0.00
    0   12   12      3.16      0.00
    0   12   11      7.48      0.00
    0   12   10     -1.36      0.00
    0   12    9     -3.97      0.00
    0   12    8      1.67      0.00
    0   12    7      1.55      0.00
    0   12    6     -5.39      0.00
    0   12    5     -2.23      0.00
    0   12    4      8.04      0.00
    0   12    3      5.01      0.00
    0   12    2     -6.97      0.00
    0   12    1     -7.61      0.00
    0   12    0      5.78      0.00
    0   10   21     -3.51      0.00
    0   10   20      0.78      0.00
    0   10   19      3.20      0.00
    0   10   18     -0.88      0.00
    0   10   16      1.82      0.00
    0   10   15      6.01      0.00
    0   10   14     -3.01      0.00
    0   10   13     -7.53      0.00
    0   10   12      3.59      0.00
    0   10   11      4.15      0.00
    0   10   10     -4.78      0.00
    0   10    9      0.77      0.00
    0   10    8      7.83      0.00
    0   10    7     -2.55      0.00
    0   10    6    -10.50      0.00
    0   10    5      1.27      0.00
    0   10    4      9.38      0.00
    0   10    3      0.66      0.00
    0   10    2     -5.32      0.00
    0   10    1     -1.96      0.00
    0   10    0      3.07      0.00
    0    8   21     -2.53      0.00
    0    8   20      2.49      0.00
    0    8   19      2.46      0.00
    0    8   18     -3.07      0.00
    0    8   17     -3.52      0.00
    0    8   16      3.50      0.00
    0    8   15      6.44      0.00
    0    8   14     -3.39      0.00
    0    8   13     -5.94      0.00
    0    8   12      4.35      0.00
    0    8   11      0.50      0.00
    0    8   10     -8.03      0.00
    0    8    9      3.83      0.00
    0    8    8     11.86      0.00
    0    8    7     -3.68      0.00
    0    8    6    -11.53      0.00
    0    8    5      3.37      0.00
    0    8    4      7.59      0.00
    0    8    3     -6.55      0.00
    0    8    2     -4.25      0.00
    0    8    1     10.36      0.00
    0    6   22     -1.70      0.00
    0    6   21     -0.42      0.00
    0    6   20      2.75      0.00
    0    6   19      0.54      0.00
    0    6   18     -4.78      0.00
    0    6   17     -2.50      0.00
    0    6   16      6.06      0.00
    0    6   15      5.33      0.00
    0    6   14     -5.70      0.00
    0    6   13     -3.92      0.00
    0    6   12      6.46      0.00
    0    6   11     -1.42      0.00
    0    6   10     -9.45      0.00
    0    6    9      4.67      0.00
    0    6    8     10.65      0.00
    0    6    7     -4.54      0.00
    0    6    6    -10.32      0.00
    0    6    5      5.45      0.00
    0    6    4     17.27      0.00
    0    6    3     -8.98      0.00
    0    6    2    -32.84      0.00
    0    6    1     12.11      0.00
    0    6    0     41.72      0.00
    0    4   23     -0.64      0.00
    0    4   22     -0.87      0.00
    0    4   21      0.44      0.00
    0    4   20      2.29      0.00
    0    4   19     -0.55      0.00
    0    4   18     -5.55      0.00
    0    4   17     -0.86      0.00
    0    4   16      7.77      0.00
    0    4   15      2.47      0.00
    0    4   14     -7.66      0.00
    0    4   13     -1.03      0.00
    0    4   12      8.00      0.00
    0    4   11     -2.48      0.00
    0    4   10     -7.51      0.00
    0    4    9      5.16      0.00
    0    4    8      3.17      0.00
    0    4    7     -7.14      0.00
    0    4    6     -9.51      0.00
    0    4    5      7.71      0.00
    0    4    4     51.13      0.00
    0    4    3     -3.96      0.00
    0    4    2   -116.68      0.00
    0    4    1     -1.51      0.00
    0    2   23     -0.18      0.00
    0    2   22     -1.27      0.00
    0    2   21      0.14      0.00
    0    2   20      2.70      0.00
    0    2   19     -0.37      0.00
    0    2   18     -5.81      0.00
    0    2   17     -0.06      0.00
    0    2   16      7.45      0.00
    0    2   15      0.33      0.00
    0    2   14     -6.99      0.00
    0    2   13      0.72      0.00
    0    2   12      7.11      0.00
    0    2   11     -2.32      0.00
    0    2   10     -2.94      0.00
    0    2    9      4.17      0.00
    0    2    8     -7.31      0.00
    0    2    7     -6.74      0.00
    0    2    6     -9.03      0.00
    0    2    5      6.51      0.00
    0    2    4     95.78      0.00
    0    2    3      0.78      0.00
    0    2    2   -224.90      0.00
    0    2    1     -9.87      0.00
    0    2    0    289.24      0.00
    0    0    2   -276.14      0.00
    0    0    4    116.80      0.00
    0    0    6     -8.61      0.00
    0    0    8    -12.46      0.00
    0    0   10     -0.48      0.00
    0    0   12      6.15      0.00
    0    0   14     -6.00      0.00
    0    0   16      6.83      0.00
    0    0   18     -5.93      0.00
    0    0   20      3.35      0.00
    0    0   22     -2.00      0.00
    0   10   17     -3.19      0.00
    0   14    0      3.21      0.00
    0   14    1     -3.56      0.00
    0   14    2     -3.30      0.00
    0   14    3      4.78      0.00
    0   16    0     -0.30      0.00
    0   16    1      1.76      0.00
    0   16    2      0.66      0.00
    0   16    3      3.14      0.00
    0   18    1      2.92      0.00
    0   18    2      2.08      0.00
    0   20    0     -1.97      0.00
    0   20    1      0.09      0.00
    0   20    2      1.71      0.00
    0   22    0     -2.19      0.00
    0   22    1     -3.13      0.00
    1    1   15      0.06      0.00
   -1   13    1     22.06      0.00
    1   13    0     -2.98      0.00
    1   13    1     21.38      0.00
    1   13    2      4.81      0.00
   -1   15    4     -0.69      0.00
   -1   15    3     -9.92      0.00
   -1   15    2      1.42      0.00
   -1   15    1     12.91      0.00
    1   15    0     -2.81      0.00
    1   15    1     12.11      0.00
    1   15    2      4.00      0.00
   -1   17    3     -4.45      0.00
   -1   17    2     -0.42      0.00
   -1   17    1      4.88      0.00
    1   17    0     -1.00      0.00
    1   17    1      4.73      0.00
   -1   19    3     -2.29      0.00
   -1   19    1      2.03      0.00
    1   19    0      1.85      0.00
    1   19    1      2.28      0.00
   -1   21    8      2.13      0.00
   -1   21    2     -3.29      0.00
   -1   21    1      2.92      0.00
    1   21    0      3.44      0.00
   -1   23    1      3.38      0.00
   -2    0   22     -1.23      0.00
   -2    0   20     -2.31      0.00
   -2    0   18      3.33      0.00
   -2    0   16      1.21      0.00
   -2    0   14     -4.93      0.00
   -2    0   12      0.92      0.00
   -2    0   10      7.52      0.00
   -2    0    8    -12.54      0.00
   -2    0    6     10.23      0.00
   -2    0    4      0.16      0.00
   -2    0    2    -13.27      0.00
    2    0    0     15.43      0.00
    2    0    2     -2.09      0.00
    2    0    4     -9.70      0.00
    2    0    6      5.40      0.00
    2    0    8      3.39      0.00
    2    0   10     -0.66      0.00
    2    0   12     -6.56      0.00
    2    0   14      4.82      0.00
    2    0   16      1.04      0.00
    2    0   18     -0.68      0.00
    2    0   20     -2.71      0.00
    2    0   22      2.51      0.00
    2    4   11      7.81      0.00
    2    4   13     -6.51      0.00
    2    6   13     -7.57      0.00
    2    6   14     -0.37      0.00
    2    6   16      3.80      0.00
   -2   10    2      1.48      0.00
   -2   14    2      1.77      0.00
   -2   14    1     -6.01      0.00
    2   14    0     -1.67      0.00
   -2   16    4     -0.09      0.00
   -2   16    3      2.70      0.00
   -2   16    2      1.12      0.00
   -2   16    1     -2.48      0.00
    2   16    0     -0.28      0.00
    2   16    9     -1.58      0.00
   -2   18    3     -0.95      0.00
   -2   18    2      2.57      0.00
   -2   18    1      1.56      0.00
   -2   20   10      1.66      0.00
   -2   20    3     -2.46      0.00
   -2   20    2      2.19      0.00
   -2   20    1      2.07      0.00
   -2   22    2      0.32      0.00
    3    3   11     -2.46      0.00
    3    5   12      8.57      0.00
    3    7   11     -3.91      0.00
    3    7   12      7.12      0.00
    3    7   13      3.94      0.00
    3    9   14     -0.51      0.00
    3   15    1      3.61      0.00
   -3   19    3     -0.84      0.00
   -4    0   18     -2.38      0.00
   -4    0   16      5.82      0.00
   -4    0   14     -5.99      0.00
   -4    0   12      3.82      0.00
   -4    0   10     -0.79      0.00
   -4    0    8     -1.94      0.00
   -4    0    6      3.76      0.00
   -4    0    4     -4.74      0.00
   -4    0    2      5.51      0.00
    4    0    0     -6.70      0.00
    4    0    2      7.66      0.00
    4    0    4     -6.67      0.00
    4    0    6      4.22      0.00
    4    0    8     -3.05      0.00
    4    0   10      2.81      0.00
    4    0   12     -0.01      0.00
    4    0   14     -4.13      0.00
    4    0   16      3.67      0.00
    4    0   18      1.25      0.00
    4   10    9      2.59      0.00
    4   12   13      1.00      0.00
    4   14   10     -1.35      0.00
    4   14   12     -0.09      0.00
    4   16    2      0.01      0.00
    5    3   13      2.16      0.00
    5    3   16      1.38      0.00
    5    5    4      2.59      0.00
    5    5    5     -5.45      0.00
   -6    0   12      0.35      0.00
   -6    0   10      0.11      0.00
   -6    0    8     -2.39      0.00
   -6    0    6      3.56      0.00
   -6    0    4     -3.46      0.00
   -6    0    2      3.97      0.00
    6    0    0     -4.95      0.00
    6    0    2      4.61      0.00
    6    0    4     -2.76      0.00
    6    0    6      0.74      0.00
    6    0    8      0.74      0.00
    6    0   10     -1.58      0.00
    6    4    5      1.19      0.00
   -6    6   11      0.50      0.00
   -6    6    8     -2.20      0.00
    0    4    0    150.11      0.00
    7    7    0      1.50      0.00
    0    8    0      3.20      0.00
    7    9    0      1.96      0.00
    7   11    0      1.41      0.00
    6   14    0      1.58      0.00
    6   16    0      0.98      0.00
    5   17    0      0.86      0.00
    0   18    0     -1.94      0.00
    5   19    0     -0.38      0.00
    4   20    0      3.42      0.00
    4   22    0      2.96      0.00
    3   23    0     -0.11      0.00
   -7    7    1      0.27      0.00
    7    7    1     -0.25      0.00
   -7    9    1      1.08      0.00
    7    9    1     -0.25      0.00
   -7   11    1      1.46      0.00
   -5   11    1     -0.65      0.00
    7   11    1      0.21      0.00
   -6   14    1      2.33      0.00
    6   14    1      2.86      0.00
   -6   16    1      2.02      0.00
    6   16    1      2.97      0.00
   -5   17    1     -0.77      0.00
    5   17    1     -1.73      0.00
   -5   19    1      0.97      0.00
    5   19    1      0.25      0.00
   -4   20    1     -0.12      0.00
    4   20    1      1.68      0.00
   -4   22    1     -1.47      0.00
    4   22    1      0.49      0.00
   -3   23    1     -1.09      0.00
    3   23    1     -2.38      0.00
   -7    7    2     -1.30      0.00
    7    7    2     -1.05      0.00
   -7    9    2     -2.10      0.00
    7    9    2     -0.41      0.00
   -7   11    2     -2.53      0.00
    7   11    2      0.62      0.00
   -6   14    2     -1.24      0.00
    6   14    2     -1.73      0.00
   -6   16    2     -1.50      0.00
    6   16    2     -0.54      0.00
   -5   17    2     -2.95      0.00
    5   17    2     -0.48      0.00
   -5   19    2     -1.52      0.00
   -1   19    2     -2.36      0.00
    5   19    2      0.82      0.00
   -4   20    2     -2.17      0.00
    4   20    2     -2.84      0.00
   -4   22    2     -2.97      0.00
    4   22    2     -1.41      0.00
   -3   23    2      1.49      0.00
   -1   23    2     -3.23      0.00
    1   23    2     -2.75      0.00
    3   23    2     -2.20      0.00
    2    2    3     -2.71      0.00
   -7    7    3      0.85      0.00
    7    7    3      0.48      0.00
   -7    9    3     -0.72      0.00
    7    9    3      0.16      0.00
   -7   11    3     -1.56      0.00
    7   11    3     -0.40      0.00
   -6   14    3     -0.99      0.00
    6   14    3     -2.36      0.00
   -6   16    3     -0.59      0.00
    6   16    3     -2.20      0.00
   -5   17    3     -0.59      0.00
    5   17    3      0.34      0.00
   -5   19    3     -1.42      0.00
    5   19    3     -0.52      0.00
   -4   20    3      0.84      0.00
    4   20    3     -0.29      0.00
   -3   23    3      0.40      0.00
   -1   23    3     -2.18      0.00
    1   23    3     -0.96      0.00
    3   23    3      2.50      0.00
    7    5    4      1.97      0.00
   -7    7    4      0.64      0.00
    7    7    4      0.70      0.00
   -7    9    4      0.74      0.00
    7    9    4     -0.57      0.00
   -7   11    4      1.53      0.00
    7   11    4     -1.19      0.00
   -6   14    4      1.01      0.00
    6   14    4      0.77      0.00
   -6   16    4      1.26      0.00
    6   16    4     -0.13      0.00
   -5   17    4      2.90      0.00
    3   17    4     -3.99      0.00
    5   17    4      0.42      0.00
   -5   19    4      1.63      0.00
    5   19    4     -0.09      0.00
   -4   20    4      0.58      0.00
    4   20    4      1.11      0.00
   -3   21    4     -2.56      0.00
    3   21    4      0.85      0.00
   -3   23    4     -1.63      0.00
   -1   23    4      3.09      0.00
    1   23    4      1.37      0.00
    3   23    4      2.94      0.00
    1    1    5     -5.72      0.00
   -7    5    5     -1.84      0.00
    7    5    5     -0.39      0.00
   -7    7    5     -1.77      0.00
    7    7    5     -0.25      0.00
   -7    9    5     -0.33      0.00
    7    9    5      0.88      0.00
   -7   11    5      0.63      0.00
    7   11    5      1.50      0.00
   -6   14    5      0.14      0.00
    6   14    5      0.91      0.00
    5   15    5      1.65      0.00
   -6   16    5     -0.05      0.00
    6   16    5      0.07      0.00
   -5   17    5      0.85      0.00
    5   17    5      2.92      0.00
   -5   19    5      0.93      0.00
    5   19    5      2.15      0.00
   -4   20    5      0.03      0.00
    4   20    5     -3.03      0.00
   -3   21    5     -2.09      0.00
    3   21    5     -0.38      0.00
   -2   22    5      1.32      0.00
    2   22    5      0.09      0.00
   -3   23    5     -1.08      0.00
   -1   23    5     -0.01      0.00
    1   23    5     -0.92      0.00
    3   23    5     -1.14      0.00
   -7    3    6     -3.74      0.00
    7    3    6     -3.41      0.00
   -7    5    6     -1.97      0.00
    7    5    6     -2.47      0.00
   -7    7    6      0.17      0.00
    7    7    6     -0.65      0.00
   -7    9    6      0.95      0.00
    7    9    6      0.50      0.00
   -7   11    6      0.34      0.00
   -6   12    6     -1.15      0.00
    6   12    6      0.06      0.00
   -6   14    6     -0.78      0.00
    6   14    6      0.05      0.00
   -5   17    6     -1.36      0.00
    5   17    6      0.50      0.00
   -5   19    6     -0.51      0.00
    5   19    6     -0.30      0.00
   -4   20    6     -0.50      0.00
    4   20    6     -0.04      0.00
   -3   21    6      0.81      0.00
    3   21    6     -0.36      0.00
   -2   22    6      1.07      0.00
    2   22    6     -0.01      0.00
   -3   23    6      0.44      0.00
   -1   23    6     -3.08      0.00
    1   23    6     -0.50      0.00
   -7    1    7      0.21      0.00
    7    1    7     -0.12      0.00
   -7    3    7      0.68      0.00
    7    3    7      0.12      0.00
   -7    5    7      1.13      0.00
    7    5    7      0.88      0.00
   -7    7    7      1.13      0.00
    7    7    7      0.48      0.00
   -7    9    7      0.62      0.00
    7    9    7     -1.01      0.00
   -6   12    7      0.56      0.00
    6   12    7     -0.68      0.00
   -6   14    7      0.72      0.00
    6   14    7     -0.25      0.00
   -5   17    7     -1.11      0.00
    5   17    7     -4.30      0.00
   -4   20    7     -0.22      0.00
    4   20    7      4.28      0.00
   -3   21    7      2.30      0.00
    3   21    7      0.00      0.00
   -2   22    7     -0.52      0.00
    2   22    7     -0.63      0.00
   -1   23    7      0.98      0.00
    1   23    7      1.34      0.00
   -7    1    8      3.07      0.00
    7    1    8      2.68      0.00
   -7    3    8      2.65      0.00
    7    3    8      2.81      0.00
   -7    5    8      1.27      0.00
    7    5    8      2.17      0.00
   -7    7    8     -0.41      0.00
    7    7    8      0.72      0.00
   -7    9    8     -1.35      0.00
    7    9    8     -0.21      0.00
   -6   12    8      1.45      0.00
    6   12    8     -0.64      0.00
   -6   14    8      0.25      0.00
    6   14    8     -0.22      0.00
    5   15    8     -1.10      0.00
   -5   17    8      0.25      0.00
    5   17    8     -1.17      0.00
   -4   18    8      0.48      0.00
    4   18    8      0.49      0.00
   -4   20    8      1.00      0.00
    4   20    8     -0.63      0.00
   -3   21    8      0.28      0.00
    3   21    8      0.41      0.00
   -2   22    8     -1.67      0.00
    0   22    8      0.93      0.00
    2   22    8      0.35      0.00
   -1   23    8      2.76      0.00
    1   23    8      1.08      0.00
   -7    1    9     -0.08      0.00
    7    1    9     -0.22      0.00
   -7    3    9     -0.22      0.00
    7    3    9     -0.81      0.00
   -7    5    9     -0.05      0.00
    7    5    9     -1.56      0.00
   -7    7    9     -0.08      0.00
    7    7    9     -1.36      0.00
   -6   10    9     -1.19      0.00
    6   10    9      1.90      0.00
   -6   12    9     -1.42      0.00
    4   12    9      2.98      0.00
    6   12    9      1.32      0.00
   -6   14    9     -1.14      0.00
    6   14    9      0.42      0.00
   -5   15    9      2.53      0.00
    5   15    9      2.39      0.00
   -5   17    9      1.58      0.00
    5   17    9      2.53      0.00
   -4   18    9     -1.02      0.00
    4   18    9     -3.19      0.00
   -4   20    9     -0.73      0.00
    4   20    9     -2.39      0.00
   -3   21    9     -1.52      0.00
    3   21    9     -0.34      0.00
   -2   22    9     -1.51      0.00
    0   22    9     -1.17      0.00
    2   22    9     -0.12      0.00
   -1   23    9     -0.14      0.00
    1   23    9     -0.48      0.00
   -7    1   10     -0.13      0.00
    7    1   10     -1.30      0.00
   -7    3   10     -0.49      0.00
    7    3   10     -1.34      0.00
   -7    5   10     -0.37      0.00
    7    5   10     -1.19      0.00
   -7    7   10      0.14      0.00
    7    7   10     -0.52      0.00
   -6   10   10      0.11      0.00
    6   10   10      0.96      0.00
   -6   12   10     -0.98      0.00
    6   12   10      0.36      0.00
   -5   15   10     -1.27      0.00
    5   15   10      0.70      0.00
   -5   17   10     -0.37      0.00
    5   17   10      0.54      0.00
   -4   18   10      0.76      0.00
    4   18   10      1.24      0.00
   -3   19   10      0.78      0.00
    3   19   10     -2.05      0.00
   -3   21   10     -0.70      0.00
   -1   21   10     -0.66      0.00
    1   21   10     -1.17      0.00
    3   21   10     -1.27      0.00
   -2   22   10      1.17      0.00
    0   22   10     -0.52      0.00
    2   22   10      0.58      0.00
   -1   23   10     -1.84      0.00
    1   23   10     -1.82      0.00
   -7    1   11      0.05      0.00
    7    1   11      0.39      0.00
   -7    3   11      0.31      0.00
    7    3   11      1.02      0.00
   -7    5   11      0.12      0.00
    7    5   11      1.39      0.00
   -6    8   11      0.93      0.00
    6    8   11     -2.81      0.00
   -6   10   11      1.07      0.00
    6   10   11     -2.03      0.00
   -6   12   11      0.78      0.00
    6   12   11     -0.83      0.00
    5   13   11     -0.63      0.00
   -5   15   11     -2.01      0.00
    5   15   11     -1.43      0.00
    4   16   11      0.39      0.00
   -4   18   11      1.60      0.00
    4   18   11      0.82      0.00
   -3   19   11      1.55      0.00
    3   19   11      0.49      0.00
   -2   20   11      3.46      0.00
    2   20   11      2.15      0.00
   -3   21   11      0.78      0.00
   -1   21   11     -3.14      0.00
    1   21   11     -1.48      0.00
    3   21   11      0.04      0.00
   -2   22   11      2.17      0.00
    0   22   11      1.30      0.00
    2   22   11      1.24      0.00
    6    0   12      1.31      0.00
   -7    1   12     -1.15      0.00
    7    1   12      0.06      0.00
   -7    3   12     -0.47      0.00
    6    6   12     -1.84      0.00
   -6    8   12     -2.33      0.00
    6    8   12     -1.24      0.00
   -6   10   12     -0.35      0.00
    6   10   12     -0.47      0.00
   -6   12   12      0.81      0.00
   -5   13   12      2.37      0.00
    5   13   12      1.19      0.00
   -5   15   12      1.21      0.00
    5   15   12      0.64      0.00
   -4   16   12     -5.01      0.00
    4   16   12     -0.84      0.00
   -4   18   12     -2.82      0.00
    4   18   12     -1.39      0.00
   -3   19   12      1.12      0.00
    3   19   12      1.96      0.00
   -2   20   12     -1.80      0.00
    2   20   12      0.25      0.00
   -1   21   12     -0.05      0.00
    1   21   12      1.51      0.00
    0   22   12      0.07      0.00
    6    2   13      0.33      0.00
   -6    4   13      1.66      0.00
    6    4   13      0.94      0.00
   -6    6   13      1.53      0.00
    6    6   13      1.32      0.00
   -6    8   13      0.75      0.00
    6    8   13      0.98      0.00
   -6   10   13      0.35      0.00
    6   10   13      0.19      0.00
    5   11   13      1.68      0.00
   -5   13   13     -0.39      0.00
    5   13   13      1.87      0.00
   -5   15   13     -0.03      0.00
    5   15   13      0.62      0.00
   -4   16   13     -0.76      0.00
    4   16   13      0.46      0.00
   -3   17   13     -1.29      0.00
    3   17   13      0.59      0.00
   -4   18   13     -0.84      0.00
   -3   19   13     -1.36      0.00
    3   19   13      0.38      0.00
   -2   20   13     -0.60      0.00
    0   20   13     -0.44      0.00
    2   20   13     -2.20      0.00
   -1   21   13      1.03      0.00
    1   21   13      0.02      0.00
    0   22   13     -1.25      0.00
   -6    0   14      1.62      0.00
    6    0   14     -0.04      0.00
   -6    2   14      1.97      0.00
    6    2   14      0.14      0.00
   -6    4   14      2.49      0.00
    6    4   14      0.51      0.00
   -6    6   14      2.22      0.00
    6    6   14      0.39      0.00
   -6    8   14      0.97      0.00
    6    8   14      0.18      0.00
   -5   11   14     -1.35      0.00
    5   11   14     -1.81      0.00
   -5   13   14     -1.00      0.00
    5   13   14     -1.89      0.00
   -4   14   14      5.23      0.00
    4   14   14      0.98      0.00
   -4   16   14      4.69      0.00
    4   16   14      0.40      0.00
   -3   17   14     -1.56      0.00
    3   17   14     -0.58      0.00
   -2   18   14      4.04      0.00
    2   18   14     -1.40      0.00
   -3   19   14     -1.49      0.00
   -1   19   14     -0.23      0.00
    1   19   14     -1.88      0.00
    3   19   14     -0.52      0.00
   -2   20   14      1.53      0.00
    0   20   14      0.73      0.00
    2   20   14     -0.46      0.00
   -1   21   14     -0.16      0.00
    1   21   14     -1.66      0.00
   -6    2   15     -1.52      0.00
    6    2   15     -0.25      0.00
   -6    4   15     -2.43      0.00
    6    4   15     -0.46      0.00
   -6    6   15     -2.25      0.00
    6    6   15     -0.01      0.00
   -6    8   15     -1.35      0.00
   -5    9   15      2.95      0.00
    5    9   15     -4.17      0.00
   -5   11   15      2.41      0.00
    5   11   15     -3.77      0.00
   -5   13   15      1.55      0.00
    5   13   15     -1.69      0.00
   -4   14   15     -0.32      0.00
    4   14   15     -0.79      0.00
    3   15   15     -1.82      0.00
   -4   16   15     -0.26      0.00
    4   16   15     -0.57      0.00
   -3   17   15      0.07      0.00
    3   17   15     -1.05      0.00
   -2   18   15     -0.94      0.00
    0   18   15     -0.10      0.00
    2   18   15      0.93      0.00
   -1   19   15      0.40      0.00
    1   19   15      0.66      0.00
    0   20   15      0.87      0.00
   -6    0   16     -2.72      0.00
    6    0   16     -0.75      0.00
   -6    2   16     -2.31      0.00
    6    2   16     -0.59      0.00
   -6    4   16     -1.51      0.00
    6    4   16     -0.18      0.00
   -6    6   16     -0.60      0.00
   -5    7   16     -0.53      0.00
    5    7   16     -0.43      0.00
   -5    9   16     -0.70      0.00
    5    9   16      0.39      0.00
   -5   11   16     -0.37      0.00
    5   11   16      1.70      0.00
   -4   12   16     -2.51      0.00
    4   12   16     -1.65      0.00
   -4   14   16     -2.64      0.00
    4   14   16     -1.09      0.00
   -3   15   16     -1.57      0.00
    3   15   16     -0.52      0.00
   -2   16   16     -1.97      0.00
    2   16   16      1.02      0.00
   -3   17   16     -0.25      0.00
   -1   17   16      1.30      0.00
    1   17   16      4.01      0.00
    3   17   16      0.15      0.00
   -2   18   16     -1.41      0.00
    0   18   16     -1.94      0.00
    2   18   16      0.32      0.00
   -1   19   16      0.43      0.00
    1   19   16      2.76      0.00
    0   20   16     -1.21      0.00
    5    1   17      0.25      0.00
   -6    2   17      0.93      0.00
   -5    3   17     -0.21      0.00
    5    3   17      0.64      0.00
   -5    5   17     -0.92      0.00
    5    5   17      1.28      0.00
   -5    7   17     -1.90      0.00
    5    7   17      2.77      0.00
   -5    9   17     -2.23      0.00
    5    9   17      3.78      0.00
   -4   10   17     -1.04      0.00
    4   10   17     -1.43      0.00
   -4   12   17     -0.65      0.00
    4   12   17     -0.15      0.00
   -3   13   17      0.11      0.00
    3   13   17      1.69      0.00
   -4   14   17      0.05      0.00
    4   14   17      0.83      0.00
   -3   15   17      0.72      0.00
    3   15   17      1.76      0.00
   -2   16   17     -0.71      0.00
    2   16   17      0.45      0.00
   -1   17   17      0.07      0.00
    1   17   17      0.30      0.00
   -2   18   17      0.39      0.00
    0   18   17     -0.43      0.00
    2   18   17     -0.02      0.00
   -5    1   18     -3.96      0.00
    5    1   18     -2.35      0.00
   -5    3   18     -2.17      0.00
    5    3   18     -1.75      0.00
   -5    5   18     -0.06      0.00
    5    5   18     -0.68      0.00
   -5    7   18      0.98      0.00
    5    7   18      0.06      0.00
   -4    8   18      1.85      0.00
    4    8   18     -2.07      0.00
   -5    9   18      0.98      0.00
   -4   10   18      2.17      0.00
    4   10   18     -0.23      0.00
   -4   12   18      1.39      0.00
    4   12   18      1.10      0.00
   -3   13   18      3.50      0.00
    3   13   18      1.20      0.00
   -2   14   18     -1.69      0.00
    2   14   18     -1.09      0.00
   -3   15   18      2.30      0.00
   -1   15   18     -0.95      0.00
    1   15   18     -4.16      0.00
    3   15   18      0.80      0.00
   -2   16   18     -1.38      0.00
    0   16   18      1.12      0.00
    2   16   18     -0.97      0.00
   -1   17   18     -0.15      0.00
    1   17   18     -3.07      0.00
    0   18   18      0.60      0.00
   -5    1   19      0.23      0.00
    5    1   19      0.17      0.00
   -5    3   19      0.77      0.00
    5    3   19      0.29      0.00
   -5    5   19      1.06      0.00
    5    5   19      0.22      0.00
   -4    6   19     -2.01      0.00
    4    6   19     -3.30      0.00
   -5    7   19      1.27      0.00
   -4    8   19      0.22      0.00
    4    8   19     -1.63      0.00
   -4   10   19      1.10      0.00
    4   10   19     -0.50      0.00
   -3   11   19      0.15      0.00
    3   11   19      0.80      0.00
    2   12   19     -1.29      0.00
   -3   13   19     -0.12      0.00
    3   13   19     -0.63      0.00
   -2   14   19      1.85      0.00
    0   14   19      0.59      0.00
    2   14   19     -1.94      0.00
   -1   15   19     -1.03      0.00
    1   15   19     -0.97      0.00
   -2   16   19      0.68      0.00
    0   16   19      0.04      0.00
   -1   17   19      0.44      0.00
   -4    0   20     -2.42      0.00
    4    0   20     -3.42      0.00
   -5    1   20      1.58      0.00
   -4    2   20     -2.09      0.00
    4    2   20     -3.28      0.00
   -5    3   20      0.72      0.00
   -4    4   20     -1.98      0.00
    4    4   20     -2.17      0.00
   -4    6   20     -2.40      0.00
    4    6   20     -0.42      0.00
   -4    8   20     -2.57      0.00
    4    8   20      0.61      0.00
   -3    9   20     -2.14      0.00
    3    9   20     -0.21      0.00
   -4   10   20     -1.84      0.00
   -3   11   20     -2.33      0.00
    3   11   20     -0.70      0.00
   -2   12   20      1.91      0.00
    2   12   20     -0.58      0.00
   -3   13   20     -1.78      0.00
   -1   13   20      0.41      0.00
    1   13   20      3.23      0.00
   -2   14   20      1.83      0.00
    0   14   20     -0.32      0.00
    2   14   20      0.80      0.00
   -1   15   20      0.11      0.00
    1   15   20      2.36      0.00
    0   16   20      0.48      0.00
   -4    2   21      2.61      0.00
    4    2   21      1.77      0.00
   -4    4   21      3.43      0.00
    4    4   21      2.86      0.00
   -3    5   21      0.08      0.00
    3    5   21     -3.27      0.00
   -4    6   21      2.41      0.00
    4    6   21      2.76      0.00
   -3    7   21      0.20      0.00
    3    7   21     -4.23      0.00
    2    8   21     -3.12      0.00
   -3    9   21      0.41      0.00
    3    9   21     -3.11      0.00
   -2   10   21     -0.79      0.00
    2   10   21     -1.75      0.00
   -3   11   21      0.35      0.00
   -1   11   21      4.34      0.00
    1   11   21      1.46      0.00
    3   11   21     -1.18      0.00
   -2   12   21     -1.09      0.00
    0   12   21     -2.30      0.00
    2   12   21      0.51      0.00
   -1   13   21      2.32      0.00
    1   13   21      1.52      0.00
    0   14   21     -0.70      0.00
   -4    0   22      4.05      0.00
    4    0   22      0.84      0.00
   -3    1   22      1.08      0.00
    3    1   22     -2.46      0.00
   -4    2   22      3.63      0.00
    4    2   22      1.18      0.00
   -3    3   22      0.37      0.00
    3    3   22     -2.51      0.00
   -4    4   22      2.89      0.00
   -3    5   22     -0.07      0.00
    3    5   22     -1.89      0.00
   -2    6   22     -1.51      0.00
    2    6   22      1.58      0.00
   -3    7   22      0.24      0.00
    3    7   22     -0.65      0.00
   -2    8   22     -2.28      0.00
    0    8   22     -1.97      0.00
    2    8   22      0.76      0.00
   -3    9   22      0.58      0.00
   -1    9   22      0.38      0.00
    1    9   22      0.56      0.00
   -2   10   22     -1.65      0.00
    0   10   22     -0.73      0.00
    2   10   22      0.78      0.00
   -1   11   22     -0.07      0.00
    1   11   22     -1.42      0.00
    0   12   22      0.21      0.00
   -3    1   23     -0.10      0.00
    3    1   23      0.11      0.00
   -2    2   23      0.11      0.00
    2    2   23      1.24      0.00
   -3    3   23      0.17      0.00
    1    3   23      2.11      0.00
    3    3   23      0.68      0.00
   -2    4   23     -0.94      0.00
    2    4   23      2.22      0.00
   -3    5   23      0.59      0.00
   -1    5   23     -0.76      0.00
    1    5   23      2.92      0.00
    3    5   23      1.82      0.00
   -2    6   23     -2.08      0.00
    0    6   23     -0.44      0.00
    2    6   23      2.69      0.00
   -1    7   23     -1.55      0.00
    1    7   23      1.92      0.00
   -2    8   23     -1.95      0.00
    0    8   23      0.60      0.00
    2    8   23      2.54      0.00
   -1    9   23     -2.81      0.00
    1    9   23     -0.04      0.00
    0   10   23      1.00      0.00
   -1   11   23     -2.39      0.00
    0    0    0      0.00      0.00
# SQUEEZE RESULTS (Version =  71116)
# Note: Data are Listed for all Voids in the P1 Unit Cell
# i.e. Centre of Gravity, Solvent Accessible Volume,
# Recovered number of Electrons in the Void and
# Details about the Squeezed Material
loop_
  _platon_squeeze_void_nr
  _platon_squeeze_void_average_x
  _platon_squeeze_void_average_y
  _platon_squeeze_void_average_z
  _platon_squeeze_void_volume
  _platon_squeeze_void_count_electrons
  _platon_squeeze_void_content
   1 -0.073  0.011  0.250       109        89 ' '
   2 -0.070 -0.011  0.750       109        88 ' '
   3 -0.021  0.489  0.750       109        88 ' '
   4 -0.018  0.511  0.250       109        89 ' '
# Missing Reflections Below sin(th)/lambda = 0.25
loop_
  _platon_missing_refln_index_h
  _platon_missing_refln_index_k
  _platon_missing_refln_index_l
  _platon_missing_refln_theta
    0    4    0     4.161
    0    8    0     8.344
    2    2    3     7.684
    1    1    5     6.279
_platon_squeeze_void_probe_radius                  1.20
_platon_squeeze_details
)
TITL shelxl_a.res in C2/c
CELL    6.1210   19.5910   19.6970     90.00     90.68     90.00
SPGR C2/c
# Solvent Accessible Volume =       437
# Electrons Found in S.A.V. =       353
# Note: Atoms in Void as Cxxx and Qxxx all others
C101 0.938 0.483 0.752 !       5.45 eA-3
C102 0.252 0.479 0.252 !       2.73 eA-3
Q103 0.472 0.032 0.185 !       2.67 eA-3
Q104 0.592 0.483 0.212 !       2.56 eA-3
C105 0.619 0.460 0.280 !       2.50 eA-3
C106 1.000 0.453 0.259 !       1.54 eA-3
Q107 0.374 0.080 0.276 !       1.37 eA-3
Q108 0.623 0.462 0.785 !       1.29 eA-3
Q109 0.116 0.490 0.346 !       1.22 eA-3
Q110 0.594 0.074 0.658 !       1.17 eA-3
Q111 0.346 0.450 0.765 !       1.16 eA-3
Q112 0.566 0.027 0.847 !       1.13 eA-3
Q113 0.968 0.041 0.300 !       1.11 eA-3
Q114 0.155 0.254 0.187 !       0.99 eA-3
Q115 0.354 0.219 0.475 !       0.97 eA-3
Q116 0.530 0.014 0.625 !       0.89 eA-3
Q117 0.931 0.029 0.172 !       0.87 eA-3
Q118 0.690 0.483 0.367 !       0.87 eA-3
Q119 0.344 0.106 0.220 !       0.82 eA-3
Q120 0.845 0.387 0.748 !       0.82 eA-3
Q121 0.717 0.214 0.400 !       0.81 eA-3
Q122 0.853 0.435 0.174 !       0.81 eA-3
Q123 0.716 0.159 0.042 !       0.78 eA-3
Q124 0.786 0.484 0.428 !       0.78 eA-3
Q125 0.310 0.476 0.635 !       0.77 eA-3
Q126 0.715 0.073 0.794 !       0.76 eA-3
Q127 0.720 0.387 0.739 !       0.74 eA-3
Q128 0.283 0.033 0.100 !       0.74 eA-3
Q129 0.033 0.096 0.277 !       0.74 eA-3
Q130 0.151 0.217 0.204 !       0.70 eA-3
Q131 0.280 0.117 0.181 !       0.70 eA-3
Q132 0.499 0.375 0.761 !       0.69 eA-3
Q133 0.315 0.286 0.221 !       0.67 eA-3
Q134 0.124 0.063 0.158 !       0.65 eA-3
Q135 0.228 0.373 0.208 !       0.64 eA-3
Q136 0.063 0.496 0.050 !       0.64 eA-3
Q137 0.755 0.369 0.318 !       0.63 eA-3
Q138 0.814 0.403 0.377 !       0.63 eA-3
Q139 0.169 0.330 0.234 !       0.62 eA-3
Q140 0.336 0.338 0.831 !       0.62 eA-3
Q141 0.776 0.063 0.655 !       0.61 eA-3
Q142 0.374 0.408 0.229 !       0.58 eA-3
Q143 0.156 0.399 0.865 !       0.58 eA-3
Q144 0.502 0.354 0.697 !       0.58 eA-3
Q145 0.901 0.062 0.573 !       0.58 eA-3
Q146 0.658 0.064 0.930 !       0.57 eA-3
Q147 0.531 0.321 0.807 !       0.57 eA-3
Q148 0.251 0.148 0.908 !       0.56 eA-3
Q149 0.185 0.181 0.734 !       0.55 eA-3
Q150 0.066 0.264 0.788 !       0.55 eA-3
Q151 0.152 0.293 0.771 !       0.53 eA-3
Q152 0.594 0.346 0.780 !       0.53 eA-3
Q153 0.468 0.164 0.682 !       0.52 eA-3
Q154 0.253 0.225 0.544 !       0.52 eA-3
Q155 0.783 0.012 0.080 !       0.52 eA-3
Q156 0.771 0.280 0.145 !       0.50 eA-3
Q157 0.064 0.117 0.179 !       0.50 eA-3
Q158 0.308 0.453 0.994 !       0.50 eA-3
)
;
_shelx_shelxl_version_number     2014/7
_olex2_submission_special_instructions 'No special instructions were received'
loop_
_space_group_symop_operation_xyz
'x, y, z'
'-x, y, -z+1/2'
'x+1/2, y+1/2, z'
'-x+1/2, y+1/2, -z+1/2'
'-x, -y, -z'
'x, -y, z-1/2'
'-x+1/2, -y+1/2, -z'
'x+1/2, -y+1/2, z-1/2'
loop_
_atom_site_label
_atom_site_type_symbol
_atom_site_fract_x
_atom_site_fract_y
_atom_site_fract_z
_atom_site_U_iso_or_equiv
_atom_site_adp_type
_atom_site_occupancy
_atom_site_site_symmetry_order
_atom_site_calc_flag
_atom_site_refinement_flags_posn
_atom_site_refinement_flags_adp
_atom_site_refinement_flags_occupancy
_atom_site_disorder_assembly
_atom_site_disorder_group
Zn1 Zn 0.50147(13) 0.77674(3) 0.52538(3) 0.0192(3) Uani 1 1 d . U . . .
O1 O 0.4597(8) 0.6790(2) 0.5356(3) 0.0332(11) Uani 1 1 d . U . . .
O2 O 0.2137(9) 0.6539(2) 0.4555(3) 0.0387(13) Uani 1 1 d . U . . .
O3 O 0.7212(8) 0.7909(3) 0.5955(2) 0.0333(11) Uani 1 1 d . U . . .
O4 O 0.9616(8) 0.7080(3) 0.5713(2) 0.0310(11) Uani 1 1 d . U . . .
C1 C 0.3640(12) 0.6385(4) 0.4956(5) 0.0401(17) Uani 1 1 d . U . . .
C2A C 0.440(3) 0.5646(8) 0.4811(10) 0.028(3) Uani 0.5 1 d . U P A -1
C2B C 0.561(3) 0.4380(7) 0.4889(9) 0.024(3) Uani 0.5 1 d . U P A -1
C3A C 0.358(2) 0.5304(7) 0.5496(8) 0.030(3) Uani 0.5 1 d . U P A -1
H3AA H 0.4089 0.5578 0.5889 0.036 Uiso 0.5 1 calc R . P A -1
H3AB H 0.1966 0.5292 0.5499 0.036 Uiso 0.5 1 calc R . P A -1
C3B C 0.450(3) 0.4564(7) 0.5556(8) 0.036(3) Uani 0.5 1 d . U P A -1
H3BA H 0.5566 0.4536 0.5937 0.043 Uiso 0.5 1 calc R . P A -1
H3BB H 0.3296 0.4240 0.5645 0.043 Uiso 0.5 1 calc R . P A -1
C4A C 0.343(3) 0.5254(7) 0.4230(8) 0.037(3) Uani 0.5 1 d . U P A -1
H4AA H 0.4004 0.5435 0.3798 0.044 Uiso 0.5 1 calc R . P A -1
H4AB H 0.1823 0.5316 0.4224 0.044 Uiso 0.5 1 calc R . P A -1
C4B C 0.398(3) 0.4466(7) 0.4286(8) 0.038(3) Uani 0.5 1 d . U P A -1
H4BA H 0.2633 0.4200 0.4369 0.046 Uiso 0.5 1 calc R . P A -1
H4BB H 0.4642 0.4302 0.3860 0.046 Uiso 0.5 1 calc R . P A -1
C5A C 0.692(2) 0.5590(6) 0.4836(7) 0.027(3) Uani 0.5 1 d . U P A -1
H5AA H 0.7490 0.5787 0.5265 0.033 Uiso 0.5 1 calc R . P A -1
H5AB H 0.7558 0.5843 0.4452 0.033 Uiso 0.5 1 calc R . P A -1
C5B C 0.753(2) 0.4807(6) 0.4790(8) 0.032(3) Uani 0.5 1 d . U P A -1
H5BA H 0.8161 0.4710 0.4339 0.038 Uiso 0.5 1 calc R . P A -1
H5BB H 0.8649 0.4697 0.5140 0.038 Uiso 0.5 1 calc R . P A -1
C6 C 0.8694(12) 0.7491(5) 0.6129(3) 0.0350(15) Uani 1 1 d . U . . .
C7 C 0.9420(12) 0.7479(5) 0.6866(3) 0.0405(17) Uani 1 1 d . U . . .
C8A C 1.128(3) 0.6914(13) 0.7005(8) 0.053(4) Uani 0.5 1 d . U P B 1
H8AA H 1.2300 0.6869 0.6621 0.064 Uiso 0.5 1 calc R . P B 1
H8AB H 1.0663 0.6462 0.7120 0.064 Uiso 0.5 1 calc R . P B 1
C8B C 1.182(3) 0.7398(11) 0.6959(8) 0.041(4) Uani 0.5 1 d . U P B 2
H8BB H 1.2573 0.7840 0.7022 0.050 Uiso 0.5 1 calc R . P B 2
H8BA H 1.2491 0.7142 0.6582 0.050 Uiso 0.5 1 calc R . P B 2
C9A C 1.047(3) 0.8173(11) 0.7029(7) 0.055(4) Uani 0.5 1 d . U P B 1
H9AA H 0.9831 0.8552 0.6760 0.066 Uiso 0.5 1 calc R . P B 1
H9AB H 1.2082 0.8169 0.6985 0.066 Uiso 0.5 1 calc R . P B 1
C9B C 0.864(3) 0.8158(11) 0.7236(8) 0.054(4) Uani 0.5 1 d . U P B 2
H9BA H 0.7320 0.8098 0.7513 0.064 Uiso 0.5 1 calc R . P B 2
H9BB H 0.8489 0.8555 0.6927 0.064 Uiso 0.5 1 calc R . P B 2
C10A C 0.752(2) 0.7315(10) 0.7297(7) 0.037(3) Uani 0.5 1 d . U P B 1
H10A H 0.6490 0.7006 0.7058 0.044 Uiso 0.5 1 calc R . P B 1
H10B H 0.6741 0.7734 0.7434 0.044 Uiso 0.5 1 calc R . P B 1
C10B C 0.828(3) 0.6888(11) 0.7239(7) 0.046(3) Uani 0.5 1 d . U P B 2
H10C H 0.9189 0.6471 0.7278 0.055 Uiso 0.5 1 calc R . P B 2
H10D H 0.6816 0.6777 0.7050 0.055 Uiso 0.5 1 calc R . P B 2
loop_
_atom_site_aniso_label
_atom_site_aniso_U_11
_atom_site_aniso_U_22
_atom_site_aniso_U_33
_atom_site_aniso_U_23
_atom_site_aniso_U_13
_atom_site_aniso_U_12
Zn1 0.0347(5) 0.0102(4) 0.0124(4) -0.0023(2) -0.0093(4) 0.0038(3)
O1 0.035(3) 0.013(2) 0.051(3) 0.0051(18) -0.006(2) -0.0001(18)
O2 0.043(3) 0.018(2) 0.056(3) -0.015(2) -0.004(2) 0.009(2)
O3 0.034(2) 0.048(3) 0.018(2) -0.007(2) -0.0100(19) -0.001(2)
O4 0.036(3) 0.041(3) 0.016(2) 0.0077(18) -0.0056(19) -0.002(2)
C1 0.033(3) 0.017(3) 0.070(4) -0.004(3) -0.003(3) 0.004(2)
C2A 0.029(5) 0.014(4) 0.042(6) 0.000(4) -0.001(5) 0.006(3)
C2B 0.030(5) 0.006(5) 0.038(6) 0.003(4) -0.004(5) 0.006(4)
C3A 0.030(6) 0.016(5) 0.044(6) -0.003(4) -0.003(5) 0.002(4)
C3B 0.044(7) 0.018(5) 0.045(6) 0.002(4) 0.003(5) 0.006(5)
C4A 0.048(7) 0.014(5) 0.048(6) 0.001(4) -0.012(5) 0.009(4)
C4B 0.055(7) 0.015(5) 0.044(6) 0.002(4) -0.016(6) 0.012(5)
C5A 0.034(5) 0.004(5) 0.043(7) 0.002(4) -0.002(4) 0.001(3)
C5B 0.038(6) 0.009(5) 0.049(8) -0.002(4) 0.001(5) 0.004(4)
C6 0.031(3) 0.059(4) 0.015(3) 0.001(3) -0.007(2) -0.001(3)
C7 0.028(3) 0.078(5) 0.015(3) -0.002(3) -0.007(2) 0.001(3)
C8A 0.032(7) 0.102(10) 0.026(8) 0.014(7) 0.007(6) 0.012(7)
C8B 0.030(5) 0.068(10) 0.026(7) -0.011(7) -0.004(4) 0.008(5)
C9A 0.055(9) 0.091(7) 0.018(6) 0.009(5) -0.016(6) -0.020(6)
C9B 0.044(8) 0.091(8) 0.025(7) -0.010(6) -0.011(6) 0.017(6)
C10A 0.026(6) 0.063(9) 0.022(6) 0.006(6) -0.002(5) 0.003(6)
C10B 0.034(7) 0.085(8) 0.018(6) 0.001(6) -0.006(5) 0.000(6)
loop_
_atom_type_symbol
_atom_type_description
_atom_type_scat_dispersion_real
_atom_type_scat_dispersion_imag
_atom_type_scat_source
C C 0.0033 0.0016 'International Tables Vol C Tables 4.2.6.8 and 6.1.1.4'
H H 0.0000 0.0000 'International Tables Vol C Tables 4.2.6.8 and 6.1.1.4'
N N 0.0061 0.0033 'International Tables Vol C Tables 4.2.6.8 and 6.1.1.4'
O O 0.0106 0.0060 'International Tables Vol C Tables 4.2.6.8 and 6.1.1.4'
Zn Zn 0.2839 1.4301 'International Tables Vol C Tables 4.2.6.8 and 6.1.1.4'
loop_
_geom_angle_atom_site_label_1
_geom_angle_atom_site_label_2
_geom_angle_atom_site_label_3
_geom_angle
_geom_angle_site_symmetry_1
_geom_angle_site_symmetry_3
O1 Zn1 O4 105.7(2) . 7_666
O2 Zn1 O1 125.6(2) 7_566 .
O2 Zn1 O3 103.2(2) 7_566 .
O2 Zn1 O4 99.8(2) 7_566 7_666
O3 Zn1 O1 99.1(2) . .
O3 Zn1 O4 126.1(2) . 7_666
C1 O1 Zn1 128.1(5) . .
C1 O2 Zn1 123.3(5) . 7_566
C6 O3 Zn1 126.1(5) . .
C6 O4 Zn1 125.8(5) . 7_666
O1 C1 C2A 124.6(9) . .
O2 C1 O1 125.4(7) . .
O2 C1 C2A 109.3(9) . .
C1 C2A C3A 98.0(12) . .
C4A C2A C1 120.3(13) . .
C4A C2A C3A 107.9(13) . .
C4A C2A C5A 112.0(14) . .
C5A C2A C1 111.2(11) . .
C5A C2A C3A 105.3(13) . .
C3B C2B C4B 110.0(13) . .
C5B C2B C3B 110.4(13) . .
C5B C2B C4B 110.4(14) . .
C2A C3A H3AA 109.7 . .
C2A C3A H3AB 109.7 . .
H3AA C3A H3AB 108.2 . .
C3B C3A C2A 109.8(12) . .
C3B C3A H3AA 109.7 . .
C3B C3A H3AB 109.7 . .
C2B C3B C3A 108.5(12) . .
C2B C3B H3BA 110.0 . .
C2B C3B H3BB 110.0 . .
C3A C3B H3BA 110.0 . .
C3A C3B H3BB 110.0 . .
H3BA C3B H3BB 108.4 . .
C2A C4A H4AA 109.3 . .
C2A C4A H4AB 109.3 . .
C2A C4A C4B 111.4(12) . .
H4AA C4A H4AB 108.0 . .
C4B C4A H4AA 109.3 . .
C4B C4A H4AB 109.3 . .
C2B C4B C4A 107.1(11) . .
C2B C4B H4BA 110.3 . .
C2B C4B H4BB 110.3 . .
C4A C4B H4BA 110.3 . .
C4A C4B H4BB 110.3 . .
H4BA C4B H4BB 108.5 . .
C2A C5A H5AA 110.1 . .
C2A C5A H5AB 110.1 . .
C2A C5A C5B 107.8(11) . .
H5AA C5A H5AB 108.5 . .
C5B C5A H5AA 110.1 . .
C5B C5A H5AB 110.1 . .
C2B C5B C5A 110.8(11) . .
C2B C5B H5BA 109.5 . .
C2B C5B H5BB 109.5 . .
C5A C5B H5BA 109.5 . .
C5A C5B H5BB 109.5 . .
H5BA C5B H5BB 108.1 . .
O3 C6 O4 123.5(6) . .
O3 C6 C7 118.2(7) . .
O4 C6 C7 118.4(7) . .
C6 C7 C8A 112.0(9) . .
C6 C7 C9A 107.6(8) . .
C6 C7 C9B 109.8(9) . .
C6 C7 C10B 109.9(8) . .
C8B C7 C6 113.5(8) . .
C8B C7 C9B 109.4(11) . .
C8B C7 C10B 108.3(12) . .
C9A C7 C8A 106.2(12) . .
C10A C7 C6 109.3(8) . .
C10A C7 C8A 108.1(11) . .
C10A C7 C9A 113.7(11) . .
C10B C7 C9B 105.7(12) . .
C7 C8A H8AA 112.4 . .
C7 C8A H8AB 112.4 . .
C7 C8A C10A 96.6(13) . 2_756
H8AA C8A H8AB 110.0 . .
C10A C8A H8AA 112.4 2_756 .
C10A C8A H8AB 112.4 2_756 .
C7 C8B H8BB 112.4 . .
C7 C8B H8BA 112.4 . .
C7 C8B C10B 96.9(12) . 2_756
H8BB C8B H8BA 109.9 . .
C10B C8B H8BB 112.4 2_756 .
C10B C8B H8BA 112.4 2_756 .
C7 C9A C9A 94.0(9) . 2_756
C7 C9A H9AA 112.9 . .
C7 C9A H9AB 112.9 . .
C9A C9A H9AA 112.9 2_756 .
C9A C9A H9AB 112.9 2_756 .
H9AA C9A H9AB 110.3 . .
C7 C9B C9B 89.3(9) . 2_756
C7 C9B H9BA 113.8 . .
C7 C9B H9BB 113.8 . .
C9B C9B H9BA 113.8 2_756 .
C9B C9B H9BB 113.8 2_756 .
H9BA C9B H9BB 111.0 . .
C7 C10A C8A 103.1(11) . 2_756
C7 C10A H10A 111.2 . .
C7 C10A H10B 111.2 . .
C8A C10A H10A 111.2 2_756 .
C8A C10A H10B 111.2 2_756 .
H10A C10A H10B 109.1 . .
C7 C10B C8B 91.2(11) . 2_756
C7 C10B H10C 113.4 . .
C7 C10B H10D 113.4 . .
C8B C10B H10C 113.4 2_756 .
C8B C10B H10D 113.4 2_756 .
H10C C10B H10D 110.7 . .
loop_
_geom_bond_atom_site_label_1
_geom_bond_atom_site_label_2
_geom_bond_distance
_geom_bond_site_symmetry_2
Zn1 O1 1.942(5) .
Zn1 O2 1.933(5) 7_566
Zn1 O3 1.936(5) .
Zn1 O4 1.943(4) 7_666
O1 C1 1.259(9) .
O2 Zn1 1.933(5) 7_566
O2 C1 1.243(9) .
O3 C6 1.267(9) .
O4 Zn1 1.943(4) 7_666
O4 C6 1.285(9) .
C1 C2A 1.547(17) .
C2A C3A 1.59(2) .
C2A C4A 1.49(2) .
C2A C5A 1.55(2) .
C2B C3B 1.53(2) .
C2B C4B 1.55(2) .
C2B C5B 1.46(2) .
C3A H3AA 0.9900 .
C3A H3AB 0.9900 .
C3A C3B 1.559(18) .
C3B H3BA 0.9900 .
C3B H3BB 0.9900 .
C4A H4AA 0.9900 .
C4A H4AB 0.9900 .
C4A C4B 1.585(17) .
C4B H4BA 0.9900 .
C4B H4BB 0.9900 .
C5A H5AA 0.9900 .
C5A H5AB 0.9900 .
C5A C5B 1.583(16) .
C5B H5BA 0.9900 .
C5B H5BB 0.9900 .
C6 C7 1.513(9) .
C7 C8A 1.61(2) .
C7 C8B 1.486(18) .
C7 C9A 1.54(2) .
C7 C9B 1.59(2) .
C7 C10A 1.482(16) .
C7 C10B 1.54(2) .
C8A H8AA 0.9900 .
C8A H8AB 0.9900 .
C8A C10A 1.74(3) 2_756
C8B H8BB 0.9900 .
C8B H8BA 0.9900 .
C8B C10B 1.87(2) 2_756
C9A C9A 1.95(3) 2_756
C9A H9AA 0.9900 .
C9A H9AB 0.9900 .
C9B C9B 1.95(3) 2_756
C9B H9BA 0.9900 .
C9B H9BB 0.9900 .
C10A C8A 1.74(3) 2_756
C10A H10A 0.9900 .
C10A H10B 0.9900 .
C10B C8B 1.87(2) 2_756
C10B H10C 0.9900 .
C10B H10D 0.9900 .
loop_
_geom_torsion_atom_site_label_1
_geom_torsion_atom_site_label_2
_geom_torsion_atom_site_label_3
_geom_torsion_atom_site_label_4
_geom_torsion
_geom_torsion_site_symmetry_1
_geom_torsion_site_symmetry_4
Zn1 O1 C1 O2 -27.8(12) . .
Zn1 O1 C1 C2A 142.2(10) . .
Zn1 O2 C1 O1 -33.1(11) 7_566 .
Zn1 O2 C1 C2A 155.6(8) 7_566 .
Zn1 O3 C6 O4 33.2(11) . .
Zn1 O3 C6 C7 -147.0(6) . .
Zn1 O4 C6 O3 28.1(11) 7_666 .
Zn1 O4 C6 C7 -151.7(6) 7_666 .
O1 C1 C2A C3A 76.0(13) . .
O1 C1 C2A C4A -167.7(12) . .
O1 C1 C2A C5A -33.9(18) . .
O2 C1 C2A C3A -112.5(10) . .
O2 C1 C2A C4A 3.7(18) . .
O2 C1 C2A C5A 137.5(12) . .
O3 C6 C7 C8A 179.1(11) . .
O3 C6 C7 C8B -139.8(12) . .
O3 C6 C7 C9A -64.5(12) . .
O3 C6 C7 C9B -17.0(13) . .
O3 C6 C7 C10A 59.4(13) . .
O3 C6 C7 C10B 98.8(12) . .
O4 C6 C7 C8A -1.1(13) . .
O4 C6 C7 C8B 40.0(14) . .
O4 C6 C7 C9A 115.3(11) . .
O4 C6 C7 C9B 162.8(10) . .
O4 C6 C7 C10A -120.8(11) . .
O4 C6 C7 C10B -81.4(11) . .
C1 C2A C3A C3B -169.9(12) . .
C1 C2A C4A C4B -165.6(13) . .
C1 C2A C5A C5B 171.9(12) . .
C2A C3A C3B C2B -7.8(16) . .
C2A C4A C4B C2B -7.0(19) . .
C2A C5A C5B C2B -13(2) . .
C3A C2A C4A C4B -54.6(17) . .
C3A C2A C5A C5B 66.8(15) . .
C3B C2B C4B C4A 65.9(16) . .
C3B C2B C5B C5A -54.4(17) . .
C4A C2A C3A C3B 64.5(16) . .
C4A C2A C5A C5B -50.3(17) . .
C4B C2B C3B C3A -56.2(16) . .
C4B C2B C5B C5A 67.4(17) . .
C5A C2A C3A C3B -55.3(15) . .
C5A C2A C4A C4B 60.9(18) . .
C5B C2B C3B C3A 65.8(17) . .
C5B C2B C4B C4A -56.1(17) . .
C6 C7 C8A C10A 153.5(9) . 2_756
C6 C7 C8B C10B -146.5(10) . 2_756
C6 C7 C9A C9A 147.8(9) . 2_756
C6 C7 C9B C9B -143.4(9) . 2_756
C6 C7 C10A C8A 151.5(11) . 2_756
C6 C7 C10B C8B -146.3(9) . 2_756
C8A C7 C9A C9A -92.1(13) . 2_756
C8A C7 C10A C8A 29.4(13) . 2_756
C8B C7 C9B C9B -18.2(14) . 2_756
C8B C7 C10B C8B 89.3(10) . 2_756
C9A C7 C8A C10A 36.3(12) . 2_756
C9A C7 C10A C8A -88.3(15) . 2_756
C9B C7 C8B C10B 90.5(14) . 2_756
C9B C7 C10B C8B -27.9(12) . 2_756
C10A C7 C8A C10A -86.0(11) . 2_756
C10A C7 C9A C9A 26.7(15) . 2_756
C10B C7 C8B C10B -24.2(12) . 2_756
C10B C7 C9B C9B 98.1(11) . 2_756
loop_
_twin_individual_id
_twin_individual_mass_fraction_refined
1 0.898(4)
2 0.102(4)
