#------------------------------------------------------------------------------
#$Date: 2017-08-03 05:20:19 +0300 (Thu, 03 Aug 2017) $
#$Revision: 199484 $
#$URL: file:///home/coder/svn-repositories/cod/cif/7/04/38/7043892.cif $
#------------------------------------------------------------------------------
#
# This file is available in the Crystallography Open Database (COD),
# http://www.crystallography.net/
#
# All data on this site have been placed in the public domain by the
# contributors.
#
data_7043892
loop_
_publ_author_name
'Wang, Peng'
'Chen, Kai'
'Liu, Qing'
'Wang, Huai-Wei'
'Azam, Mohammad'
'Al-Resayes, Saud I'
'Lu, Yi'
'Sun, Wei-Yin'
_publ_section_title
;
 Fine tuning catalytic and sorption properties of metal-organic frameworks
 via in situ ligand exchange
;
_journal_name_full               'Dalton Trans.'
_journal_paper_doi               10.1039/C7DT02231J
_journal_year                    2017
_chemical_formula_moiety         'C46 H28 Cu3 N2 O13, 13(C3 H7 N O)'
_chemical_formula_sum            'C85 H119 Cu3 N15 O26'
_chemical_formula_weight         1957.56
_space_group_crystal_system      tetragonal
_space_group_IT_number           141
_space_group_name_Hall           '-I 4bd 2'
_space_group_name_H-M_alt        'I 41/a m d'
_symmetry_space_group_name_Hall  '-I 4bd 2'
_symmetry_space_group_name_H-M   'I 41/a m d :2'
_atom_sites_solution_hydrogens   mixed
_audit_creation_method           SHELXL-2014/7
_audit_update_record
;
2017-07-15 deposited with the CCDC.
2017-08-02 downloaded from the CCDC.
;
_cell_angle_alpha                90
_cell_angle_beta                 90
_cell_angle_gamma                90
_cell_formula_units_Z            8
_cell_length_a                   19.387(4)
_cell_length_b                   19.387(4)
_cell_length_c                   60.831(13)
_cell_measurement_reflns_used    1601
_cell_measurement_temperature    293(2)
_cell_measurement_theta_max      17.05
_cell_measurement_theta_min      2.21
_cell_volume                     22864(8)
_computing_cell_refinement       'Bruker SAINT'
_computing_data_collection       'Bruker APEX2'
_computing_data_reduction        'Bruker SAINT'
_computing_molecular_graphics    'Bruker SHELXTL'
_computing_publication_material  'Bruker SHELXTL'
_computing_structure_refinement  'SHELXL-2014 (Sheldrick 2014)'
_computing_structure_solution    'SHELXS-2014 (Sheldrick 2014)'
_diffrn_ambient_temperature      293(2)
_diffrn_measured_fraction_theta_full 1.000
_diffrn_measured_fraction_theta_max 1.000
_diffrn_measurement_device_type  'CCD area detector'
_diffrn_measurement_method       'phi and omega scans'
_diffrn_radiation_type           MoK\a
_diffrn_radiation_wavelength     0.71073
_diffrn_reflns_av_R_equivalents  0.2468
_diffrn_reflns_av_unetI/netI     0.1723
_diffrn_reflns_Laue_measured_fraction_full 1.000
_diffrn_reflns_Laue_measured_fraction_max 1.000
_diffrn_reflns_limit_h_max       20
_diffrn_reflns_limit_h_min       -22
_diffrn_reflns_limit_k_max       20
_diffrn_reflns_limit_k_min       -23
_diffrn_reflns_limit_l_max       74
_diffrn_reflns_limit_l_min       -36
_diffrn_reflns_number            31263
_diffrn_reflns_point_group_measured_fraction_full 1.000
_diffrn_reflns_point_group_measured_fraction_max 1.000
_diffrn_reflns_theta_full        25.242
_diffrn_reflns_theta_max         25.681
_diffrn_reflns_theta_min         1.102
_exptl_absorpt_coefficient_mu    0.620
_exptl_absorpt_correction_T_max  0.7456
_exptl_absorpt_correction_T_min  0.6017
_exptl_absorpt_correction_type   multi-scan
_exptl_absorpt_process_details   sadabs
_exptl_crystal_colour            green
_exptl_crystal_density_diffrn    1.137
_exptl_crystal_description       block
_exptl_crystal_F_000             8232
_exptl_crystal_size_max          0.400
_exptl_crystal_size_mid          0.400
_exptl_crystal_size_min          0.360
_refine_diff_density_max         0.528
_refine_diff_density_min         -0.435
_refine_diff_density_rms         0.055
_refine_ls_extinction_method     none
_refine_ls_goodness_of_fit_ref   1.029
_refine_ls_hydrogen_treatment    constr
_refine_ls_matrix_type           full
_refine_ls_number_parameters     165
_refine_ls_number_reflns         5792
_refine_ls_number_restraints     57
_refine_ls_restrained_S_all      1.046
_refine_ls_R_factor_all          0.1351
_refine_ls_R_factor_gt           0.0599
_refine_ls_shift/su_max          0.001
_refine_ls_shift/su_mean         0.000
_refine_ls_structure_factor_coef Fsqd
_refine_ls_weighting_details
'w=1/[\s^2^(Fo^2^)+(0.0292P)^2^] where P=(Fo^2^+2Fc^2^)/3'
_refine_ls_weighting_scheme      calc
_refine_ls_wR_factor_gt          0.1217
_refine_ls_wR_factor_ref         0.1370
_reflns_Friedel_coverage         0.000
_reflns_number_gt                2204
_reflns_number_total             5792
_reflns_threshold_expression     'I > 2\s(I)'
_cod_data_source_file            c7dt02231j2.cif
_cod_data_source_block           swy1
_cod_original_cell_volume        22864(11)
_cod_database_code               7043892
_shelx_shelxl_version_number     2014/7
_shelx_space_group_comment
;
The symmetry employed for this shelxl refinement is uniquely defined
by the following loop, which should always be used as a source of
symmetry information in preference to the above space-group names.
They are only intended as comments.
;
_shelx_estimated_absorpt_t_min   0.789
_shelx_estimated_absorpt_t_max   0.808
_shelx_res_file
;

    swy1.res created by SHELXL-2014/7


TITL swy1_a.res in I4(1)/amd
REM Old TITL swy1 in I4(1)/amd
REM SHELXT solution in I4(1)/amd
REM R1 0.268, Rweak 0.024, Alpha 0.054, Orientation as input
REM Formula found by SHELXT: C34 N10 O15 Cu3
CELL 0.71073 19.3871 19.3871 60.8306 90 90 90
ZERR 8 0.004 0.004 0.0127 0 0 0
LATT 2
SYMM 0.5-X,-Y,0.5+Z
SYMM 0.25-Y,0.75+X,0.25+Z
SYMM 0.25+Y,0.25-X,0.75+Z
SYMM 0.5-X,+Y,0.5-Z
SYMM +X,-Y,-Z
SYMM 0.25+Y,0.75+X,0.25-Z
SYMM 0.25-Y,0.25-X,0.75-Z
SFAC C H N O Cu
UNIT 680 952 120 208 24
acta
simu 0.002 Cu2 o4
L.S. 5 0  135
PLAN  20
SIZE 0.4 0.4 0.36
isor 0.01 O4
BOND $H
list 4
fmap 2
dfix 1.40 n1 c13a n1 c13b n1 c13c
simu 0.01  n1 c13a n1 c13b n1 c13c
ACTA
isor 0.01 C13a c13b c13c
ABIN
WGHT    0.029200
FVAR       0.08473
CU1   5    0.000000    0.432462    0.497666    10.50000    0.06713    0.04354 =
         0.03501    0.00177    0.00000    0.00000
CU2   5    0.500000    0.250000    0.603310    10.25000    0.06034    0.05439 =
         0.02917    0.00000    0.00000    0.00000
O1    4    0.070169    0.553935    0.524807    11.00000    0.08941    0.05380 =
         0.05610    0.00220   -0.02461    0.00208
O2    4    0.071260    0.440700    0.520747    11.00000    0.09083    0.05858 =
         0.05325    0.00371   -0.02649    0.00398
O3    4    0.429809    0.320055    0.606485    11.00000    0.09202    0.07391 =
         0.04118   -0.00901   -0.00474    0.02591
O4    4    0.500000    0.250000    0.567214    10.25000    0.15880    0.16785 =
         0.04862    0.00000    0.00000    0.00000
AFIX   3
H4A   2    0.470587    0.279337    0.559570    10.25000   -1.20000
H4B   2    0.529414    0.220663    0.559570    10.25000   -1.20000
AFIX   0
N1    3    0.000000    0.318872    0.497218    10.50000    0.10068    0.03019 =
         0.06848   -0.01131    0.00000    0.00000
C1    1    0.089891    0.495884    0.530324    11.00000    0.07216    0.06971 =
         0.04377   -0.01219   -0.00665   -0.01304
C2    1    0.137469    0.486313    0.549189    11.00000    0.08147    0.06230 =
         0.06111   -0.00833   -0.03521    0.02769
C3    1    0.160839    0.422281    0.555212    11.00000    0.16690    0.08785 =
         0.09632   -0.04089   -0.08967    0.04823
AFIX  43
H3    2    0.148505    0.383982    0.546888    11.00000   -1.20000
AFIX   0
C4    1    0.156235    0.541675    0.561744    11.00000    0.12763    0.06624 =
         0.09696   -0.02114   -0.04201    0.02674
AFIX  43
H4    2    0.141066    0.585689    0.558058    11.00000   -1.20000
AFIX   0
C5    1    0.203036    0.413666    0.573724    11.00000    0.19549    0.10697 =
         0.10607   -0.02917   -0.09822    0.07504
AFIX  43
H5    2    0.218772    0.369972    0.577554    11.00000   -1.20000
AFIX   0
C6    1    0.197924    0.532011    0.579977    11.00000    0.14092    0.08637 =
         0.08743   -0.03578   -0.06777    0.03775
AFIX  43
H6    2    0.210390    0.570332    0.588271    11.00000   -1.20000
AFIX   0
C7    1    0.221081    0.469893    0.586192    11.00000    0.13576    0.07698 =
         0.07568   -0.04123   -0.05471    0.05572
C8    1    0.264999    0.458161    0.605685    11.00000    0.11396    0.08698 =
         0.06233   -0.02902   -0.04431    0.05228
C9    1    0.253268    0.496732    0.625000    10.50000    0.11225    0.11225 =
         0.09188   -0.04008   -0.04008    0.07911
AFIX  43
H9    2    0.219347    0.530651    0.624999    10.50000   -1.20000
AFIX   0
C10   1    0.315589    0.409349    0.606086    11.00000    0.08174    0.10429 =
         0.06032   -0.03416   -0.03109    0.04822
AFIX  43
H10   2    0.324888    0.384138    0.593421    11.00000   -1.20000
AFIX   0
C11   1    0.353519    0.396481    0.625000    10.50000    0.06541    0.06541 =
         0.06186   -0.01137   -0.01137    0.02763
C12   1    0.407782    0.342218    0.625000    10.50000    0.06691    0.06691 =
         0.06102   -0.00801   -0.00801    0.00874
part 1
C13A  1    0.000000    0.287018    0.516628    10.25000    0.12188    0.03169 =
         0.07750   -0.00381    0.00000    0.00000
AFIX  43
H13A  2    0.000000    0.311863    0.529706    10.25000   -1.20000
AFIX   0
C13B  1    0.000000    0.289149    0.476146    10.25000    0.13021    0.04915 =
         0.08666   -0.00601    0.00000    0.00000
AFIX  43
H13B  2    0.000000    0.315206    0.463309    10.25000   -1.20000
AFIX   0
part 2
C13C  1    0.059384    0.285944    0.491826    10.50000    0.09880    0.03536 =
         0.12461   -0.00586    0.00945   -0.00033
AFIX  43
H13C  2    0.098942    0.310626    0.488234    10.50000   -1.20000
part 0
AFIX   0
HKLF 4

REM  swy1_a.res in I4(1)/amd
REM R1 =  0.0599 for    2204 Fo > 4sig(Fo)  and  0.1351 for all    5792 data
REM    165 parameters refined using     57 restraints

END

WGHT      0.0674      0.0000

REM Highest difference peak  0.528,  deepest hole -0.435,  1-sigma level  0.055
Q1    1   0.0539  0.2889  0.5079  11.00000  0.05    0.53
Q2    1  -0.0432  0.2858  0.4770  11.00000  0.05    0.43
Q3    1   0.4293  0.2500  0.6043  10.50000  0.05    0.34
Q4    1   0.5000  0.1833  0.5532  10.50000  0.05    0.33
Q5    1  -0.0393  0.2500  0.5164  10.50000  0.05    0.32
Q6    1   0.0000  0.3617  0.4985  10.50000  0.05    0.31
Q7    1   0.0000  0.5000  0.5000  10.25000  0.05    0.29
Q8    1   0.5000  0.2500  0.6110  10.25000  0.05    0.29
Q9    1   0.5000  0.1811  0.6043  10.50000  0.05    0.28
Q10   1   0.0000  0.4318  0.5040  10.50000  0.05    0.28
Q11   1   0.0000  0.3069  0.4932  10.50000  0.05    0.26
Q12   1   0.3468  0.3124  0.6082  11.00000  0.05    0.22
Q13   1   0.1897  0.4066  0.5708  11.00000  0.05    0.22
Q14   1   0.5000  0.2500  0.5966  10.25000  0.05    0.21
Q15   1   0.2009  0.4685  0.5435  11.00000  0.05    0.20
Q16   1   0.2015  0.3458  0.5846  11.00000  0.05    0.19
Q17   1   0.3390  0.4320  0.6252  11.00000  0.05    0.19
Q18   1   0.5624  0.2106  0.5550  11.00000  0.05    0.19
Q19   1  -0.0673  0.4265  0.4968  11.00000  0.05    0.19
Q20   1   0.2906  0.3567  0.6006  11.00000  0.05    0.19
;
_shelx_res_checksum              28072
_shelx_fab_file
;
    0    2    0   -240.25      0.00
    2    2    0    622.98      0.00
    0    4    0    468.39      0.00
    2    4    0    -92.52      0.00
    4    4    0    108.29      0.00
    0    6    0   -142.49      0.00
    2    6    0     93.55      0.00
    4    6    0    -40.06      0.00
    6    6    0    -43.91      0.00
    0    8    0     76.04      0.00
    2    8    0    -64.61      0.00
    4    8    0     -9.21      0.00
    6    8    0      1.58      0.00
    8    8    0      2.89      0.00
    0   10    0    -63.85      0.00
    2   10    0     14.70      0.00
    4   10    0    -25.64      0.00
    6   10    0    -17.73      0.00
    8   10    0     -4.64      0.00
   10   10    0    -20.96      0.00
    0   12    0     45.05      0.00
    2   12    0    -23.93      0.00
    4   12    0     -0.88      0.00
    6   12    0      0.79      0.00
    8   12    0    -24.26      0.00
   10   12    0     14.30      0.00
   12   12    0     13.41      0.00
    0   14    0     -0.51      0.00
    2   14    0     25.69      0.00
    4   14    0     11.99      0.00
    6   14    0     -8.05      0.00
    8   14    0     11.84      0.00
   10   14    0      6.50      0.00
   12   14    0     10.19      0.00
   14   14    0    -20.39      0.00
    0   16    0     45.30      0.00
    2   16    0    -12.52      0.00
    4   16    0      0.93      0.00
    6   16    0     13.91      0.00
    8   16    0     -7.71      0.00
   10   16    0      8.67      0.00
   12   16    0     -4.14      0.00
   14   16    0     -6.52      0.00
   16   16    0     18.20      0.00
    0   18    0    -18.96      0.00
    2   18    0     16.13      0.00
    4   18    0     21.51      0.00
    6   18    0     -9.10      0.00
    8   18    0      7.74      0.00
   10   18    0      5.40      0.00
   12   18    0     38.91      0.00
   14   18    0      5.58      0.00
    0   20    0     20.78      0.00
    2   20    0     14.97      0.00
    4   20    0    -39.20      0.00
    6   20    0     37.07      0.00
    8   20    0     29.38      0.00
   10   20    0     25.81      0.00
   12   20    0      7.45      0.00
    0   22    0    -12.95      0.00
    2   22    0      5.00      0.00
    4   22    0     31.47      0.00
    6   22    0     -6.55      0.00
    8   22    0     23.82      0.00
    0    1    1    258.74      0.00
    1    2    1    125.47      0.00
    0    3    1    130.74      0.00
    2    3    1    -96.53      0.00
    1    4    1    -15.42      0.00
    3    4    1     33.93      0.00
    0    5    1      8.84      0.00
    2    5    1    -26.78      0.00
    4    5    1    -11.20      0.00
    1    6    1     17.55      0.00
    3    6    1    -26.59      0.00
    5    6    1     20.26      0.00
    0    7    1     37.46      0.00
    2    7    1      2.84      0.00
    4    7    1     -8.08      0.00
    6    7    1      5.99      0.00
    1    8    1     -9.01      0.00
    3    8    1     15.86      0.00
    5    8    1     -7.06      0.00
    7    8    1     12.28      0.00
    0    9    1     18.75      0.00
    2    9    1     16.34      0.00
    4    9    1     11.96      0.00
    6    9    1      9.78      0.00
    8    9    1     10.16      0.00
    1   10    1     19.49      0.00
    3   10    1    -17.17      0.00
    5   10    1      1.33      0.00
    7   10    1     -0.09      0.00
    9   10    1      0.96      0.00
    0   11    1     23.61      0.00
    2   11    1     12.85      0.00
    4   11    1      7.95      0.00
    6   11    1      0.94      0.00
    8   11    1      5.14      0.00
   10   11    1      5.17      0.00
    1   12    1    -10.78      0.00
    3   12    1      6.45      0.00
    5   12    1     -0.62      0.00
    7   12    1     -1.03      0.00
    9   12    1     10.20      0.00
   11   12    1    -13.63      0.00
    0   13    1     -0.46      0.00
    2   13    1      2.80      0.00
    4   13    1      2.76      0.00
    6   13    1     12.75      0.00
    8   13    1      3.14      0.00
   10   13    1     10.05      0.00
   12   13    1     34.36      0.00
    1   14    1     -8.84      0.00
    3   14    1    -10.29      0.00
    5   14    1      1.47      0.00
    7   14    1      9.55      0.00
    9   14    1     -4.46      0.00
   11   14    1      8.41      0.00
   13   14    1     -0.08      0.00
    0   15    1     14.78      0.00
    2   15    1      0.73      0.00
    4   15    1     -1.16      0.00
    6   15    1    -17.57      0.00
    8   15    1      3.99      0.00
   10   15    1     18.22      0.00
   12   15    1      9.51      0.00
   14   15    1     -2.06      0.00
    1   16    1      7.64      0.00
    3   16    1      0.01      0.00
    5   16    1    -14.40      0.00
    7   16    1     -6.88      0.00
    9   16    1      7.82      0.00
   11   16    1    -13.48      0.00
   13   16    1     17.26      0.00
   15   16    1     10.50      0.00
    0   17    1     12.07      0.00
    2   17    1      7.43      0.00
    4   17    1     -1.35      0.00
    6   17    1      2.56      0.00
    8   17    1     -2.60      0.00
   10   17    1     11.80      0.00
   12   17    1     -2.74      0.00
   14   17    1    -26.23      0.00
   16   17    1      0.13      0.00
    1   18    1     -0.79      0.00
    3   18    1    -10.03      0.00
    5   18    1     -6.29      0.00
    7   18    1     -2.98      0.00
    9   18    1     -4.82      0.00
   11   18    1     19.00      0.00
   13   18    1    -15.05      0.00
   15   18    1    -18.17      0.00
    0   19    1     12.11      0.00
    2   19    1     10.49      0.00
    4   19    1     13.00      0.00
    6   19    1      5.24      0.00
    8   19    1      5.04      0.00
   10   19    1    -10.30      0.00
   12   19    1      9.62      0.00
   14   19    1     -3.61      0.00
    1   20    1     10.71      0.00
    3   20    1     13.44      0.00
    5   20    1      9.93      0.00
    7   20    1     -1.07      0.00
    9   20    1    -10.69      0.00
   11   20    1    -11.44      0.00
    0   21    1    -15.16      0.00
    2   21    1      4.90      0.00
    4   21    1    -11.12      0.00
    6   21    1    -14.33      0.00
    8   21    1      3.71      0.00
   10   21    1     30.27      0.00
    1   22    1    -16.83      0.00
    3   22    1     -0.61      0.00
    5   22    1     -8.16      0.00
    7   22    1     -5.18      0.00
    0   23    1      9.44      0.00
    2   23    1      6.25      0.00
    4   23    1      0.22      0.00
    1    1    2   -206.41      0.00
    0    2    2   -274.31      0.00
    1    3    2    -36.72      0.00
    3    3    2     91.36      0.00
    0    4    2     48.15      0.00
    2    4    2   -107.04      0.00
    1    5    2      7.34      0.00
    3    5    2    -37.95      0.00
    5    5    2     62.48      0.00
    0    6    2    -96.82      0.00
    2    6    2     22.31      0.00
    4    6    2    -19.59      0.00
    1    7    2      0.88      0.00
    3    7    2     30.16      0.00
    5    7    2    -32.96      0.00
    7    7    2     19.81      0.00
    0    8    2     44.64      0.00
    2    8    2    -25.31      0.00
    4    8    2     13.23      0.00
    6    8    2      9.27      0.00
    1    9    2      0.14      0.00
    3    9    2    -27.91      0.00
    5    9    2     21.84      0.00
    7    9    2    -19.76      0.00
    9    9    2      4.48      0.00
    0   10    2    -11.91      0.00
    2   10    2     18.06      0.00
    4   10    2    -12.77      0.00
    6   10    2     -0.74      0.00
    8   10    2      3.47      0.00
    1   11    2    -30.07      0.00
    3   11    2      9.68      0.00
    5   11    2     -7.06      0.00
    7   11    2      5.30      0.00
    9   11    2     -9.45      0.00
   11   11    2     10.09      0.00
    0   12    2      7.20      0.00
    2   12    2    -13.11      0.00
    4   12    2      0.02      0.00
    6   12    2     -0.14      0.00
    8   12    2     -0.08      0.00
   10   12    2     -1.16      0.00
    1   13    2     -9.74      0.00
    3   13    2    -13.72      0.00
    5   13    2      2.99      0.00
    7   13    2     -4.11      0.00
    9   13    2     -0.06      0.00
   11   13    2     -5.59      0.00
   13   13    2    -19.71      0.00
    0   14    2     -2.01      0.00
    2   14    2      1.66      0.00
    4   14    2     -7.82      0.00
    6   14    2     14.23      0.00
    8   14    2     20.71      0.00
   10   14    2    -11.58      0.00
   12   14    2     10.05      0.00
    1   15    2     -0.71      0.00
    3   15    2     -1.26      0.00
    5   15    2     -1.58      0.00
    7   15    2      3.87      0.00
    9   15    2      2.70      0.00
   11   15    2     -3.08      0.00
   13   15    2      3.09      0.00
   15   15    2      6.53      0.00
    0   16    2     15.19      0.00
    2   16    2     -8.70      0.00
    4   16    2      3.35      0.00
    6   16    2     -7.54      0.00
    8   16    2      5.96      0.00
   10   16    2    -11.89      0.00
   12   16    2     -3.22      0.00
   14   16    2     -6.40      0.00
    1   17    2    -16.54      0.00
    3   17    2     -8.83      0.00
    5   17    2     18.25      0.00
    7   17    2      2.73      0.00
    9   17    2      8.49      0.00
   11   17    2      0.10      0.00
   13   17    2      2.86      0.00
   15   17    2     -5.02      0.00
    0   18    2     -7.40      0.00
    2   18    2     -3.96      0.00
    4   18    2      8.82      0.00
    6   18    2    -11.06      0.00
    8   18    2     -6.12      0.00
   10   18    2     -0.88      0.00
   12   18    2      6.76      0.00
   14   18    2    -39.83      0.00
    1   19    2     10.56      0.00
    3   19    2     16.90      0.00
    5   19    2    -15.20      0.00
    7   19    2      9.39      0.00
    9   19    2      2.40      0.00
   11   19    2      7.42      0.00
   13   19    2      8.66      0.00
    0   20    2     -5.39      0.00
    2   20    2      9.42      0.00
    4   20    2     30.90      0.00
    6   20    2      1.70      0.00
    8   20    2    -16.63      0.00
   10   20    2    -20.73      0.00
   12   20    2      6.06      0.00
    1   21    2    -14.39      0.00
    3   21    2      2.67      0.00
    5   21    2     18.96      0.00
    7   21    2    -18.40      0.00
    9   21    2    -13.24      0.00
    0   22    2    -24.40      0.00
    2   22    2     -4.76      0.00
    4   22    2      0.79      0.00
    6   22    2      7.01      0.00
    8   22    2      0.28      0.00
    1   23    2      2.40      0.00
    3   23    2     -9.83      0.00
    5   23    2      8.25      0.00
    0    1    3   -691.30      0.00
    1    2    3     44.07      0.00
    0    3    3   -119.72      0.00
    2    3    3     -4.27      0.00
    1    4    3     10.69      0.00
    3    4    3    -11.93      0.00
    0    5    3    -38.40      0.00
    2    5    3     -1.63      0.00
    4    5    3    -17.25      0.00
    1    6    3     15.94      0.00
    3    6    3     -4.29      0.00
    5    6    3    -28.08      0.00
    0    7    3    -25.77      0.00
    2    7    3     -4.62      0.00
    4    7    3    -15.07      0.00
    6    7    3     10.15      0.00
    1    8    3     -1.75      0.00
    3    8    3    -10.96      0.00
    5    8    3     -3.03      0.00
    7    8    3     15.05      0.00
    0    9    3     -2.11      0.00
    2    9    3      3.91      0.00
    4    9    3      1.50      0.00
    6    9    3     -8.98      0.00
    8    9    3      4.85      0.00
    1   10    3      4.35      0.00
    3   10    3     -1.69      0.00
    5   10    3      0.96      0.00
    7   10    3      3.19      0.00
    9   10    3     -2.14      0.00
    0   11    3      0.92      0.00
    2   11    3      3.68      0.00
    4   11    3     -0.61      0.00
    6   11    3      9.53      0.00
    8   11    3     -0.83      0.00
   10   11    3      4.06      0.00
    1   12    3      6.08      0.00
    3   12    3     -1.49      0.00
    5   12    3      1.46      0.00
    7   12    3     -4.32      0.00
    9   12    3     -3.63      0.00
   11   12    3      0.09      0.00
    0   13    3      8.87      0.00
    2   13    3      1.97      0.00
    4   13    3      5.32      0.00
    6   13    3      8.07      0.00
    8   13    3      9.59      0.00
   10   13    3      4.85      0.00
   12   13    3      3.66      0.00
    1   14    3     23.71      0.00
    3   14    3      2.49      0.00
    5   14    3     -4.71      0.00
    7   14    3     11.62      0.00
    9   14    3      8.18      0.00
   11   14    3      0.68      0.00
   13   14    3     -7.99      0.00
    0   15    3      8.84      0.00
    2   15    3     10.27      0.00
    4   15    3      5.74      0.00
    6   15    3      5.42      0.00
    8   15    3      4.53      0.00
   10   15    3      6.16      0.00
   12   15    3    -14.72      0.00
   14   15    3     21.32      0.00
    1   16    3      7.39      0.00
    3   16    3      7.18      0.00
    5   16    3     10.73      0.00
    7   16    3      3.27      0.00
    9   16    3      7.43      0.00
   11   16    3     -4.19      0.00
   13   16    3     -1.81      0.00
   15   16    3     -6.69      0.00
    0   17    3      9.35      0.00
    2   17    3     -6.68      0.00
    4   17    3     -5.29      0.00
    6   17    3     12.93      0.00
    8   17    3     -1.31      0.00
   10   17    3     -9.06      0.00
   12   17    3      1.96      0.00
   14   17    3      7.31      0.00
   16   17    3     17.36      0.00
    1   18    3     -7.71      0.00
    3   18    3     10.39      0.00
    5   18    3     -2.10      0.00
    7   18    3     -6.08      0.00
    9   18    3      4.16      0.00
   11   18    3     12.32      0.00
   13   18    3      9.05      0.00
   15   18    3     12.20      0.00
    0   19    3     12.30      0.00
    2   19    3      1.44      0.00
    4   19    3     17.44      0.00
    6   19    3      8.73      0.00
    8   19    3      7.01      0.00
   10   19    3      5.91      0.00
   12   19    3     -5.85      0.00
   14   19    3     -0.59      0.00
    1   20    3    -24.70      0.00
    3   20    3      2.44      0.00
    5   20    3    -12.89      0.00
    7   20    3    -23.25      0.00
    9   20    3     12.35      0.00
   11   20    3     -2.27      0.00
    0   21    3    -27.80      0.00
    2   21    3    -10.67      0.00
    4   21    3     19.93      0.00
    6   21    3    -12.55      0.00
    8   21    3    -26.46      0.00
   10   21    3     -0.65      0.00
    1   22    3     -4.80      0.00
    3   22    3    -25.92      0.00
    5   22    3    -15.38      0.00
    7   22    3     21.00      0.00
    0   23    3     -8.47      0.00
    2   23    3    -28.74      0.00
    4   23    3    -10.57      0.00
    0    0    4    332.47      0.00
    0    2    4    338.39      0.00
    2    2    4   -274.69      0.00
    1    3    4    -48.91      0.00
    0    4    4     14.85      0.00
    2    4    4     65.19      0.00
    4    4    4    -41.43      0.00
    1    5    4     -6.43      0.00
    3    5    4    -18.22      0.00
    0    6    4     63.06      0.00
    2    6    4      8.43      0.00
    4    6    4      8.68      0.00
    6    6    4     13.56      0.00
    1    7    4    -21.37      0.00
    3    7    4     10.68      0.00
    5    7    4     -7.55      0.00
    0    8    4    -13.97      0.00
    2    8    4     12.09      0.00
    4    8    4     22.02      0.00
    6    8    4      9.75      0.00
    8    8    4      4.35      0.00
    1    9    4     14.79      0.00
    3    9    4    -18.06      0.00
    5    9    4     -1.87      0.00
    7    9    4      2.53      0.00
    0   10    4     22.85      0.00
    2   10    4      5.28      0.00
    4   10    4     -1.59      0.00
    6   10    4      7.52      0.00
    8   10    4     -7.72      0.00
   10   10    4     18.95      0.00
    1   11    4     -7.26      0.00
    3   11    4     10.30      0.00
    5   11    4     -3.86      0.00
    7   11    4      8.95      0.00
    9   11    4      3.96      0.00
    0   12    4     -7.28      0.00
    2   12    4      6.99      0.00
    4   12    4      2.84      0.00
    6   12    4      7.22      0.00
    8   12    4      5.43      0.00
   10   12    4      0.25      0.00
   12   12    4    -10.49      0.00
    1   13    4     22.57      0.00
    3   13    4     -9.32      0.00
    5   13    4     -7.59      0.00
    7   13    4      1.69      0.00
    9   13    4      6.96      0.00
   11   13    4     10.46      0.00
    0   14    4     26.20      0.00
    2   14    4    -13.11      0.00
    4   14    4     -1.42      0.00
    6   14    4     -1.43      0.00
    8   14    4     -1.99      0.00
   10   14    4      3.98      0.00
   12   14    4      5.35      0.00
   14   14    4     -8.95      0.00
    1   15    4      5.65      0.00
    3   15    4      9.17      0.00
    5   15    4     -0.41      0.00
    7   15    4      5.53      0.00
    9   15    4    -13.04      0.00
   11   15    4     18.77      0.00
   13   15    4     11.63      0.00
    0   16    4     -6.43      0.00
    2   16    4      3.23      0.00
    4   16    4     -7.88      0.00
    6   16    4    -20.41      0.00
    8   16    4      3.07      0.00
   10   16    4     -6.39      0.00
   12   16    4      4.11      0.00
   14   16    4     -5.41      0.00
   16   16    4      3.71      0.00
    1   17    4     -5.68      0.00
    3   17    4      1.11      0.00
    5   17    4      3.49      0.00
    7   17    4     -2.79      0.00
    9   17    4     -1.16      0.00
   11   17    4      1.46      0.00
   13   17    4    -19.99      0.00
   15   17    4     28.18      0.00
    0   18    4     14.63      0.00
    2   18    4     -2.53      0.00
    4   18    4    -13.85      0.00
    6   18    4      4.17      0.00
    8   18    4     -2.40      0.00
   10   18    4     -0.52      0.00
   12   18    4     12.60      0.00
   14   18    4     -4.03      0.00
    1   19    4      6.78      0.00
    3   19    4     -8.71      0.00
    5   19    4      4.67      0.00
    7   19    4     -1.17      0.00
    9   19    4     -0.15      0.00
   11   19    4      1.22      0.00
   13   19    4     -8.61      0.00
    0   20    4    -21.03      0.00
    2   20    4    -13.58      0.00
    4   20    4    -18.86      0.00
    6   20    4     -6.72      0.00
    8   20    4     -8.83      0.00
   10   20    4     -6.86      0.00
   12   20    4     -6.12      0.00
    1   21    4    -22.19      0.00
    3   21    4      4.86      0.00
    5   21    4     16.99      0.00
    7   21    4    -19.22      0.00
    9   21    4     -2.47      0.00
    0   22    4     14.22      0.00
    2   22    4      7.21      0.00
    4   22    4    -29.62      0.00
    6   22    4      4.79      0.00
    8   22    4     13.98      0.00
    1   23    4    -15.45      0.00
    3   23    4     -7.93      0.00
    5   23    4    -10.25      0.00
    0    1    5    319.68      0.00
    1    2    5    -56.47      0.00
    0    3    5     40.02      0.00
    2    3    5     20.95      0.00
    1    4    5     46.75      0.00
    3    4    5    -50.82      0.00
    0    5    5     21.83      0.00
    2    5    5    -43.56      0.00
    4    5    5      0.67      0.00
    1    6    5    -40.21      0.00
    3    6    5      6.44      0.00
    5    6    5    -26.31      0.00
    0    7    5      1.08      0.00
    2    7    5      2.22      0.00
    4    7    5     -6.20      0.00
    6    7    5     -4.06      0.00
    1    8    5     -7.24      0.00
    3    8    5    -16.31      0.00
    5    8    5     24.08      0.00
    7    8    5    -21.01      0.00
    0    9    5     20.10      0.00
    2    9    5      2.58      0.00
    4    9    5      4.20      0.00
    6    9    5     -9.25      0.00
    8    9    5     -9.89      0.00
    1   10    5    -16.79      0.00
    3   10    5      2.24      0.00
    5   10    5    -16.55      0.00
    7   10    5     -9.85      0.00
    9   10    5    -23.69      0.00
    0   11    5    -11.87      0.00
    2   11    5     -4.37      0.00
    4   11    5    -14.70      0.00
    6   11    5      4.23      0.00
    8   11    5     -4.75      0.00
   10   11    5     -7.34      0.00
    1   12    5     -1.14      0.00
    3   12    5     -0.50      0.00
    5   12    5      3.61      0.00
    7   12    5     -6.97      0.00
    9   12    5      4.19      0.00
   11   12    5     -9.31      0.00
    0   13    5     13.11      0.00
    2   13    5    -16.47      0.00
    4   13    5     -4.86      0.00
    6   13    5     -3.82      0.00
    8   13    5     -1.90      0.00
   10   13    5     -1.28      0.00
   12   13    5    -10.96      0.00
    1   14    5     14.52      0.00
    3   14    5      3.59      0.00
    5   14    5     -0.96      0.00
    7   14    5      4.13      0.00
    9   14    5     19.45      0.00
   11   14    5    -10.21      0.00
   13   14    5     25.92      0.00
    0   15    5     -6.05      0.00
    2   15    5      6.66      0.00
    4   15    5      2.50      0.00
    6   15    5     -5.03      0.00
    8   15    5     -0.47      0.00
   10   15    5      2.25      0.00
   12   15    5     -0.99      0.00
   14   15    5     -9.70      0.00
    1   16    5     -7.79      0.00
    3   16    5     -5.91      0.00
    5   16    5     -5.02      0.00
    7   16    5     13.15      0.00
    9   16    5     -9.24      0.00
   11   16    5     -4.36      0.00
   13   16    5     -5.97      0.00
   15   16    5      5.10      0.00
    0   17    5      0.88      0.00
    2   17    5     -7.70      0.00
    4   17    5      1.17      0.00
    6   17    5     -0.40      0.00
    8   17    5     -3.36      0.00
   10   17    5     12.95      0.00
   12   17    5     10.48      0.00
   14   17    5     -9.14      0.00
   16   17    5     12.00      0.00
    1   18    5      7.56      0.00
    3   18    5     27.58      0.00
    5   18    5      5.75      0.00
    7   18    5     -9.24      0.00
    9   18    5     15.76      0.00
   11   18    5     10.96      0.00
   13   18    5      7.81      0.00
   15   18    5      0.71      0.00
    0   19    5     -6.62      0.00
    2   19    5      2.79      0.00
    4   19    5     -4.27      0.00
    6   19    5    -19.72      0.00
    8   19    5     -8.78      0.00
   10   19    5     16.36      0.00
   12   19    5    -10.85      0.00
    1   20    5     -4.99      0.00
    3   20    5    -11.41      0.00
    5   20    5      6.51      0.00
    7   20    5      3.72      0.00
    9   20    5    -12.71      0.00
   11   20    5      8.35      0.00
    0   21    5      5.32      0.00
    2   21    5     -9.45      0.00
    4   21    5    -26.29      0.00
    6   21    5     14.66      0.00
    8   21    5     11.57      0.00
   10   21    5     -3.01      0.00
    1   22    5      5.28      0.00
    3   22    5      6.86      0.00
    5   22    5      2.60      0.00
    7   22    5     17.78      0.00
    0   23    5      6.29      0.00
    2   23    5     -1.77      0.00
    4   23    5      6.38      0.00
    1    1    6     10.03      0.00
    0    2    6   -197.75      0.00
    1    3    6     60.88      0.00
    3    3    6     52.41      0.00
    0    4    6   -104.43      0.00
    2    4    6     -6.69      0.00
    1    5    6     30.48      0.00
    3    5    6     -4.97      0.00
    5    5    6    -35.77      0.00
    0    6    6    -11.68      0.00
    2    6    6    -37.79      0.00
    4    6    6    -11.20      0.00
    1    7    6     -9.08      0.00
    3    7    6     -3.96      0.00
    5    7    6     15.52      0.00
    7    7    6     -7.67      0.00
    0    8    6    -14.09      0.00
    2    8    6     -4.26      0.00
    4    8    6     -3.43      0.00
    6    8    6     -6.77      0.00
    1    9    6     14.22      0.00
    3    9    6     12.30      0.00
    5    9    6     -1.46      0.00
    7    9    6     16.04      0.00
    9    9    6     -2.38      0.00
    0   10    6      2.60      0.00
    2   10    6     -5.66      0.00
    4   10    6     -0.15      0.00
    6   10    6      8.22      0.00
    8   10    6     -3.22      0.00
    1   11    6     17.51      0.00
    3   11    6      2.57      0.00
    5   11    6     10.21      0.00
    7   11    6     -9.21      0.00
    9   11    6      3.22      0.00
   11   11    6    -10.12      0.00
    0   12    6    -13.02      0.00
    2   12    6      8.98      0.00
    4   12    6      1.15      0.00
    6   12    6     -0.78      0.00
    8   12    6     12.00      0.00
   10   12    6     -8.40      0.00
    1   13    6     10.08      0.00
    3   13    6      9.83      0.00
    5   13    6     12.09      0.00
    7   13    6     21.57      0.00
    9   13    6     11.25      0.00
   11   13    6     21.33      0.00
   13   13    6     24.74      0.00
    0   14    6     13.72      0.00
    2   14    6    -11.83      0.00
    4   14    6     -4.24      0.00
    6   14    6      9.31      0.00
    8   14    6      0.88      0.00
   10   14    6     -0.57      0.00
   12   14    6     -2.45      0.00
    1   15    6     -0.01      0.00
    3   15    6      7.46      0.00
    5   15    6     -0.46      0.00
    7   15    6     -3.70      0.00
    9   15    6      6.82      0.00
   11   15    6    -13.15      0.00
   13   15    6      1.50      0.00
   15   15    6      5.01      0.00
    0   16    6      5.85      0.00
    2   16    6     -4.88      0.00
    4   16    6     -1.85      0.00
    6   16    6      1.23      0.00
    8   16    6     19.90      0.00
   10   16    6    -16.78      0.00
   12   16    6     11.78      0.00
   14   16    6      9.02      0.00
    1   17    6     -6.82      0.00
    3   17    6      1.57      0.00
    5   17    6     10.87      0.00
    7   17    6     -1.47      0.00
    9   17    6     -2.42      0.00
   11   17    6     -5.12      0.00
   13   17    6     10.70      0.00
   15   17    6     24.24      0.00
    0   18    6      6.24      0.00
    2   18    6     -1.52      0.00
    4   18    6     11.58      0.00
    6   18    6    -14.33      0.00
    8   18    6      0.58      0.00
   10   18    6     19.39      0.00
   12   18    6     -2.67      0.00
   14   18    6      1.98      0.00
    1   19    6    -10.33      0.00
    3   19    6    -10.50      0.00
    5   19    6     -4.09      0.00
    7   19    6      3.93      0.00
    9   19    6     10.20      0.00
   11   19    6     22.44      0.00
   13   19    6      7.07      0.00
    0   20    6    -20.58      0.00
    2   20    6      9.69      0.00
    4   20    6     -2.66      0.00
    6   20    6     -5.34      0.00
    8   20    6    -19.56      0.00
   10   20    6    -11.42      0.00
   12   20    6     20.52      0.00
    1   21    6      8.03      0.00
    3   21    6    -12.19      0.00
    5   21    6     -1.80      0.00
    7   21    6      5.23      0.00
    9   21    6      0.61      0.00
    0   22    6     -3.07      0.00
    2   22    6    -17.25      0.00
    4   22    6    -17.95      0.00
    6   22    6    -27.42      0.00
    8   22    6     16.62      0.00
    1   23    6    -10.05      0.00
    3   23    6     -8.45      0.00
    5   23    6      6.42      0.00
    0    1    7    -37.74      0.00
    1    2    7   -111.21      0.00
    0    3    7     14.33      0.00
    2    3    7    129.02      0.00
    1    4    7     22.43      0.00
    3    4    7      1.45      0.00
    0    5    7    -34.74      0.00
    2    5    7     29.83      0.00
    4    5    7     27.02      0.00
    1    6    7    -10.64      0.00
    3    6    7      6.31      0.00
    5    6    7     15.28      0.00
    0    7    7      8.30      0.00
    2    7    7     18.03      0.00
    4    7    7     16.79      0.00
    6    7    7      2.60      0.00
    1    8    7     13.61      0.00
    3    8    7     -1.23      0.00
    5    8    7      5.43      0.00
    7    8    7     15.35      0.00
    0    9    7    -10.45      0.00
    2    9    7     -2.25      0.00
    4    9    7      5.83      0.00
    6    9    7      8.43      0.00
    8    9    7     -9.90      0.00
    1   10    7      6.92      0.00
    3   10    7    -11.86      0.00
    5   10    7      0.69      0.00
    7   10    7      1.43      0.00
    9   10    7      0.05      0.00
    0   11    7    -11.87      0.00
    2   11    7      5.37      0.00
    4   11    7     -5.75      0.00
    6   11    7     11.14      0.00
    8   11    7     14.66      0.00
   10   11    7    -20.49      0.00
    1   12    7     -4.09      0.00
    3   12    7     -7.71      0.00
    5   12    7    -15.38      0.00
    7   12    7      0.76      0.00
    9   12    7      1.61      0.00
   11   12    7    -18.57      0.00
    0   13    7      7.01      0.00
    2   13    7    -10.99      0.00
    4   13    7     11.91      0.00
    6   13    7    -13.34      0.00
    8   13    7     -0.04      0.00
   10   13    7     -4.03      0.00
   12   13    7     12.13      0.00
    1   14    7    -10.22      0.00
    3   14    7     -4.85      0.00
    5   14    7      0.77      0.00
    7   14    7      2.49      0.00
    9   14    7     -2.97      0.00
   11   14    7      0.00      0.00
   13   14    7     -2.46      0.00
    0   15    7    -21.96      0.00
    2   15    7    -10.88      0.00
    4   15    7    -14.87      0.00
    6   15    7      0.52      0.00
    8   15    7     -6.78      0.00
   10   15    7     -0.33      0.00
   12   15    7    -10.90      0.00
   14   15    7      5.80      0.00
    1   16    7      3.26      0.00
    3   16    7     -7.28      0.00
    5   16    7    -10.08      0.00
    7   16    7      6.80      0.00
    9   16    7     -3.41      0.00
   11   16    7     -2.88      0.00
   13   16    7      0.58      0.00
   15   16    7      5.74      0.00
    0   17    7     -5.53      0.00
    2   17    7    -15.20      0.00
    4   17    7     16.98      0.00
    6   17    7     12.38      0.00
    8   17    7     -1.01      0.00
   10   17    7     -0.63      0.00
   12   17    7      2.65      0.00
   14   17    7      9.04      0.00
   16   17    7     24.53      0.00
    1   18    7      1.11      0.00
    3   18    7    -14.24      0.00
    5   18    7     -4.70      0.00
    7   18    7    -16.86      0.00
    9   18    7     17.86      0.00
   11   18    7    -21.49      0.00
   13   18    7     -0.92      0.00
   15   18    7     -3.94      0.00
    0   19    7    -12.97      0.00
    2   19    7    -19.49      0.00
    4   19    7     -1.12      0.00
    6   19    7      2.09      0.00
    8   19    7     -5.94      0.00
   10   19    7     -8.81      0.00
   12   19    7     -7.23      0.00
    1   20    7      2.28      0.00
    3   20    7     -1.03      0.00
    5   20    7      0.81      0.00
    7   20    7     15.52      0.00
    9   20    7     -9.21      0.00
   11   20    7     -3.38      0.00
    0   21    7     -4.88      0.00
    2   21    7      4.62      0.00
    4   21    7     12.01      0.00
    6   21    7      2.72      0.00
    8   21    7     -9.87      0.00
   10   21    7      2.87      0.00
    1   22    7     15.73      0.00
    3   22    7     32.71      0.00
    5   22    7    -15.78      0.00
    7   22    7     -2.61      0.00
    0   23    7     -0.47      0.00
    2   23    7    -15.44      0.00
    4   23    7     22.79      0.00
    0    0    8    466.47      0.00
    0    2    8    167.15      0.00
    2    2    8    -22.94      0.00
    1    3    8     25.79      0.00
    0    4    8    -26.49      0.00
    2    4    8    -18.79      0.00
    4    4    8     20.45      0.00
    1    5    8     -2.62      0.00
    3    5    8      0.78      0.00
    0    6    8      8.50      0.00
    2    6    8     -4.50      0.00
    4    6    8      0.37      0.00
    6    6    8      3.87      0.00
    1    7    8     13.32      0.00
    3    7    8      5.10      0.00
    5    7    8     15.21      0.00
    0    8    8    -21.36      0.00
    2    8    8      4.67      0.00
    4    8    8     -1.67      0.00
    6    8    8      0.70      0.00
    8    8    8     -7.69      0.00
    1    9    8      0.64      0.00
    3    9    8     16.28      0.00
    5    9    8    -18.88      0.00
    7    9    8     -4.70      0.00
    0   10    8     19.96      0.00
    2   10    8    -17.80      0.00
    4   10    8     -7.08      0.00
    6   10    8      4.91      0.00
    8   10    8    -16.76      0.00
   10   10    8      2.23      0.00
    1   11    8     -1.11      0.00
    3   11    8    -14.90      0.00
    5   11    8      4.48      0.00
    7   11    8      1.17      0.00
    9   11    8     -9.86      0.00
    0   12    8      1.58      0.00
    2   12    8      9.29      0.00
    4   12    8     -1.84      0.00
    6   12    8      5.30      0.00
    8   12    8      2.49      0.00
   10   12    8      8.41      0.00
   12   12    8    -14.57      0.00
    1   13    8     -6.25      0.00
    3   13    8     -6.95      0.00
    5   13    8    -20.11      0.00
    7   13    8     -4.05      0.00
    9   13    8    -15.18      0.00
   11   13    8    -12.10      0.00
    0   14    8     11.19      0.00
    2   14    8      3.40      0.00
    4   14    8      5.52      0.00
    6   14    8     -6.28      0.00
    8   14    8      4.46      0.00
   10   14    8     -3.13      0.00
   12   14    8     -1.31      0.00
   14   14    8     -0.96      0.00
    1   15    8     -8.46      0.00
    3   15    8     -1.04      0.00
    5   15    8     -9.27      0.00
    7   15    8     -5.27      0.00
    9   15    8     -1.58      0.00
   11   15    8     -3.40      0.00
   13   15    8    -19.51      0.00
    0   16    8     -8.44      0.00
    2   16    8     11.07      0.00
    4   16    8     10.12      0.00
    6   16    8     10.30      0.00
    8   16    8      1.29      0.00
   10   16    8      6.69      0.00
   12   16    8      4.40      0.00
   14   16    8     -2.21      0.00
   16   16    8     19.38      0.00
    1   17    8     -1.66      0.00
    3   17    8     -4.71      0.00
    5   17    8     -6.73      0.00
    7   17    8     -8.82      0.00
    9   17    8      5.02      0.00
   11   17    8     17.62      0.00
   13   17    8    -24.82      0.00
   15   17    8    -17.74      0.00
    0   18    8     18.69      0.00
    2   18    8    -14.60      0.00
    4   18    8    -27.08      0.00
    6   18    8    -14.98      0.00
    8   18    8     -5.08      0.00
   10   18    8     10.68      0.00
   12   18    8    -10.80      0.00
   14   18    8      1.66      0.00
    1   19    8     -0.73      0.00
    3   19    8      2.52      0.00
    5   19    8     -5.88      0.00
    7   19    8     -5.19      0.00
    9   19    8    -15.07      0.00
   11   19    8     15.49      0.00
   13   19    8     -0.32      0.00
    0   20    8     12.64      0.00
    2   20    8     16.03      0.00
    4   20    8    -19.56      0.00
    6   20    8     -8.91      0.00
    8   20    8     18.27      0.00
   10   20    8    -29.12      0.00
   12   20    8     22.28      0.00
    1   21    8     14.73      0.00
    3   21    8     -1.53      0.00
    5   21    8      9.03      0.00
    7   21    8     -0.94      0.00
    9   21    8      8.04      0.00
    0   22    8      3.06      0.00
    2   22    8     19.45      0.00
    4   22    8     -0.27      0.00
    6   22    8     -6.16      0.00
    8   22    8     -2.62      0.00
    1   23    8     17.67      0.00
    3   23    8      2.00      0.00
    0    1    9    -98.26      0.00
    1    2    9    -76.86      0.00
    0    3    9     24.68      0.00
    2    3    9    -45.31      0.00
    1    4    9    -25.58      0.00
    3    4    9     20.74      0.00
    0    5    9     36.43      0.00
    2    5    9    -18.64      0.00
    4    5    9    -16.69      0.00
    1    6    9    -21.58      0.00
    3    6    9     -7.23      0.00
    5    6    9     22.80      0.00
    0    7    9     -3.29      0.00
    2    7    9     -4.29      0.00
    4    7    9      7.21      0.00
    6    7    9      0.71      0.00
    1    8    9     -5.72      0.00
    3    8    9      1.48      0.00
    5    8    9      3.92      0.00
    7    8    9     14.21      0.00
    0    9    9      5.28      0.00
    2    9    9     -0.02      0.00
    4    9    9     -8.96      0.00
    6    9    9      7.49      0.00
    8    9    9     -7.74      0.00
    1   10    9      6.07      0.00
    3   10    9      2.32      0.00
    5   10    9     11.66      0.00
    7   10    9    -10.71      0.00
    9   10    9      9.62      0.00
    0   11    9      0.96      0.00
    2   11    9      0.80      0.00
    4   11    9      0.33      0.00
    6   11    9     -3.87      0.00
    8   11    9      2.77      0.00
   10   11    9     -2.16      0.00
    1   12    9    -14.89      0.00
    3   12    9     24.05      0.00
    5   12    9     13.05      0.00
    7   12    9     26.45      0.00
    9   12    9     18.83      0.00
   11   12    9     10.02      0.00
    0   13    9     25.55      0.00
    2   13    9      6.86      0.00
    4   13    9      8.20      0.00
    6   13    9      1.16      0.00
    8   13    9     -1.74      0.00
   10   13    9      6.19      0.00
   12   13    9     35.42      0.00
    1   14    9      5.85      0.00
    3   14    9      0.59      0.00
    5   14    9     -1.30      0.00
    7   14    9     -5.91      0.00
    9   14    9      2.37      0.00
   11   14    9     -7.80      0.00
   13   14    9     -9.34      0.00
    0   15    9      2.32      0.00
    2   15    9      4.54      0.00
    4   15    9      0.66      0.00
    6   15    9      2.90      0.00
    8   15    9     -0.88      0.00
   10   15    9     -6.60      0.00
   12   15    9    -18.48      0.00
   14   15    9     22.84      0.00
    1   16    9     -7.07      0.00
    3   16    9     -1.69      0.00
    5   16    9      2.28      0.00
    7   16    9      4.82      0.00
    9   16    9     -4.75      0.00
   11   16    9     -8.85      0.00
   13   16    9     15.33      0.00
   15   16    9     -0.59      0.00
    0   17    9      2.90      0.00
    2   17    9      5.25      0.00
    4   17    9     -1.36      0.00
    6   17    9    -13.86      0.00
    8   17    9    -13.11      0.00
   10   17    9      8.93      0.00
   12   17    9      6.75      0.00
   14   17    9      5.16      0.00
   16   17    9     -9.32      0.00
    1   18    9     -8.79      0.00
    3   18    9      2.38      0.00
    5   18    9    -22.54      0.00
    7   18    9      9.32      0.00
    9   18    9     12.22      0.00
   11   18    9     -9.71      0.00
   13   18    9    -25.19      0.00
   15   18    9     -7.51      0.00
    0   19    9     11.00      0.00
    2   19    9     16.79      0.00
    4   19    9     -9.83      0.00
    6   19    9      3.93      0.00
    8   19    9     10.59      0.00
   10   19    9     16.30      0.00
   12   19    9     13.58      0.00
    1   20    9     15.04      0.00
    3   20    9    -18.97      0.00
    5   20    9    -13.08      0.00
    7   20    9    -14.87      0.00
    9   20    9     -0.82      0.00
   11   20    9    -12.54      0.00
    0   21    9      3.91      0.00
    2   21    9      7.46      0.00
    4   21    9     19.55      0.00
    6   21    9     -6.58      0.00
    8   21    9      3.17      0.00
   10   21    9      5.37      0.00
    1   22    9      2.54      0.00
    3   22    9     16.84      0.00
    5   22    9     -6.95      0.00
    7   22    9    -10.77      0.00
    0   23    9      6.67      0.00
    2   23    9     -1.81      0.00
    4   23    9    -22.59      0.00
    1    1   10    -48.26      0.00
    0    2   10     17.39      0.00
    1    3   10    -21.49      0.00
    3    3   10    -39.24      0.00
    0    4   10   -107.10      0.00
    2    4   10     55.31      0.00
    1    5   10    -42.18      0.00
    3    5   10     -5.27      0.00
    5    5   10    -19.66      0.00
    0    6   10     10.93      0.00
    2    6   10    -11.75      0.00
    4    6   10      6.19      0.00
    1    7   10      1.99      0.00
    3    7   10    -16.16      0.00
    5    7   10      8.95      0.00
    7    7   10      3.70      0.00
    0    8   10    -33.65      0.00
    2    8   10     -0.14      0.00
    4    8   10      2.41      0.00
    6    8   10      1.51      0.00
    1    9   10    -17.06      0.00
    3    9   10     -6.84      0.00
    5    9   10      3.87      0.00
    7    9   10     -1.85      0.00
    9    9   10     10.05      0.00
    0   10   10     14.28      0.00
    2   10   10     -6.53      0.00
    4   10   10      5.93      0.00
    6   10   10     -1.11      0.00
    8   10   10    -13.06      0.00
    1   11   10    -11.80      0.00
    3   11   10     -3.98      0.00
    5   11   10     11.10      0.00
    7   11   10     -2.64      0.00
    9   11   10     -6.91      0.00
   11   11   10    -10.09      0.00
    0   12   10    -13.62      0.00
    2   12   10     -1.51      0.00
    4   12   10     -3.49      0.00
    6   12   10    -10.31      0.00
    8   12   10      9.75      0.00
   10   12   10    -14.95      0.00
    1   13   10    -26.77      0.00
    3   13   10     19.41      0.00
    5   13   10     12.91      0.00
    7   13   10      0.64      0.00
    9   13   10     -5.97      0.00
   11   13   10     -8.59      0.00
   13   13   10      8.78      0.00
    0   14   10     13.34      0.00
    2   14   10     -8.72      0.00
    4   14   10    -11.47      0.00
    6   14   10      5.13      0.00
    8   14   10     -6.41      0.00
   10   14   10      4.64      0.00
   12   14   10      7.01      0.00
    1   15   10     11.62      0.00
    3   15   10     -4.90      0.00
    5   15   10      9.83      0.00
    7   15   10     -9.64      0.00
    9   15   10     -3.90      0.00
   11   15   10      1.97      0.00
   13   15   10      5.44      0.00
   15   15   10     -2.72      0.00
    0   16   10    -12.37      0.00
    2   16   10      0.48      0.00
    4   16   10     -0.37      0.00
    6   16   10     -0.14      0.00
    8   16   10     21.63      0.00
   10   16   10     -0.96      0.00
   12   16   10     -4.29      0.00
   14   16   10      5.13      0.00
    1   17   10     -9.98      0.00
    3   17   10     -6.31      0.00
    5   17   10    -17.39      0.00
    7   17   10     -3.55      0.00
    9   17   10      0.68      0.00
   11   17   10      2.11      0.00
   13   17   10      6.87      0.00
   15   17   10     -2.34      0.00
    0   18   10      1.15      0.00
    2   18   10    -19.71      0.00
    4   18   10     -4.95      0.00
    6   18   10      1.79      0.00
    8   18   10     -0.51      0.00
   10   18   10    -15.75      0.00
   12   18   10    -10.37      0.00
   14   18   10     11.11      0.00
    1   19   10    -11.65      0.00
    3   19   10     16.84      0.00
    5   19   10     -1.87      0.00
    7   19   10     10.77      0.00
    9   19   10     -6.33      0.00
   11   19   10      1.94      0.00
   13   19   10     -6.98      0.00
    0   20   10    -39.98      0.00
    2   20   10     -8.39      0.00
    4   20   10    -19.86      0.00
    6   20   10    -11.11      0.00
    8   20   10     10.65      0.00
   10   20   10     -5.10      0.00
   12   20   10    -10.53      0.00
    1   21   10    -10.22      0.00
    3   21   10     -5.49      0.00
    5   21   10     -5.68      0.00
    7   21   10    -11.69      0.00
    9   21   10      4.14      0.00
    0   22   10      1.11      0.00
    2   22   10      0.71      0.00
    4   22   10     12.48      0.00
    6   22   10     -4.05      0.00
    8   22   10     -9.40      0.00
    1   23   10    -29.10      0.00
    3   23   10     -7.16      0.00
    0    1   11     47.34      0.00
    1    2   11    -48.56      0.00
    0    3   11   -102.00      0.00
    2    3   11    -14.43      0.00
    1    4   11     12.63      0.00
    3    4   11     -7.11      0.00
    0    5   11     -2.56      0.00
    2    5   11      2.94      0.00
    4    5   11    -28.17      0.00
    1    6   11    -17.86      0.00
    3    6   11     10.18      0.00
    5    6   11    -14.99      0.00
    0    7   11    -18.36      0.00
    2    7   11      3.16      0.00
    4    7   11    -11.30      0.00
    6    7   11    -11.02      0.00
    1    8   11      8.16      0.00
    3    8   11     -4.84      0.00
    5    8   11      2.53      0.00
    7    8   11    -14.96      0.00
    0    9   11     -2.70      0.00
    2    9   11    -10.78      0.00
    4    9   11      5.87      0.00
    6    9   11     -8.01      0.00
    8    9   11      5.26      0.00
    1   10   11      3.54      0.00
    3   10   11     -3.28      0.00
    5   10   11     -1.16      0.00
    7   10   11     17.76      0.00
    9   10   11     -9.20      0.00
    0   11   11    -18.80      0.00
    2   11   11     -2.90      0.00
    4   11   11     -2.30      0.00
    6   11   11     10.67      0.00
    8   11   11     -1.13      0.00
   10   11   11     19.32      0.00
    1   12   11     26.07      0.00
    3   12   11     -3.63      0.00
    5   12   11     -0.50      0.00
    7   12   11      1.59      0.00
    9   12   11     -4.87      0.00
   11   12   11     -8.89      0.00
    0   13   11      2.30      0.00
    2   13   11     12.18      0.00
    4   13   11     19.73      0.00
    6   13   11     -8.12      0.00
    8   13   11      1.39      0.00
   10   13   11    -19.11      0.00
   12   13   11     18.35      0.00
    1   14   11     -2.43      0.00
    3   14   11      6.92      0.00
    5   14   11     -0.54      0.00
    7   14   11      4.60      0.00
    9   14   11      5.56      0.00
   11   14   11     -0.76      0.00
   13   14   11     13.53      0.00
    0   15   11      0.98      0.00
    2   15   11     -2.78      0.00
    4   15   11      6.64      0.00
    6   15   11     -2.01      0.00
    8   15   11     -6.25      0.00
   10   15   11     16.38      0.00
   12   15   11     -8.75      0.00
   14   15   11     -6.32      0.00
    1   16   11     22.53      0.00
    3   16   11     -1.37      0.00
    5   16   11      1.29      0.00
    7   16   11      2.72      0.00
    9   16   11     18.45      0.00
   11   16   11      0.41      0.00
   13   16   11    -15.60      0.00
   15   16   11      8.52      0.00
    0   17   11     -5.99      0.00
    2   17   11    -15.45      0.00
    4   17   11     -4.67      0.00
    6   17   11    -21.62      0.00
    8   17   11    -12.36      0.00
   10   17   11    -10.30      0.00
   12   17   11      9.63      0.00
   14   17   11    -13.29      0.00
   16   17   11    -17.13      0.00
    1   18   11      9.65      0.00
    3   18   11      1.15      0.00
    5   18   11    -22.81      0.00
    7   18   11    -13.11      0.00
    9   18   11    -13.21      0.00
   11   18   11    -20.09      0.00
   13   18   11      7.33      0.00
    0   19   11    -26.73      0.00
    2   19   11    -12.22      0.00
    4   19   11     -4.16      0.00
    6   19   11    -17.48      0.00
    8   19   11     -8.44      0.00
   10   19   11     -8.86      0.00
   12   19   11     11.94      0.00
    1   20   11     14.93      0.00
    3   20   11     -2.11      0.00
    5   20   11      3.94      0.00
    7   20   11    -12.05      0.00
    9   20   11      8.96      0.00
   11   20   11    -22.22      0.00
    0   21   11      5.09      0.00
    2   21   11     -0.29      0.00
    4   21   11     15.95      0.00
    6   21   11     12.58      0.00
    8   21   11     -6.83      0.00
   10   21   11     -3.43      0.00
    1   22   11     -9.00      0.00
    3   22   11      1.96      0.00
    5   22   11    -28.82      0.00
    7   22   11     -3.08      0.00
    0   23   11      0.47      0.00
    2   23   11    -12.84      0.00
    4   23   11     -3.19      0.00
    0    0   12    -47.24      0.00
    0    2   12      3.13      0.00
    2    2   12   -130.15      0.00
    1    3   12      1.46      0.00
    0    4   12     69.51      0.00
    2    4   12      7.68      0.00
    4    4   12     11.55      0.00
    1    5   12      0.47      0.00
    3    5   12     -6.58      0.00
    0    6   12     -4.56      0.00
    2    6   12      3.44      0.00
    4    6   12      6.34      0.00
    6    6   12      1.96      0.00
    1    7   12      6.71      0.00
    3    7   12     -5.69      0.00
    5    7   12      4.69      0.00
    0    8   12     18.91      0.00
    2    8   12     -8.65      0.00
    4    8   12     -9.03      0.00
    6    8   12     20.16      0.00
    8    8   12     -1.68      0.00
    1    9   12     -4.95      0.00
    3    9   12     12.09      0.00
    5    9   12      2.67      0.00
    7    9   12      4.33      0.00
    0   10   12     -2.76      0.00
    2   10   12      4.70      0.00
    4   10   12      7.72      0.00
    6   10   12    -13.34      0.00
    8   10   12    -13.38      0.00
   10   10   12    -10.03      0.00
    1   11   12      6.74      0.00
    3   11   12     -4.03      0.00
    5   11   12     -0.15      0.00
    7   11   12     10.35      0.00
    9   11   12     22.20      0.00
    0   12   12    -12.24      0.00
    2   12   12      1.97      0.00
    4   12   12     -5.45      0.00
    6   12   12      6.79      0.00
    8   12   12      0.52      0.00
   10   12   12      2.86      0.00
   12   12   12      2.77      0.00
    1   13   12     19.54      0.00
    3   13   12      7.95      0.00
    5   13   12     -6.91      0.00
    7   13   12    -10.81      0.00
    9   13   12     -4.19      0.00
   11   13   12     21.21      0.00
    0   14   12     18.39      0.00
    2   14   12     -1.18      0.00
    4   14   12      1.80      0.00
    6   14   12      3.65      0.00
    8   14   12     -2.77      0.00
   10   14   12     -1.73      0.00
   12   14   12    -10.36      0.00
   14   14   12      8.50      0.00
    1   15   12     -7.14      0.00
    3   15   12      3.81      0.00
    5   15   12    -16.84      0.00
    7   15   12      0.70      0.00
    9   15   12     -7.50      0.00
   11   15   12     -6.67      0.00
   13   15   12      4.05      0.00
    0   16   12      7.45      0.00
    2   16   12      7.73      0.00
    4   16   12     -3.78      0.00
    6   16   12     -4.24      0.00
    8   16   12      6.08      0.00
   10   16   12      9.03      0.00
   12   16   12     13.11      0.00
   14   16   12     -3.53      0.00
   16   16   12     20.60      0.00
    1   17   12     -1.34      0.00
    3   17   12     15.23      0.00
    5   17   12     -7.16      0.00
    7   17   12     -7.76      0.00
    9   17   12     -5.38      0.00
   11   17   12     -0.93      0.00
   13   17   12     -7.31      0.00
   15   17   12      4.32      0.00
    0   18   12     12.72      0.00
    2   18   12     20.29      0.00
    4   18   12     18.98      0.00
    6   18   12      1.31      0.00
    8   18   12     12.67      0.00
   10   18   12      2.94      0.00
   12   18   12    -21.02      0.00
   14   18   12     -3.55      0.00
    1   19   12      4.21      0.00
    3   19   12     -3.78      0.00
    5   19   12    -10.29      0.00
    7   19   12    -16.41      0.00
    9   19   12    -22.20      0.00
   11   19   12      1.08      0.00
   13   19   12    -19.54      0.00
    0   20   12      9.34      0.00
    2   20   12     23.36      0.00
    4   20   12      1.61      0.00
    6   20   12      7.31      0.00
    8   20   12      5.38      0.00
   10   20   12    -14.32      0.00
   12   20   12    -17.55      0.00
    1   21   12      4.37      0.00
    3   21   12      8.17      0.00
    5   21   12     16.02      0.00
    7   21   12    -15.14      0.00
    9   21   12     -5.54      0.00
    0   22   12     32.18      0.00
    2   22   12      0.01      0.00
    4   22   12     14.23      0.00
    6   22   12     -8.21      0.00
    1   23   12      2.53      0.00
    3   23   12     -2.13      0.00
    0    1   13    -50.19      0.00
    1    2   13     50.82      0.00
    0    3   13    -23.45      0.00
    2    3   13     45.78      0.00
    1    4   13      8.38      0.00
    3    4   13     18.65      0.00
    0    5   13    -11.61      0.00
    2    5   13    -22.94      0.00
    4    5   13      3.48      0.00
    1    6   13     15.99      0.00
    3    6   13     17.10      0.00
    5    6   13     -2.10      0.00
    0    7   13      3.66      0.00
    2    7   13     -5.65      0.00
    4    7   13     10.93      0.00
    6    7   13     13.32      0.00
    1    8   13     -3.74      0.00
    3    8   13     -3.62      0.00
    5    8   13     16.24      0.00
    7    8   13     -8.58      0.00
    0    9   13      9.74      0.00
    2    9   13      3.40      0.00
    4    9   13      4.34      0.00
    6    9   13      4.77      0.00
    8    9   13     15.67      0.00
    1   10   13    -18.47      0.00
    3   10   13     13.96      0.00
    5   10   13      0.09      0.00
    7   10   13     -8.82      0.00
    9   10   13    -24.93      0.00
    0   11   13     14.46      0.00
    2   11   13     -4.67      0.00
    4   11   13      8.23      0.00
    6   11   13     10.65      0.00
    8   11   13     -2.09      0.00
   10   11   13      4.13      0.00
    1   12   13      1.83      0.00
    3   12   13     -7.81      0.00
    5   12   13     -2.17      0.00
    7   12   13     -6.90      0.00
    9   12   13      2.67      0.00
   11   12   13     -7.32      0.00
    0   13   13     -9.61      0.00
    2   13   13      4.91      0.00
    4   13   13      0.87      0.00
    6   13   13     -2.16      0.00
    8   13   13     -4.56      0.00
   10   13   13     -5.18      0.00
   12   13   13      9.53      0.00
    1   14   13     -1.15      0.00
    3   14   13      1.23      0.00
    5   14   13    -11.14      0.00
    7   14   13    -10.67      0.00
    9   14   13     -9.62      0.00
   11   14   13      0.44      0.00
   13   14   13     -6.67      0.00
    0   15   13      6.33      0.00
    2   15   13      8.47      0.00
    4   15   13     12.12      0.00
    6   15   13    -13.71      0.00
    8   15   13      8.00      0.00
   10   15   13      0.31      0.00
   12   15   13    -12.59      0.00
   14   15   13     -6.48      0.00
    1   16   13    -11.31      0.00
    3   16   13      9.48      0.00
    5   16   13     -5.92      0.00
    7   16   13     10.24      0.00
    9   16   13     -1.33      0.00
   11   16   13      2.15      0.00
   13   16   13      8.44      0.00
   15   16   13      2.04      0.00
    0   17   13      3.86      0.00
    2   17   13      0.06      0.00
    4   17   13     -7.08      0.00
    6   17   13     10.92      0.00
    8   17   13    -15.83      0.00
   10   17   13     -3.69      0.00
   12   17   13      7.17      0.00
   14   17   13    -16.00      0.00
    1   18   13     -9.38      0.00
    3   18   13     -8.78      0.00
    5   18   13     -9.75      0.00
    7   18   13     -1.65      0.00
    9   18   13      6.33      0.00
   11   18   13    -22.14      0.00
   13   18   13    -13.13      0.00
    0   19   13    -23.59      0.00
    2   19   13     13.59      0.00
    4   19   13      1.38      0.00
    6   19   13     -7.98      0.00
    8   19   13      9.26      0.00
   10   19   13     -0.86      0.00
   12   19   13      5.57      0.00
    1   20   13    -15.02      0.00
    3   20   13      5.53      0.00
    5   20   13     -9.60      0.00
    7   20   13      9.71      0.00
    9   20   13      4.35      0.00
   11   20   13    -11.72      0.00
    0   21   13      7.00      0.00
    2   21   13     -1.16      0.00
    4   21   13    -20.00      0.00
    6   21   13     -1.90      0.00
    8   21   13    -15.09      0.00
   10   21   13      8.17      0.00
    1   22   13    -20.23      0.00
    3   22   13      9.10      0.00
    5   22   13     22.66      0.00
    7   22   13     -8.93      0.00
    0   23   13    -12.89      0.00
    2   23   13    -23.56      0.00
    1    1   14    -18.69      0.00
    0    2   14    -70.59      0.00
    1    3   14     -0.74      0.00
    3    3   14      0.84      0.00
    0    4   14      5.64      0.00
    2    4   14     35.86      0.00
    1    5   14      2.40      0.00
    3    5   14     -0.63      0.00
    5    5   14      0.74      0.00
    0    6   14    -16.54      0.00
    2    6   14     23.95      0.00
    4    6   14    -10.18      0.00
    1    7   14      4.40      0.00
    3    7   14     -0.39      0.00
    5    7   14     -6.55      0.00
    7    7   14      4.04      0.00
    0    8   14     12.61      0.00
    2    8   14     -7.70      0.00
    4    8   14     22.43      0.00
    6    8   14     -2.09      0.00
    1    9   14     -8.49      0.00
    3    9   14     -0.42      0.00
    5    9   14      0.36      0.00
    7    9   14    -11.17      0.00
    9    9   14    -10.20      0.00
    0   10   14     -1.49      0.00
    2   10   14     14.51      0.00
    4   10   14      1.29      0.00
    6   10   14     -2.42      0.00
    8   10   14      9.04      0.00
    1   11   14     -8.02      0.00
    3   11   14     -2.34      0.00
    5   11   14     -8.97      0.00
    7   11   14      3.83      0.00
    9   11   14      9.90      0.00
   11   11   14     -5.57      0.00
    0   12   14     14.90      0.00
    2   12   14     13.46      0.00
    4   12   14     10.72      0.00
    6   12   14     12.43      0.00
    8   12   14      3.68      0.00
   10   12   14     -1.37      0.00
    1   13   14     14.27      0.00
    3   13   14      1.44      0.00
    5   13   14     10.62      0.00
    7   13   14    -10.79      0.00
    9   13   14      8.20      0.00
   11   13   14      2.78      0.00
   13   13   14      8.72      0.00
    0   14   14     -2.11      0.00
    2   14   14    -14.39      0.00
    4   14   14     -4.96      0.00
    6   14   14      6.30      0.00
    8   14   14      5.38      0.00
   10   14   14     -4.23      0.00
   12   14   14     11.57      0.00
    1   15   14      2.80      0.00
    3   15   14     17.18      0.00
    5   15   14      2.21      0.00
    7   15   14      6.10      0.00
    9   15   14     20.43      0.00
   11   15   14     -4.11      0.00
   13   15   14     -3.70      0.00
   15   15   14     27.59      0.00
    0   16   14    -11.64      0.00
    2   16   14      8.37      0.00
    4   16   14      5.31      0.00
    6   16   14     -5.67      0.00
    8   16   14      0.82      0.00
   10   16   14     -9.06      0.00
   12   16   14     -8.49      0.00
   14   16   14     -1.45      0.00
    1   17   14     -2.58      0.00
    3   17   14     14.33      0.00
    5   17   14     16.60      0.00
    7   17   14    -13.26      0.00
    9   17   14    -15.04      0.00
   11   17   14     12.30      0.00
   13   17   14     29.31      0.00
   15   17   14     -7.99      0.00
    0   18   14     18.03      0.00
    2   18   14      1.09      0.00
    4   18   14    -12.44      0.00
    6   18   14     -5.12      0.00
    8   18   14      5.38      0.00
   10   18   14     -9.53      0.00
   12   18   14    -26.01      0.00
   14   18   14     10.30      0.00
    1   19   14    -16.85      0.00
    3   19   14      9.34      0.00
    5   19   14      2.68      0.00
    7   19   14     30.33      0.00
    9   19   14     -6.67      0.00
   11   19   14      7.71      0.00
   13   19   14     -3.48      0.00
    0   20   14     -0.25      0.00
    2   20   14     14.20      0.00
    4   20   14     -2.81      0.00
    6   20   14    -22.69      0.00
    8   20   14     -4.06      0.00
   10   20   14     -7.30      0.00
    1   21   14     -3.69      0.00
    3   21   14    -13.81      0.00
    5   21   14     -7.07      0.00
    7   21   14     21.75      0.00
    9   21   14     25.64      0.00
    0   22   14      0.42      0.00
    2   22   14     -7.53      0.00
    4   22   14      0.90      0.00
    6   22   14     11.08      0.00
    1   23   14    -15.00      0.00
    3   23   14     -0.94      0.00
    0    1   15     12.85      0.00
    1    2   15     31.60      0.00
    0    3   15      1.82      0.00
    2    3   15    -23.27      0.00
    1    4   15      2.33      0.00
    3    4   15     -5.94      0.00
    0    5   15      0.25      0.00
    2    5   15     17.13      0.00
    4    5   15     -3.24      0.00
    1    6   15      9.25      0.00
    3    6   15    -10.41      0.00
    5    6   15    -20.33      0.00
    0    7   15     -6.60      0.00
    2    7   15      0.42      0.00
    4    7   15     -6.01      0.00
    6    7   15     12.34      0.00
    1    8   15      3.38      0.00
    3    8   15     -1.14      0.00
    5    8   15     -3.02      0.00
    7    8   15      3.53      0.00
    0    9   15    -14.17      0.00
    2    9   15     14.93      0.00
    4    9   15     -5.59      0.00
    6    9   15     -4.08      0.00
    8    9   15      6.87      0.00
    1   10   15      7.10      0.00
    3   10   15      2.31      0.00
    5   10   15     -5.20      0.00
    7   10   15    -11.59      0.00
    9   10   15     -3.58      0.00
    0   11   15      8.72      0.00
    2   11   15     -0.73      0.00
    4   11   15     -5.52      0.00
    6   11   15      1.46      0.00
    8   11   15      6.13      0.00
   10   11   15      4.73      0.00
    1   12   15      3.52      0.00
    3   12   15     -3.11      0.00
    5   12   15     -2.65      0.00
    7   12   15     12.03      0.00
    9   12   15      0.65      0.00
   11   12   15      2.30      0.00
    0   13   15      2.58      0.00
    2   13   15     -9.00      0.00
    4   13   15      0.46      0.00
    6   13   15     -3.80      0.00
    8   13   15      7.71      0.00
   10   13   15      1.67      0.00
   12   13   15    -12.45      0.00
    1   14   15     -1.51      0.00
    3   14   15      2.48      0.00
    5   14   15     -3.47      0.00
    7   14   15      1.24      0.00
    9   14   15     -3.49      0.00
   11   14   15      6.87      0.00
   13   14   15      8.63      0.00
    0   15   15     10.77      0.00
    2   15   15      1.67      0.00
    4   15   15      9.59      0.00
    6   15   15     -1.98      0.00
    8   15   15     -1.13      0.00
   10   15   15     -7.21      0.00
   12   15   15     17.63      0.00
   14   15   15      0.79      0.00
    1   16   15      8.14      0.00
    3   16   15     -6.77      0.00
    5   16   15      3.94      0.00
    7   16   15      9.79      0.00
    9   16   15     -0.92      0.00
   11   16   15      2.42      0.00
   13   16   15      1.82      0.00
   15   16   15     21.75      0.00
    0   17   15    -31.64      0.00
    2   17   15      5.80      0.00
    4   17   15     17.11      0.00
    6   17   15      2.03      0.00
    8   17   15     11.48      0.00
   10   17   15     15.35      0.00
   12   17   15     -7.20      0.00
   14   17   15      6.96      0.00
    1   18   15      3.13      0.00
    3   18   15      3.27      0.00
    5   18   15     -1.18      0.00
    7   18   15    -22.18      0.00
    9   18   15      3.73      0.00
   11   18   15    -16.12      0.00
   13   18   15     -2.33      0.00
    0   19   15     -7.55      0.00
    2   19   15     -7.55      0.00
    4   19   15      2.05      0.00
    6   19   15      9.07      0.00
    8   19   15     12.83      0.00
   10   19   15    -25.15      0.00
   12   19   15      4.30      0.00
    1   20   15      8.30      0.00
    3   20   15     -4.11      0.00
    5   20   15     -0.19      0.00
    7   20   15     -0.24      0.00
    9   20   15     24.20      0.00
   11   20   15      1.73      0.00
    0   21   15     -0.88      0.00
    2   21   15    -21.12      0.00
    4   21   15      6.90      0.00
    6   21   15      4.95      0.00
    8   21   15      0.48      0.00
    1   22   15     20.69      0.00
    3   22   15      5.64      0.00
    5   22   15    -10.81      0.00
    7   22   15    -16.94      0.00
    0   23   15     -5.09      0.00
    2   23   15     -1.73      0.00
    0    0   16     23.43      0.00
    0    2   16     20.79      0.00
    2    2   16    -28.44      0.00
    1    3   16    -15.17      0.00
    0    4   16     -2.43      0.00
    2    4   16    -26.34      0.00
    4    4   16    -22.09      0.00
    1    5   16     -8.76      0.00
    3    5   16      7.49      0.00
    0    6   16     12.41      0.00
    2    6   16    -21.57      0.00
    4    6   16      0.87      0.00
    6    6   16    -15.05      0.00
    1    7   16     -3.38      0.00
    3    7   16     -6.14      0.00
    5    7   16      2.69      0.00
    0    8   16      4.66      0.00
    2    8   16     14.44      0.00
    4    8   16      0.66      0.00
    6    8   16     -4.91      0.00
    8    8   16     -9.37      0.00
    1    9   16     19.47      0.00
    3    9   16     -3.00      0.00
    5    9   16     20.34      0.00
    7    9   16     -6.86      0.00
    0   10   16      9.52      0.00
    2   10   16    -14.07      0.00
    4   10   16     10.24      0.00
    6   10   16      6.39      0.00
    8   10   16      1.46      0.00
   10   10   16     -6.34      0.00
    1   11   16     11.99      0.00
    3   11   16     12.12      0.00
    5   11   16     -5.51      0.00
    7   11   16     19.67      0.00
    9   11   16     21.62      0.00
    0   12   16      7.63      0.00
    2   12   16     -5.32      0.00
    4   12   16    -23.11      0.00
    6   12   16     -2.90      0.00
    8   12   16      2.45      0.00
   10   12   16      4.11      0.00
   12   12   16      1.72      0.00
    1   13   16      5.43      0.00
    3   13   16     -1.05      0.00
    5   13   16     12.87      0.00
    7   13   16      9.44      0.00
    9   13   16    -17.77      0.00
   11   13   16      5.06      0.00
    0   14   16     -5.02      0.00
    2   14   16     -7.59      0.00
    4   14   16      9.85      0.00
    6   14   16    -10.46      0.00
    8   14   16      4.68      0.00
   10   14   16      1.50      0.00
   12   14   16      0.92      0.00
   14   14   16    -13.32      0.00
    1   15   16     -6.67      0.00
    3   15   16     13.81      0.00
    5   15   16    -10.13      0.00
    7   15   16     -1.67      0.00
    9   15   16      1.20      0.00
   11   15   16     -8.03      0.00
   13   15   16      8.11      0.00
    0   16   16      4.32      0.00
    2   16   16      2.08      0.00
    4   16   16      2.82      0.00
    6   16   16      3.12      0.00
    8   16   16    -25.19      0.00
   10   16   16     -2.52      0.00
   12   16   16     -5.00      0.00
   14   16   16    -13.05      0.00
   16   16   16    -19.82      0.00
    1   17   16     13.27      0.00
    3   17   16      1.63      0.00
    5   17   16      6.05      0.00
    7   17   16      3.87      0.00
    9   17   16     -4.75      0.00
   11   17   16     10.74      0.00
   13   17   16    -31.00      0.00
   15   17   16     -2.98      0.00
    0   18   16      4.14      0.00
    2   18   16     -0.10      0.00
    4   18   16     -2.32      0.00
    6   18   16     -3.63      0.00
    8   18   16      4.93      0.00
   10   18   16    -11.84      0.00
   12   18   16    -17.80      0.00
   14   18   16    -15.62      0.00
    1   19   16    -17.93      0.00
    3   19   16     13.80      0.00
    5   19   16    -12.98      0.00
    7   19   16     -5.94      0.00
    9   19   16    -21.12      0.00
   11   19   16     -0.70      0.00
   13   19   16     31.84      0.00
    0   20   16     -5.72      0.00
    2   20   16      1.74      0.00
    4   20   16     -4.38      0.00
    6   20   16     -3.50      0.00
    8   20   16     15.16      0.00
   10   20   16     17.77      0.00
    1   21   16      2.30      0.00
    3   21   16     -4.15      0.00
    5   21   16     24.05      0.00
    7   21   16     -9.76      0.00
    9   21   16      5.91      0.00
    0   22   16      4.29      0.00
    2   22   16    -13.31      0.00
    4   22   16     33.63      0.00
    6   22   16     -6.16      0.00
    1   23   16     -0.93      0.00
    0    1   17     -7.38      0.00
    1    2   17    -11.55      0.00
    0    3   17     -8.69      0.00
    2    3   17     30.78      0.00
    1    4   17     -2.09      0.00
    3    4   17    -13.11      0.00
    0    5   17     12.75      0.00
    2    5   17      6.92      0.00
    4    5   17     -2.94      0.00
    1    6   17    -12.25      0.00
    3    6   17     -8.10      0.00
    5    6   17    -30.79      0.00
    0    7   17      0.16      0.00
    2    7   17     -1.71      0.00
    4    7   17     19.58      0.00
    6    7   17    -13.52      0.00
    1    8   17    -15.88      0.00
    3    8   17     -1.38      0.00
    5    8   17     -9.52      0.00
    7    8   17     -6.58      0.00
    0    9   17     16.42      0.00
    2    9   17     -1.03      0.00
    4    9   17    -12.29      0.00
    6    9   17      3.88      0.00
    8    9   17    -18.90      0.00
    1   10   17      5.13      0.00
    3   10   17      9.39      0.00
    5   10   17     -3.30      0.00
    7   10   17     -3.52      0.00
    9   10   17      1.55      0.00
    0   11   17     -3.98      0.00
    2   11   17     -7.63      0.00
    4   11   17     -2.91      0.00
    6   11   17     -4.45      0.00
    8   11   17     15.31      0.00
   10   11   17     -1.73      0.00
    1   12   17      1.53      0.00
    3   12   17      1.25      0.00
    5   12   17      6.77      0.00
    7   12   17      2.91      0.00
    9   12   17     16.22      0.00
   11   12   17    -10.06      0.00
    0   13   17      0.22      0.00
    2   13   17     -9.17      0.00
    4   13   17    -19.43      0.00
    6   13   17     -6.24      0.00
    8   13   17      3.48      0.00
   10   13   17     10.29      0.00
   12   13   17     -2.29      0.00
    1   14   17    -17.73      0.00
    3   14   17      7.53      0.00
    5   14   17     17.13      0.00
    7   14   17     -2.95      0.00
    9   14   17     -0.37      0.00
   11   14   17      8.78      0.00
   13   14   17      9.22      0.00
    0   15   17      3.00      0.00
    2   15   17     -3.81      0.00
    4   15   17     -4.91      0.00
    6   15   17      0.13      0.00
    8   15   17      8.80      0.00
   10   15   17    -13.43      0.00
   12   15   17      4.76      0.00
   14   15   17      5.46      0.00
    1   16   17     -1.14      0.00
    3   16   17      8.92      0.00
    5   16   17      2.50      0.00
    7   16   17      6.33      0.00
    9   16   17     -7.30      0.00
   11   16   17     17.83      0.00
   13   16   17     17.44      0.00
   15   16   17    -12.16      0.00
    0   17   17      5.91      0.00
    2   17   17     12.60      0.00
    4   17   17     14.99      0.00
    6   17   17     -4.40      0.00
    8   17   17    -10.12      0.00
   10   17   17      1.20      0.00
   12   17   17     -3.66      0.00
   14   17   17     -5.21      0.00
    1   18   17      7.84      0.00
    3   18   17     19.83      0.00
    5   18   17    -12.51      0.00
    7   18   17     12.38      0.00
    9   18   17     -8.21      0.00
   11   18   17    -10.45      0.00
   13   18   17     -5.86      0.00
    0   19   17     -4.04      0.00
    2   19   17     15.44      0.00
    4   19   17      5.96      0.00
    6   19   17      8.06      0.00
    8   19   17    -16.50      0.00
   10   19   17      1.65      0.00
   12   19   17     25.27      0.00
    1   20   17      9.71      0.00
    3   20   17     -8.70      0.00
    5   20   17      1.22      0.00
    7   20   17    -11.99      0.00
    9   20   17      1.13      0.00
   11   20   17     12.31      0.00
    0   21   17      7.94      0.00
    2   21   17     -3.59      0.00
    4   21   17      1.58      0.00
    6   21   17     11.26      0.00
    8   21   17      0.60      0.00
    1   22   17    -14.07      0.00
    3   22   17     21.91      0.00
    5   22   17      2.48      0.00
    0   23   17    -14.35      0.00
    1    1   18    -26.14      0.00
    0    2   18     39.48      0.00
    1    3   18    -10.39      0.00
    3    3   18    -24.53      0.00
    0    4   18     -2.48      0.00
    2    4   18     46.81      0.00
    1    5   18     -8.18      0.00
    3    5   18     10.60      0.00
    5    5   18    -24.09      0.00
    0    6   18    -19.68      0.00
    2    6   18    -16.94      0.00
    4    6   18    -20.21      0.00
    1    7   18     -1.63      0.00
    3    7   18      2.41      0.00
    5    7   18      1.96      0.00
    7    7   18     -9.63      0.00
    0    8   18    -12.13      0.00
    2    8   18      9.25      0.00
    4    8   18    -10.40      0.00
    6    8   18     -6.74      0.00
    1    9   18     11.71      0.00
    3    9   18      6.60      0.00
    5    9   18     -5.11      0.00
    7    9   18      3.49      0.00
    9    9   18      8.69      0.00
    0   10   18    -15.31      0.00
    2   10   18     -1.05      0.00
    4   10   18      4.93      0.00
    6   10   18    -17.65      0.00
    8   10   18     -9.01      0.00
    1   11   18     -9.28      0.00
    3   11   18     -4.00      0.00
    5   11   18    -10.98      0.00
    7   11   18      4.17      0.00
    9   11   18     11.17      0.00
   11   11   18    -21.72      0.00
    0   12   18      3.65      0.00
    2   12   18     -7.87      0.00
    4   12   18      4.21      0.00
    6   12   18      2.87      0.00
    8   12   18     11.74      0.00
   10   12   18    -14.64      0.00
    1   13   18     -0.37      0.00
    3   13   18    -12.91      0.00
    5   13   18     -4.58      0.00
    7   13   18      4.13      0.00
    9   13   18     -6.43      0.00
   11   13   18      7.05      0.00
   13   13   18     16.93      0.00
    0   14   18     -4.26      0.00
    2   14   18     10.04      0.00
    4   14   18     -8.60      0.00
    6   14   18      4.04      0.00
    8   14   18    -10.62      0.00
   10   14   18      1.71      0.00
   12   14   18     17.61      0.00
    1   15   18      2.98      0.00
    3   15   18     -1.10      0.00
    5   15   18     20.98      0.00
    7   15   18    -10.93      0.00
    9   15   18      0.04      0.00
   11   15   18    -18.26      0.00
   13   15   18    -14.83      0.00
   15   15   18     13.09      0.00
    0   16   18      3.01      0.00
    2   16   18     -3.30      0.00
    4   16   18      0.92      0.00
    6   16   18     -9.28      0.00
    8   16   18      6.72      0.00
   10   16   18      7.78      0.00
   12   16   18      8.80      0.00
   14   16   18     19.54      0.00
    1   17   18    -12.66      0.00
    3   17   18      7.65      0.00
    5   17   18      4.97      0.00
    7   17   18     22.21      0.00
    9   17   18      0.15      0.00
   11   17   18     17.12      0.00
   13   17   18      0.43      0.00
   15   17   18    -24.15      0.00
    0   18   18    -14.48      0.00
    2   18   18    -15.10      0.00
    4   18   18    -23.36      0.00
    6   18   18    -31.75      0.00
    8   18   18    -25.64      0.00
   10   18   18    -17.28      0.00
   12   18   18     16.17      0.00
   14   18   18     -0.77      0.00
    1   19   18     -2.08      0.00
    3   19   18    -12.37      0.00
    5   19   18    -11.40      0.00
    7   19   18     -1.40      0.00
    9   19   18      5.80      0.00
   11   19   18     12.36      0.00
    0   20   18     -8.60      0.00
    2   20   18      4.02      0.00
    4   20   18     -2.29      0.00
    6   20   18      1.02      0.00
    8   20   18      2.93      0.00
   10   20   18     32.47      0.00
    1   21   18      3.35      0.00
    3   21   18      8.15      0.00
    5   21   18      3.84      0.00
    7   21   18     11.06      0.00
    9   21   18    -25.36      0.00
    0   22   18      3.96      0.00
    2   22   18     -9.57      0.00
    4   22   18     -4.05      0.00
    6   22   18    -22.43      0.00
    0    1   19     -1.61      0.00
    1    2   19    -20.96      0.00
    0    3   19     -1.80      0.00
    2    3   19     14.45      0.00
    1    4   19      3.06      0.00
    3    4   19     10.33      0.00
    0    5   19    -20.55      0.00
    2    5   19      7.57      0.00
    4    5   19      3.74      0.00
    1    6   19     14.08      0.00
    3    6   19     -9.60      0.00
    5    6   19     -0.23      0.00
    0    7   19    -10.44      0.00
    2    7   19     12.53      0.00
    4    7   19     -6.95      0.00
    6    7   19    -18.09      0.00
    1    8   19     14.02      0.00
    3    8   19     13.11      0.00
    5    8   19     12.31      0.00
    7    8   19     18.75      0.00
    0    9   19     17.95      0.00
    2    9   19     -2.00      0.00
    4    9   19     -8.48      0.00
    6    9   19     11.35      0.00
    8    9   19    -15.73      0.00
    1   10   19      2.67      0.00
    3   10   19      1.36      0.00
    5   10   19     -2.80      0.00
    7   10   19      6.86      0.00
    9   10   19     -6.28      0.00
    0   11   19     -8.60      0.00
    2   11   19      3.80      0.00
    4   11   19     -8.99      0.00
    6   11   19     -6.98      0.00
    8   11   19      8.78      0.00
   10   11   19      8.81      0.00
    1   12   19     -9.60      0.00
    3   12   19     -9.10      0.00
    5   12   19     -4.15      0.00
    7   12   19      8.03      0.00
    9   12   19     -2.02      0.00
   11   12   19     -4.44      0.00
    0   13   19     20.37      0.00
    2   13   19      0.20      0.00
    4   13   19     11.42      0.00
    6   13   19     -0.66      0.00
    8   13   19     -1.83      0.00
   10   13   19      2.96      0.00
   12   13   19    -10.65      0.00
    1   14   19     -0.37      0.00
    3   14   19     -9.03      0.00
    5   14   19      0.90      0.00
    7   14   19     13.40      0.00
    9   14   19      6.17      0.00
   11   14   19     -3.76      0.00
   13   14   19     -9.51      0.00
    0   15   19      6.10      0.00
    2   15   19     18.58      0.00
    4   15   19     -3.68      0.00
    6   15   19      6.07      0.00
    8   15   19     -4.57      0.00
   10   15   19    -32.62      0.00
   12   15   19     19.56      0.00
   14   15   19      8.39      0.00
    1   16   19     13.26      0.00
    3   16   19      6.14      0.00
    5   16   19      6.11      0.00
    7   16   19    -16.31      0.00
    9   16   19     -1.20      0.00
   11   16   19      6.91      0.00
   13   16   19    -25.53      0.00
   15   16   19    -20.83      0.00
    0   17   19     18.23      0.00
    2   17   19      2.36      0.00
    4   17   19     24.65      0.00
    6   17   19     -0.20      0.00
    8   17   19      1.45      0.00
   10   17   19     -0.53      0.00
   12   17   19     -9.68      0.00
   14   17   19    -22.03      0.00
    1   18   19     -0.80      0.00
    3   18   19      5.44      0.00
    5   18   19     -6.55      0.00
    7   18   19     10.27      0.00
    9   18   19     14.26      0.00
   11   18   19     14.73      0.00
   13   18   19     14.92      0.00
    0   19   19    -12.08      0.00
    2   19   19      2.63      0.00
    4   19   19     11.62      0.00
    6   19   19     15.68      0.00
    8   19   19     -8.17      0.00
   10   19   19    -27.51      0.00
   12   19   19     25.02      0.00
    1   20   19     -8.69      0.00
    3   20   19    -23.55      0.00
    5   20   19     10.35      0.00
    7   20   19     -9.14      0.00
    9   20   19      3.10      0.00
   11   20   19     10.35      0.00
    0   21   19      5.97      0.00
    2   21   19     -4.61      0.00
    4   21   19     -3.95      0.00
    6   21   19     -5.30      0.00
    8   21   19    -12.95      0.00
    1   22   19    -12.00      0.00
    3   22   19    -10.33      0.00
    5   22   19     -8.67      0.00
    0    0   20     20.53      0.00
    0    2   20     24.68      0.00
    2    2   20     11.25      0.00
    1    3   20     39.95      0.00
    0    4   20     -3.66      0.00
    2    4   20    -32.52      0.00
    4    4   20     10.22      0.00
    1    5   20     25.90      0.00
    3    5   20     11.54      0.00
    0    6   20      4.28      0.00
    2    6   20      1.71      0.00
    4    6   20     -0.54      0.00
    6    6   20    -19.16      0.00
    1    7   20     -5.13      0.00
    3    7   20      6.20      0.00
    5    7   20     12.92      0.00
    0    8   20     21.69      0.00
    2    8   20    -22.03      0.00
    4    8   20     -7.00      0.00
    6    8   20      4.95      0.00
    8    8   20     -2.35      0.00
    1    9   20     15.41      0.00
    3    9   20    -16.83      0.00
    5    9   20     -5.20      0.00
    7    9   20     -4.15      0.00
    0   10   20     -7.39      0.00
    2   10   20      0.26      0.00
    4   10   20     -2.63      0.00
    6   10   20     -1.40      0.00
    8   10   20     16.88      0.00
   10   10   20     -4.46      0.00
    1   11   20    -15.07      0.00
    3   11   20     -6.59      0.00
    5   11   20     -3.19      0.00
    7   11   20     -7.50      0.00
    9   11   20      2.86      0.00
    0   12   20     10.89      0.00
    2   12   20     -3.91      0.00
    4   12   20      6.72      0.00
    6   12   20      9.20      0.00
    8   12   20     20.83      0.00
   10   12   20      9.73      0.00
   12   12   20      6.47      0.00
    1   13   20      3.76      0.00
    3   13   20     -7.07      0.00
    5   13   20    -18.88      0.00
    7   13   20      1.08      0.00
    9   13   20      3.03      0.00
   11   13   20     12.04      0.00
    0   14   20     -5.14      0.00
    2   14   20    -14.20      0.00
    4   14   20     17.20      0.00
    6   14   20      0.33      0.00
    8   14   20    -13.12      0.00
   10   14   20      0.43      0.00
   12   14   20     -5.45      0.00
   14   14   20     13.25      0.00
    1   15   20     12.64      0.00
    3   15   20     -8.86      0.00
    5   15   20      5.01      0.00
    7   15   20      2.77      0.00
    9   15   20    -12.31      0.00
   11   15   20      8.54      0.00
   13   15   20    -13.17      0.00
    0   16   20      4.31      0.00
    2   16   20      8.70      0.00
    4   16   20      3.40      0.00
    6   16   20      6.53      0.00
    8   16   20      1.09      0.00
   10   16   20      4.40      0.00
   12   16   20     16.46      0.00
   14   16   20    -13.86      0.00
   16   16   20     -1.56      0.00
    1   17   20     -6.99      0.00
    3   17   20     19.61      0.00
    5   17   20      6.37      0.00
    7   17   20      2.02      0.00
    9   17   20    -22.65      0.00
   11   17   20     -4.50      0.00
   13   17   20     -5.70      0.00
   15   17   20     -6.89      0.00
    0   18   20     -4.21      0.00
    2   18   20     -8.11      0.00
    4   18   20      0.00      0.00
    6   18   20    -13.88      0.00
    8   18   20    -16.64      0.00
   10   18   20      5.71      0.00
   12   18   20     -0.66      0.00
    1   19   20      0.54      0.00
    3   19   20     19.67      0.00
    5   19   20     21.26      0.00
    7   19   20     -5.32      0.00
    9   19   20     14.00      0.00
   11   19   20     14.15      0.00
    0   20   20     14.53      0.00
    2   20   20    -15.92      0.00
    4   20   20     14.85      0.00
    6   20   20     12.97      0.00
    8   20   20     23.05      0.00
   10   20   20    -12.05      0.00
    1   21   20     -4.81      0.00
    3   21   20      3.63      0.00
    5   21   20      4.85      0.00
    7   21   20     -6.38      0.00
    0   22   20    -17.19      0.00
    2   22   20      3.58      0.00
    4   22   20    -11.59      0.00
    0    1   21     -8.65      0.00
    1    2   21     -5.03      0.00
    0    3   21     -2.98      0.00
    2    3   21     -4.60      0.00
    1    4   21    -17.01      0.00
    3    4   21     27.46      0.00
    0    5   21    -44.59      0.00
    2    5   21    -16.77      0.00
    4    5   21    -28.16      0.00
    1    6   21     -2.67      0.00
    3    6   21    -14.94      0.00
    5    6   21     14.03      0.00
    0    7   21    -11.17      0.00
    2    7   21    -22.21      0.00
    4    7   21     -3.68      0.00
    6    7   21     -4.56      0.00
    1    8   21     -4.94      0.00
    3    8   21     25.31      0.00
    5    8   21    -18.58      0.00
    7    8   21      4.09      0.00
    0    9   21      6.58      0.00
    2    9   21      4.43      0.00
    4    9   21      4.44      0.00
    6    9   21      0.32      0.00
    8    9   21     -0.26      0.00
    1   10   21      0.52      0.00
    3   10   21    -13.01      0.00
    5   10   21      3.06      0.00
    7   10   21      3.43      0.00
    9   10   21     12.51      0.00
    0   11   21      3.92      0.00
    2   11   21      1.83      0.00
    4   11   21     -8.78      0.00
    6   11   21      9.84      0.00
    8   11   21      8.38      0.00
   10   11   21      2.07      0.00
    1   12   21     12.03      0.00
    3   12   21      9.56      0.00
    5   12   21    -10.37      0.00
    7   12   21     -8.07      0.00
    9   12   21      4.14      0.00
   11   12   21      1.32      0.00
    0   13   21      4.40      0.00
    2   13   21     -8.98      0.00
    4   13   21     -0.07      0.00
    6   13   21     10.24      0.00
    8   13   21     10.82      0.00
   10   13   21      0.53      0.00
   12   13   21      7.59      0.00
    1   14   21    -14.18      0.00
    3   14   21     -5.65      0.00
    5   14   21     -1.49      0.00
    7   14   21     -2.41      0.00
    9   14   21      0.17      0.00
   11   14   21     11.93      0.00
   13   14   21      6.39      0.00
    0   15   21      3.64      0.00
    2   15   21     -2.50      0.00
    4   15   21      7.40      0.00
    6   15   21     -1.22      0.00
    8   15   21    -12.02      0.00
   10   15   21     -7.09      0.00
   12   15   21      0.71      0.00
   14   15   21     -6.94      0.00
    1   16   21     -7.62      0.00
    3   16   21    -10.10      0.00
    5   16   21    -15.00      0.00
    7   16   21     -2.97      0.00
    9   16   21      3.72      0.00
   11   16   21      7.04      0.00
   13   16   21     12.04      0.00
   15   16   21    -11.44      0.00
    0   17   21    -13.63      0.00
    2   17   21      0.98      0.00
    4   17   21      0.61      0.00
    6   17   21     13.39      0.00
    8   17   21     -0.04      0.00
   10   17   21     15.43      0.00
   12   17   21     27.49      0.00
   14   17   21    -25.45      0.00
    1   18   21     -4.11      0.00
    3   18   21    -12.90      0.00
    5   18   21     -0.11      0.00
    7   18   21     -9.43      0.00
    9   18   21    -26.05      0.00
   11   18   21      0.64      0.00
   13   18   21    -12.56      0.00
    0   19   21     -7.61      0.00
    2   19   21     -4.03      0.00
    4   19   21    -13.11      0.00
    6   19   21     -3.29      0.00
    8   19   21     -8.52      0.00
   10   19   21     -5.84      0.00
   12   19   21     11.00      0.00
    1   20   21     -2.25      0.00
    3   20   21     14.46      0.00
    5   20   21    -22.93      0.00
    7   20   21      0.91      0.00
    9   20   21      3.19      0.00
    0   21   21     -8.23      0.00
    2   21   21    -19.16      0.00
    4   21   21     13.65      0.00
    6   21   21      1.66      0.00
    8   21   21     -5.08      0.00
    1   22   21    -10.96      0.00
    3   22   21      3.84      0.00
    5   22   21      6.02      0.00
    1    1   22     -6.83      0.00
    0    2   22     -8.54      0.00
    1    3   22     13.63      0.00
    3    3   22     29.91      0.00
    0    4   22     -1.65      0.00
    2    4   22      6.60      0.00
    1    5   22     -7.98      0.00
    3    5   22     -8.59      0.00
    5    5   22    -14.67      0.00
    0    6   22    -10.29      0.00
    2    6   22     13.34      0.00
    4    6   22     -8.41      0.00
    1    7   22    -12.31      0.00
    3    7   22     -5.16      0.00
    5    7   22    -11.99      0.00
    7    7   22      0.83      0.00
    0    8   22     -4.32      0.00
    2    8   22     19.88      0.00
    4    8   22      8.47      0.00
    6    8   22     11.13      0.00
    1    9   22      1.30      0.00
    3    9   22    -13.14      0.00
    5    9   22    -11.09      0.00
    7    9   22     -8.15      0.00
    9    9   22    -15.62      0.00
    0   10   22     -2.43      0.00
    2   10   22      6.75      0.00
    4   10   22     10.85      0.00
    6   10   22    -20.97      0.00
    8   10   22     -5.88      0.00
    1   11   22     -5.17      0.00
    3   11   22      7.70      0.00
    5   11   22     -2.00      0.00
    7   11   22     -0.46      0.00
    9   11   22     20.63      0.00
   11   11   22     -0.43      0.00
    0   12   22      7.10      0.00
    2   12   22      5.78      0.00
    4   12   22    -13.84      0.00
    6   12   22     -0.12      0.00
    8   12   22      4.50      0.00
   10   12   22      0.13      0.00
    1   13   22      2.01      0.00
    3   13   22    -12.85      0.00
    5   13   22     -9.13      0.00
    7   13   22      0.20      0.00
    9   13   22      3.21      0.00
   11   13   22     -3.43      0.00
   13   13   22    -12.36      0.00
    0   14   22     -9.91      0.00
    2   14   22    -12.42      0.00
    4   14   22      3.75      0.00
    6   14   22      9.71      0.00
    8   14   22     11.41      0.00
   10   14   22    -12.81      0.00
   12   14   22     12.06      0.00
    1   15   22      8.14      0.00
    3   15   22     -5.43      0.00
    5   15   22      2.24      0.00
    7   15   22     -9.99      0.00
    9   15   22    -12.94      0.00
   11   15   22     17.38      0.00
   13   15   22      6.73      0.00
   15   15   22      7.53      0.00
    0   16   22     -3.20      0.00
    2   16   22     -6.60      0.00
    4   16   22     -2.51      0.00
    6   16   22     -1.55      0.00
    8   16   22      2.09      0.00
   10   16   22     14.79      0.00
   12   16   22     -0.29      0.00
   14   16   22    -15.89      0.00
    1   17   22     -7.76      0.00
    3   17   22     -3.06      0.00
    5   17   22      7.09      0.00
    7   17   22      1.72      0.00
    9   17   22      9.59      0.00
   11   17   22      0.55      0.00
   13   17   22     10.44      0.00
    0   18   22      3.93      0.00
    2   18   22     14.25      0.00
    4   18   22      7.87      0.00
    6   18   22     -5.27      0.00
    8   18   22     -5.49      0.00
   10   18   22      7.87      0.00
   12   18   22     16.05      0.00
    1   19   22      3.61      0.00
    3   19   22     -2.47      0.00
    5   19   22     27.55      0.00
    7   19   22     25.81      0.00
    9   19   22    -39.18      0.00
   11   19   22     11.94      0.00
    0   20   22     14.22      0.00
    2   20   22     -5.34      0.00
    4   20   22    -19.66      0.00
    6   20   22    -10.68      0.00
    8   20   22     -4.64      0.00
   10   20   22     -8.02      0.00
    1   21   22     -9.34      0.00
    3   21   22      2.47      0.00
    5   21   22    -17.11      0.00
    7   21   22     -0.34      0.00
    0   22   22     -3.41      0.00
    2   22   22    -14.50      0.00
    4   22   22    -12.27      0.00
    0    1   23    -39.89      0.00
    1    2   23     26.50      0.00
    0    3   23     26.18      0.00
    2    3   23      3.15      0.00
    1    4   23     -6.52      0.00
    3    4   23      2.88      0.00
    0    5   23     11.62      0.00
    2    5   23     21.76      0.00
    4    5   23      6.28      0.00
    1    6   23    -16.97      0.00
    3    6   23    -15.70      0.00
    5    6   23     -6.83      0.00
    0    7   23      5.88      0.00
    2    7   23     -6.43      0.00
    4    7   23     -5.43      0.00
    6    7   23      4.22      0.00
    1    8   23      0.09      0.00
    3    8   23    -11.94      0.00
    5    8   23    -19.76      0.00
    7    8   23     -8.17      0.00
    0    9   23      6.54      0.00
    2    9   23     12.13      0.00
    4    9   23    -10.85      0.00
    6    9   23     -3.18      0.00
    8    9   23     15.92      0.00
    1   10   23    -14.64      0.00
    3   10   23     -3.26      0.00
    5   10   23     -3.01      0.00
    7   10   23     -4.64      0.00
    9   10   23    -16.19      0.00
    0   11   23      3.83      0.00
    2   11   23      1.41      0.00
    4   11   23      3.84      0.00
    6   11   23     -1.43      0.00
    8   11   23     -7.72      0.00
   10   11   23      4.72      0.00
    1   12   23     -4.58      0.00
    3   12   23     -3.25      0.00
    5   12   23      2.16      0.00
    7   12   23     -2.93      0.00
    9   12   23     20.94      0.00
   11   12   23     -3.41      0.00
    0   13   23    -10.50      0.00
    2   13   23      1.58      0.00
    4   13   23     -2.68      0.00
    6   13   23     -7.83      0.00
    8   13   23      1.13      0.00
   10   13   23     -1.96      0.00
   12   13   23     12.66      0.00
    1   14   23    -10.57      0.00
    3   14   23    -13.88      0.00
    5   14   23      1.91      0.00
    7   14   23      0.70      0.00
    9   14   23    -16.86      0.00
   11   14   23      6.94      0.00
   13   14   23      4.10      0.00
    0   15   23      7.20      0.00
    2   15   23     -7.66      0.00
    4   15   23     -2.60      0.00
    6   15   23     11.28      0.00
    8   15   23      8.61      0.00
   10   15   23     -5.93      0.00
   12   15   23      6.11      0.00
   14   15   23    -15.33      0.00
    1   16   23     -4.53      0.00
    3   16   23      6.10      0.00
    5   16   23    -16.04      0.00
    7   16   23     -1.08      0.00
    9   16   23    -11.32      0.00
   11   16   23     -0.09      0.00
   13   16   23      5.76      0.00
   15   16   23     -0.45      0.00
    0   17   23     -3.52      0.00
    2   17   23    -13.09      0.00
    4   17   23     20.50      0.00
    6   17   23      0.77      0.00
    8   17   23     10.22      0.00
   10   17   23    -22.16      0.00
   12   17   23     -1.49      0.00
   14   17   23      1.09      0.00
    1   18   23      3.97      0.00
    3   18   23    -25.99      0.00
    5   18   23     -2.70      0.00
    7   18   23    -16.16      0.00
    9   18   23    -13.33      0.00
   11   18   23    -11.66      0.00
   13   18   23     -3.53      0.00
    0   19   23     -8.21      0.00
    2   19   23      7.77      0.00
    4   19   23     -1.30      0.00
    6   19   23      1.97      0.00
    8   19   23     -4.90      0.00
   10   19   23     -1.53      0.00
   12   19   23     19.57      0.00
    1   20   23      5.83      0.00
    3   20   23      3.46      0.00
    5   20   23    -11.74      0.00
    7   20   23     16.22      0.00
    9   20   23    -10.16      0.00
    0   21   23      1.39      0.00
    2   21   23      4.51      0.00
    4   21   23     -2.47      0.00
    6   21   23     15.05      0.00
    8   21   23    -28.10      0.00
    1   22   23      0.97      0.00
    3   22   23     -9.40      0.00
    0    0   24    -39.21      0.00
    0    2   24     22.90      0.00
    2    2   24    -37.53      0.00
    1    3   24     12.14      0.00
    0    4   24    -24.65      0.00
    2    4   24      3.40      0.00
    4    4   24      1.04      0.00
    1    5   24     -9.12      0.00
    3    5   24     -1.42      0.00
    0    6   24     15.93      0.00
    2    6   24    -17.20      0.00
    4    6   24      9.60      0.00
    6    6   24     10.16      0.00
    1    7   24     -5.28      0.00
    3    7   24     -7.58      0.00
    5    7   24    -14.37      0.00
    0    8   24      1.37      0.00
    2    8   24     10.41      0.00
    4    8   24      3.83      0.00
    6    8   24      1.68      0.00
    8    8   24      5.90      0.00
    1    9   24     12.62      0.00
    3    9   24     -7.44      0.00
    5    9   24     18.83      0.00
    7    9   24     10.98      0.00
    0   10   24     25.42      0.00
    2   10   24     -8.75      0.00
    4   10   24     -3.30      0.00
    6   10   24      2.43      0.00
    8   10   24      3.02      0.00
   10   10   24      6.13      0.00
    1   11   24     13.44      0.00
    3   11   24     13.74      0.00
    5   11   24     -1.21      0.00
    7   11   24     -0.98      0.00
    9   11   24     -3.30      0.00
    0   12   24    -11.97      0.00
    2   12   24     -4.60      0.00
    4   12   24      1.88      0.00
    6   12   24    -12.28      0.00
    8   12   24      2.86      0.00
   10   12   24      2.81      0.00
   12   12   24     -5.21      0.00
    1   13   24    -29.06      0.00
    3   13   24     -6.35      0.00
    5   13   24     11.10      0.00
    7   13   24     19.83      0.00
    9   13   24      8.45      0.00
   11   13   24     10.22      0.00
    0   14   24      0.41      0.00
    2   14   24    -13.19      0.00
    4   14   24      0.15      0.00
    6   14   24      5.32      0.00
    8   14   24      8.67      0.00
   10   14   24     13.14      0.00
   12   14   24      3.96      0.00
   14   14   24     13.30      0.00
    1   15   24      6.51      0.00
    3   15   24     -3.72      0.00
    5   15   24     15.20      0.00
    7   15   24      3.28      0.00
    9   15   24     -7.65      0.00
   11   15   24      0.38      0.00
   13   15   24     -8.95      0.00
    0   16   24    -13.15      0.00
    2   16   24      0.18      0.00
    4   16   24    -15.34      0.00
    6   16   24      6.78      0.00
    8   16   24     28.89      0.00
   10   16   24      4.23      0.00
   12   16   24     -6.33      0.00
   14   16   24     -4.69      0.00
    1   17   24      7.84      0.00
    3   17   24     12.39      0.00
    5   17   24     -4.73      0.00
    7   17   24    -16.13      0.00
    9   17   24    -13.71      0.00
   11   17   24      4.01      0.00
   13   17   24    -15.88      0.00
    0   18   24     33.11      0.00
    2   18   24    -11.87      0.00
    4   18   24      3.45      0.00
    6   18   24     14.36      0.00
    8   18   24      5.18      0.00
   10   18   24      1.18      0.00
   12   18   24    -15.94      0.00
    1   19   24      5.66      0.00
    3   19   24     -6.40      0.00
    5   19   24    -15.28      0.00
    7   19   24    -24.95      0.00
    9   19   24    -16.94      0.00
   11   19   24     -8.03      0.00
    0   20   24    -18.26      0.00
    2   20   24     -5.54      0.00
    4   20   24     -4.61      0.00
    6   20   24    -22.84      0.00
    8   20   24     -2.78      0.00
   10   20   24    -29.02      0.00
    1   21   24    -26.92      0.00
    3   21   24     -0.89      0.00
    5   21   24    -25.27      0.00
    7   21   24     -7.29      0.00
    0   22   24     26.88      0.00
    2   22   24     18.85      0.00
    4   22   24     -8.04      0.00
    0    1   25     14.73      0.00
    1    2   25     -5.00      0.00
    0    3   25     20.03      0.00
    2    3   25     32.83      0.00
    1    4   25     10.97      0.00
    3    4   25      6.88      0.00
    0    5   25     15.76      0.00
    2    5   25     -4.20      0.00
    4    5   25     16.10      0.00
    1    6   25     12.42      0.00
    3    6   25     18.70      0.00
    5    6   25     -5.15      0.00
    0    7   25     -7.92      0.00
    2    7   25     25.37      0.00
    4    7   25      5.03      0.00
    6    7   25     13.81      0.00
    1    8   25      7.70      0.00
    3    8   25      4.32      0.00
    5    8   25     -1.99      0.00
    7    8   25     -3.16      0.00
    0    9   25      7.84      0.00
    2    9   25     -7.93      0.00
    4    9   25     -1.10      0.00
    6    9   25     -2.93      0.00
    8    9   25    -14.27      0.00
    1   10   25      3.43      0.00
    3   10   25     16.38      0.00
    5   10   25    -12.94      0.00
    7   10   25     -5.91      0.00
    9   10   25      4.53      0.00
    0   11   25      3.01      0.00
    2   11   25    -10.34      0.00
    4   11   25     -9.30      0.00
    6   11   25     -1.16      0.00
    8   11   25      4.18      0.00
   10   11   25      8.35      0.00
    1   12   25      1.63      0.00
    3   12   25    -10.29      0.00
    5   12   25     -5.76      0.00
    7   12   25     -7.02      0.00
    9   12   25      7.30      0.00
   11   12   25     14.70      0.00
    0   13   25    -27.99      0.00
    2   13   25     -7.93      0.00
    4   13   25     -3.95      0.00
    6   13   25     -1.47      0.00
    8   13   25     -2.71      0.00
   10   13   25     -0.38      0.00
   12   13   25      4.76      0.00
    1   14   25     -5.18      0.00
    3   14   25      6.50      0.00
    5   14   25     10.27      0.00
    7   14   25      6.48      0.00
    9   14   25     10.43      0.00
   11   14   25     -6.40      0.00
   13   14   25     20.40      0.00
    0   15   25      7.45      0.00
    2   15   25      2.25      0.00
    4   15   25     -7.34      0.00
    6   15   25     -5.52      0.00
    8   15   25    -16.50      0.00
   10   15   25     -2.25      0.00
   12   15   25     -3.70      0.00
   14   15   25      6.38      0.00
    1   16   25      5.64      0.00
    3   16   25     -7.58      0.00
    5   16   25     -6.03      0.00
    7   16   25     -0.47      0.00
    9   16   25      1.10      0.00
   11   16   25     -6.17      0.00
   13   16   25    -11.73      0.00
   15   16   25     -3.85      0.00
    0   17   25      3.95      0.00
    2   17   25      5.93      0.00
    4   17   25     19.99      0.00
    6   17   25      1.48      0.00
    8   17   25     -3.46      0.00
   10   17   25     -7.05      0.00
   12   17   25     20.50      0.00
   14   17   25    -21.73      0.00
    1   18   25     -4.43      0.00
    3   18   25     -4.16      0.00
    5   18   25    -17.34      0.00
    7   18   25     -2.93      0.00
    9   18   25    -21.63      0.00
   11   18   25      8.19      0.00
   13   18   25     -5.40      0.00
    0   19   25     14.21      0.00
    2   19   25      4.44      0.00
    4   19   25     -4.54      0.00
    6   19   25      8.93      0.00
    8   19   25    -11.14      0.00
   10   19   25      4.69      0.00
    1   20   25      2.09      0.00
    3   20   25      7.35      0.00
    5   20   25    -16.14      0.00
    7   20   25      4.21      0.00
    9   20   25     14.72      0.00
    0   21   25    -16.63      0.00
    2   21   25     -2.45      0.00
    4   21   25     -1.01      0.00
    6   21   25    -19.96      0.00
    1   22   25      3.61      0.00
    3   22   25    -17.48      0.00
    1    1   26     -9.27      0.00
    0    2   26     72.07      0.00
    1    3   26    -10.45      0.00
    3    3   26    -24.91      0.00
    0    4   26    -10.13      0.00
    2    4   26     44.91      0.00
    1    5   26    -26.86      0.00
    3    5   26     -7.46      0.00
    5    5   26    -19.93      0.00
    0    6   26     20.35      0.00
    2    6   26     -4.57      0.00
    4    6   26     -5.65      0.00
    1    7   26      6.21      0.00
    3    7   26      0.75      0.00
    5    7   26      8.00      0.00
    7    7   26      1.39      0.00
    0    8   26    -23.94      0.00
    2    8   26      8.74      0.00
    4    8   26     -8.56      0.00
    6    8   26    -18.12      0.00
    1    9   26      0.29      0.00
    3    9   26      0.44      0.00
    5    9   26      7.21      0.00
    7    9   26     -3.26      0.00
    9    9   26      2.65      0.00
    0   10   26     -6.10      0.00
    2   10   26     -0.91      0.00
    4   10   26    -10.60      0.00
    6   10   26    -10.28      0.00
    8   10   26    -15.18      0.00
    1   11   26     -3.03      0.00
    3   11   26      4.12      0.00
    5   11   26     -3.65      0.00
    7   11   26      3.89      0.00
    9   11   26     12.20      0.00
   11   11   26     -8.45      0.00
    0   12   26     -3.31      0.00
    2   12   26      5.40      0.00
    4   12   26     -5.27      0.00
    6   12   26    -22.69      0.00
    8   12   26    -12.57      0.00
   10   12   26      6.56      0.00
    1   13   26      8.27      0.00
    3   13   26      7.25      0.00
    5   13   26      1.45      0.00
    7   13   26     10.93      0.00
    9   13   26     -4.56      0.00
   11   13   26     -9.45      0.00
   13   13   26    -15.15      0.00
    0   14   26     22.90      0.00
    2   14   26    -20.41      0.00
    4   14   26     -7.94      0.00
    6   14   26     -6.79      0.00
    8   14   26     -4.60      0.00
   10   14   26     -0.29      0.00
   12   14   26      0.42      0.00
    1   15   26      7.68      0.00
    3   15   26     -7.94      0.00
    5   15   26      6.54      0.00
    7   15   26    -14.50      0.00
    9   15   26     -8.27      0.00
   11   15   26    -10.83      0.00
   13   15   26    -11.04      0.00
   15   15   26    -15.13      0.00
    0   16   26      0.70      0.00
    2   16   26     10.27      0.00
    4   16   26     -8.30      0.00
    6   16   26    -30.23      0.00
    8   16   26     -3.70      0.00
   10   16   26    -14.14      0.00
   12   16   26     -7.10      0.00
   14   16   26     -3.57      0.00
    1   17   26      5.25      0.00
    3   17   26     -7.16      0.00
    5   17   26     10.15      0.00
    7   17   26     16.47      0.00
    9   17   26      0.96      0.00
   11   17   26      3.30      0.00
   13   17   26    -13.53      0.00
    0   18   26      2.56      0.00
    2   18   26     12.82      0.00
    4   18   26     -0.62      0.00
    6   18   26     17.01      0.00
    8   18   26     -9.06      0.00
   10   18   26     -5.33      0.00
   12   18   26      4.09      0.00
    1   19   26     -0.58      0.00
    3   19   26     -2.00      0.00
    5   19   26     -2.70      0.00
    7   19   26    -11.04      0.00
    9   19   26    -14.22      0.00
   11   19   26      5.51      0.00
    0   20   26     -3.97      0.00
    2   20   26    -19.28      0.00
    4   20   26     13.34      0.00
    6   20   26    -13.47      0.00
    8   20   26     25.28      0.00
    1   21   26     -6.78      0.00
    3   21   26      2.60      0.00
    5   21   26     -8.09      0.00
    7   21   26      1.18      0.00
    0   22   26    -34.49      0.00
    2   22   26    -13.25      0.00
    0    1   27     -0.07      0.00
    1    2   27      1.64      0.00
    0    3   27     -6.11      0.00
    2    3   27      7.17      0.00
    1    4   27     15.42      0.00
    3    4   27      6.33      0.00
    0    5   27     -5.40      0.00
    2    5   27     -4.77      0.00
    4    5   27     -1.06      0.00
    1    6   27      2.79      0.00
    3    6   27      7.78      0.00
    5    6   27    -14.55      0.00
    0    7   27     -6.33      0.00
    2    7   27     -1.68      0.00
    4    7   27    -20.12      0.00
    6    7   27     -9.94      0.00
    1    8   27      1.18      0.00
    3    8   27     -3.01      0.00
    5    8   27      6.56      0.00
    7    8   27      3.84      0.00
    0    9   27     10.70      0.00
    2    9   27     -1.30      0.00
    4    9   27     -0.01      0.00
    6    9   27      7.13      0.00
    8    9   27      6.38      0.00
    1   10   27      3.90      0.00
    3   10   27      2.43      0.00
    5   10   27     13.33      0.00
    7   10   27     -8.10      0.00
    9   10   27      3.42      0.00
    0   11   27     -8.80      0.00
    2   11   27      4.36      0.00
    4   11   27      7.12      0.00
    6   11   27     -8.45      0.00
    8   11   27     16.67      0.00
   10   11   27     -1.96      0.00
    1   12   27    -17.27      0.00
    3   12   27     -8.92      0.00
    5   12   27     -0.71      0.00
    7   12   27     -0.71      0.00
    9   12   27     -1.30      0.00
   11   12   27      8.52      0.00
    0   13   27      7.94      0.00
    2   13   27     -2.51      0.00
    4   13   27      7.50      0.00
    6   13   27     14.66      0.00
    8   13   27      7.23      0.00
   10   13   27      0.48      0.00
   12   13   27     -1.10      0.00
    1   14   27      3.06      0.00
    3   14   27      9.23      0.00
    5   14   27      3.12      0.00
    7   14   27      7.22      0.00
    9   14   27     -1.58      0.00
   11   14   27     -9.16      0.00
   13   14   27      1.28      0.00
    0   15   27     13.97      0.00
    2   15   27     14.03      0.00
    4   15   27    -10.01      0.00
    6   15   27     -8.64      0.00
    8   15   27     14.38      0.00
   10   15   27    -12.89      0.00
   12   15   27     -7.32      0.00
   14   15   27     -6.20      0.00
    1   16   27     11.17      0.00
    3   16   27     -8.70      0.00
    5   16   27     -1.10      0.00
    7   16   27     21.13      0.00
    9   16   27     17.83      0.00
   11   16   27     -1.46      0.00
   13   16   27    -11.95      0.00
   15   16   27     -4.78      0.00
    0   17   27     -7.14      0.00
    2   17   27     -2.28      0.00
    4   17   27      3.04      0.00
    6   17   27    -14.09      0.00
    8   17   27     -5.80      0.00
   10   17   27     -0.74      0.00
   12   17   27     16.67      0.00
    1   18   27     -3.19      0.00
    3   18   27      4.26      0.00
    5   18   27      5.76      0.00
    7   18   27     14.18      0.00
    9   18   27      2.00      0.00
   11   18   27      5.70      0.00
    0   19   27     12.00      0.00
    2   19   27     -4.21      0.00
    4   19   27     -2.21      0.00
    6   19   27      2.18      0.00
    8   19   27     -6.63      0.00
   10   19   27     -0.60      0.00
    1   20   27     -0.98      0.00
    3   20   27      0.67      0.00
    5   20   27    -13.49      0.00
    7   20   27     25.19      0.00
    9   20   27    -13.56      0.00
    0   21   27     -5.00      0.00
    2   21   27     -5.18      0.00
    4   21   27    -15.88      0.00
    6   21   27     -3.63      0.00
    0    0   28     55.43      0.00
    0    2   28     -4.87      0.00
    2    2   28     -9.68      0.00
    1    3   28     31.54      0.00
    0    4   28      5.80      0.00
    2    4   28     -7.31      0.00
    4    4   28      7.55      0.00
    1    5   28     19.89      0.00
    3    5   28      7.89      0.00
    0    6   28    -12.93      0.00
    2    6   28      0.08      0.00
    4    6   28     -5.07      0.00
    6    6   28     -3.18      0.00
    1    7   28     -9.30      0.00
    3    7   28     -0.01      0.00
    5    7   28      8.83      0.00
    0    8   28      1.62      0.00
    2    8   28    -11.44      0.00
    4    8   28     -8.82      0.00
    6    8   28     -4.88      0.00
    8    8   28    -14.34      0.00
    1    9   28     -0.74      0.00
    3    9   28      9.85      0.00
    5    9   28     -5.93      0.00
    7    9   28      1.49      0.00
    0   10   28      7.27      0.00
    2   10   28     -0.10      0.00
    4   10   28      3.95      0.00
    6   10   28      2.16      0.00
    8   10   28      4.46      0.00
   10   10   28      0.70      0.00
    1   11   28     -2.22      0.00
    3   11   28     -7.06      0.00
    5   11   28     -1.04      0.00
    7   11   28    -17.52      0.00
    9   11   28      7.05      0.00
    0   12   28     -2.10      0.00
    2   12   28      8.31      0.00
    4   12   28      4.38      0.00
    6   12   28      8.91      0.00
    8   12   28     -2.01      0.00
   10   12   28     -0.63      0.00
   12   12   28     -6.82      0.00
    1   13   28     -9.46      0.00
    3   13   28      4.88      0.00
    5   13   28     -1.89      0.00
    7   13   28     -6.29      0.00
    9   13   28    -10.28      0.00
   11   13   28    -13.20      0.00
    0   14   28      9.70      0.00
    2   14   28     -3.94      0.00
    4   14   28     12.65      0.00
    6   14   28      3.35      0.00
    8   14   28     14.22      0.00
   10   14   28      5.73      0.00
   12   14   28     -4.67      0.00
   14   14   28     26.35      0.00
    1   15   28     10.27      0.00
    3   15   28      3.53      0.00
    5   15   28    -13.70      0.00
    7   15   28    -18.75      0.00
    9   15   28    -17.78      0.00
   11   15   28     -3.14      0.00
   13   15   28     -6.57      0.00
    0   16   28     -4.39      0.00
    2   16   28     -2.16      0.00
    4   16   28     -6.97      0.00
    6   16   28      3.14      0.00
    8   16   28      8.73      0.00
   10   16   28      8.09      0.00
   12   16   28      0.71      0.00
   14   16   28      3.69      0.00
    1   17   28    -17.60      0.00
    3   17   28     15.07      0.00
    5   17   28     11.08      0.00
    7   17   28     -7.01      0.00
    9   17   28      7.44      0.00
   11   17   28     24.09      0.00
   13   17   28      7.57      0.00
    0   18   28     -3.31      0.00
    2   18   28     -2.12      0.00
    4   18   28    -20.18      0.00
    6   18   28     -9.06      0.00
    8   18   28     -3.55      0.00
   10   18   28     -6.61      0.00
   12   18   28    -24.68      0.00
    1   19   28     -0.55      0.00
    3   19   28      8.50      0.00
    5   19   28      9.56      0.00
    7   19   28      2.35      0.00
    9   19   28      5.41      0.00
    0   20   28      5.44      0.00
    2   20   28     -6.64      0.00
    4   20   28     -3.99      0.00
    6   20   28    -15.11      0.00
    8   20   28     17.80      0.00
    1   21   28      3.48      0.00
    3   21   28      6.70      0.00
    5   21   28    -20.88      0.00
    0    1   29     -3.25      0.00
    1    2   29      2.22      0.00
    0    3   29     -9.48      0.00
    2    3   29     -4.17      0.00
    1    4   29     -4.03      0.00
    3    4   29     10.97      0.00
    0    5   29     -2.75      0.00
    2    5   29    -17.42      0.00
    4    5   29     -7.49      0.00
    1    6   29     -0.84      0.00
    3    6   29     -8.82      0.00
    5    6   29      5.19      0.00
    0    7   29    -10.53      0.00
    2    7   29      5.25      0.00
    4    7   29      4.38      0.00
    6    7   29      8.49      0.00
    1    8   29    -10.50      0.00
    3    8   29      0.74      0.00
    5    8   29    -10.25      0.00
    7    8   29      5.76      0.00
    0    9   29     -5.38      0.00
    2    9   29      2.22      0.00
    4    9   29     10.16      0.00
    6    9   29     15.59      0.00
    8    9   29      0.37      0.00
    1   10   29     14.58      0.00
    3   10   29      2.61      0.00
    5   10   29    -10.71      0.00
    7   10   29     -2.46      0.00
    9   10   29     -1.64      0.00
    0   11   29      3.27      0.00
    2   11   29      6.74      0.00
    4   11   29     15.08      0.00
    6   11   29      2.96      0.00
    8   11   29     -5.53      0.00
   10   11   29      4.11      0.00
    1   12   29     32.47      0.00
    3   12   29     11.39      0.00
    5   12   29     -9.01      0.00
    7   12   29    -13.12      0.00
    9   12   29     -7.36      0.00
   11   12   29     -3.89      0.00
    0   13   29      7.95      0.00
    2   13   29     -1.71      0.00
    4   13   29     -2.97      0.00
    6   13   29     10.18      0.00
    8   13   29      6.94      0.00
   10   13   29     11.07      0.00
   12   13   29    -20.96      0.00
    1   14   29      4.24      0.00
    3   14   29     -5.88      0.00
    5   14   29     -2.46      0.00
    7   14   29    -22.44      0.00
    9   14   29      1.14      0.00
   11   14   29     15.86      0.00
   13   14   29      5.27      0.00
    0   15   29     -6.41      0.00
    2   15   29     -0.46      0.00
    4   15   29     -3.67      0.00
    6   15   29    -22.02      0.00
    8   15   29      5.05      0.00
   10   15   29     -7.16      0.00
   12   15   29    -15.92      0.00
   14   15   29     -5.61      0.00
    1   16   29    -12.70      0.00
    3   16   29      5.44      0.00
    5   16   29     -8.60      0.00
    7   16   29     23.86      0.00
    9   16   29     20.06      0.00
   11   16   29      2.14      0.00
   13   16   29     -1.92      0.00
    0   17   29    -10.21      0.00
    2   17   29      2.78      0.00
    4   17   29     -7.17      0.00
    6   17   29     -4.43      0.00
    8   17   29     -7.70      0.00
   10   17   29     -4.96      0.00
   12   17   29     14.13      0.00
    1   18   29     22.82      0.00
    3   18   29     12.00      0.00
    5   18   29     16.63      0.00
    7   18   29     -7.09      0.00
    9   18   29     15.63      0.00
   11   18   29      2.75      0.00
    0   19   29     21.38      0.00
    2   19   29    -12.60      0.00
    4   19   29     11.77      0.00
    6   19   29     -3.27      0.00
    8   19   29     -7.57      0.00
   10   19   29     12.36      0.00
    1   20   29    -32.37      0.00
    3   20   29     10.47      0.00
    5   20   29    -18.81      0.00
    7   20   29     19.01      0.00
    0   21   29    -19.29      0.00
    2   21   29      9.95      0.00
    4   21   29     -9.37      0.00
    1    1   30      2.82      0.00
    0    2   30      1.28      0.00
    1    3   30      2.10      0.00
    3    3   30     -1.46      0.00
    0    4   30     17.37      0.00
    2    4   30     23.34      0.00
    1    5   30     -2.82      0.00
    3    5   30      8.64      0.00
    5    5   30      4.98      0.00
    0    6   30    -13.73      0.00
    2    6   30     -3.97      0.00
    4    6   30      7.33      0.00
    1    7   30     26.88      0.00
    3    7   30     -5.25      0.00
    5    7   30      9.60      0.00
    7    7   30      2.07      0.00
    0    8   30     -5.13      0.00
    2    8   30      9.26      0.00
    4    8   30     -5.14      0.00
    6    8   30      9.38      0.00
    1    9   30     -6.47      0.00
    3    9   30      6.60      0.00
    5    9   30      5.32      0.00
    7    9   30      1.03      0.00
    9    9   30    -23.58      0.00
    0   10   30      5.27      0.00
    2   10   30      5.16      0.00
    4   10   30     15.66      0.00
    6   10   30     -7.83      0.00
    8   10   30      8.68      0.00
    1   11   30     -7.67      0.00
    3   11   30    -11.20      0.00
    5   11   30     -2.39      0.00
    7   11   30    -10.59      0.00
    9   11   30     17.72      0.00
   11   11   30     -2.41      0.00
    0   12   30     21.58      0.00
    2   12   30     -1.77      0.00
    4   12   30    -19.16      0.00
    6   12   30      0.99      0.00
    8   12   30     -8.77      0.00
   10   12   30      5.69      0.00
    1   13   30      0.15      0.00
    3   13   30     10.01      0.00
    5   13   30      6.92      0.00
    7   13   30     15.68      0.00
    9   13   30     16.04      0.00
   11   13   30      9.24      0.00
   13   13   30    -15.75      0.00
    0   14   30    -10.14      0.00
    2   14   30      0.16      0.00
    4   14   30      7.27      0.00
    6   14   30     -0.37      0.00
    8   14   30     -4.90      0.00
   10   14   30     11.17      0.00
   12   14   30      3.67      0.00
    1   15   30      1.75      0.00
    3   15   30    -11.33      0.00
    5   15   30     -9.28      0.00
    7   15   30     11.63      0.00
    9   15   30     19.83      0.00
   11   15   30     -1.99      0.00
   13   15   30      0.73      0.00
   15   15   30      8.94      0.00
    0   16   30    -22.81      0.00
    2   16   30      3.60      0.00
    4   16   30      5.99      0.00
    6   16   30     -6.30      0.00
    8   16   30      4.67      0.00
   10   16   30     -7.22      0.00
   12   16   30    -11.47      0.00
   14   16   30      0.57      0.00
    1   17   30     14.40      0.00
    3   17   30     11.31      0.00
    5   17   30      7.37      0.00
    7   17   30    -15.54      0.00
    9   17   30      7.20      0.00
   11   17   30      5.73      0.00
   13   17   30    -20.14      0.00
    0   18   30    -12.10      0.00
    2   18   30    -21.99      0.00
    4   18   30     25.06      0.00
    6   18   30     -7.53      0.00
    8   18   30     18.93      0.00
   10   18   30     -5.18      0.00
    1   19   30     32.59      0.00
    3   19   30     -3.30      0.00
    5   19   30     -3.38      0.00
    7   19   30     22.82      0.00
    9   19   30      6.52      0.00
    0   20   30     18.88      0.00
    2   20   30      7.97      0.00
    4   20   30     -1.84      0.00
    6   20   30     -1.51      0.00
    8   20   30     28.55      0.00
    1   21   30      5.84      0.00
    3   21   30     11.74      0.00
    5   21   30     -3.58      0.00
    0    1   31    -15.16      0.00
    1    2   31     16.15      0.00
    0    3   31     12.54      0.00
    2    3   31      4.81      0.00
    1    4   31     16.90      0.00
    3    4   31     11.78      0.00
    0    5   31     -1.51      0.00
    2    5   31      0.72      0.00
    4    5   31     -7.07      0.00
    1    6   31    -11.86      0.00
    3    6   31     -4.09      0.00
    5    6   31     -2.73      0.00
    0    7   31      6.54      0.00
    2    7   31     12.49      0.00
    4    7   31     13.67      0.00
    6    7   31      3.05      0.00
    1    8   31      5.98      0.00
    3    8   31      6.90      0.00
    5    8   31      0.92      0.00
    7    8   31     -3.87      0.00
    0    9   31     -1.85      0.00
    2    9   31      8.39      0.00
    4    9   31     -3.92      0.00
    6    9   31      4.48      0.00
    8    9   31     -0.20      0.00
    1   10   31      6.94      0.00
    3   10   31    -12.23      0.00
    5   10   31      8.09      0.00
    7   10   31     -3.25      0.00
    9   10   31     -8.29      0.00
    0   11   31     -1.76      0.00
    2   11   31    -10.03      0.00
    4   11   31     -1.14      0.00
    6   11   31     -7.91      0.00
    8   11   31      1.39      0.00
   10   11   31    -14.46      0.00
    1   12   31      0.23      0.00
    3   12   31      2.23      0.00
    5   12   31     -0.15      0.00
    7   12   31      3.35      0.00
    9   12   31      4.04      0.00
   11   12   31      1.66      0.00
    0   13   31      0.42      0.00
    2   13   31      7.00      0.00
    4   13   31      3.54      0.00
    6   13   31      1.87      0.00
    8   13   31     10.97      0.00
   10   13   31      9.09      0.00
   12   13   31      1.76      0.00
    1   14   31      5.01      0.00
    3   14   31      0.23      0.00
    5   14   31      4.89      0.00
    7   14   31      5.75      0.00
    9   14   31     17.84      0.00
   11   14   31     11.88      0.00
   13   14   31      6.20      0.00
    0   15   31      0.34      0.00
    2   15   31     11.42      0.00
    4   15   31      7.45      0.00
    6   15   31      0.87      0.00
    8   15   31      9.83      0.00
   10   15   31     -7.66      0.00
   12   15   31     -7.43      0.00
   14   15   31     -5.55      0.00
    1   16   31    -15.60      0.00
    3   16   31      3.50      0.00
    5   16   31     -5.70      0.00
    7   16   31     17.83      0.00
    9   16   31      5.01      0.00
   11   16   31     19.36      0.00
   13   16   31      6.35      0.00
    0   17   31     -7.53      0.00
    2   17   31     12.62      0.00
    4   17   31     11.07      0.00
    6   17   31     -8.95      0.00
    8   17   31     11.26      0.00
   10   17   31      5.25      0.00
   12   17   31     -1.88      0.00
    1   18   31      5.65      0.00
    3   18   31    -11.17      0.00
    5   18   31     22.45      0.00
    7   18   31     13.11      0.00
    9   18   31     13.45      0.00
   11   18   31     -5.34      0.00
    0   19   31      3.01      0.00
    2   19   31      6.45      0.00
    4   19   31     -4.30      0.00
    6   19   31      1.30      0.00
    8   19   31     -5.79      0.00
   10   19   31    -15.52      0.00
    1   20   31    -22.36      0.00
    3   20   31    -15.15      0.00
    5   20   31    -18.24      0.00
    7   20   31     19.19      0.00
    0   21   31     22.19      0.00
    2   21   31     11.32      0.00
    4   21   31     -2.58      0.00
    0    0   32     -5.09      0.00
    0    2   32      3.92      0.00
    2    2   32    -10.89      0.00
    1    3   32     -5.23      0.00
    0    4   32     12.45      0.00
    2    4   32     -7.99      0.00
    4    4   32     -7.64      0.00
    1    5   32     -9.29      0.00
    3    5   32     -6.84      0.00
    0    6   32      2.15      0.00
    2    6   32      2.51      0.00
    4    6   32      5.95      0.00
    6    6   32      7.96      0.00
    1    7   32      5.18      0.00
    3    7   32     12.38      0.00
    5    7   32     -5.70      0.00
    0    8   32     -2.49      0.00
    2    8   32    -11.23      0.00
    4    8   32     -1.25      0.00
    6    8   32      1.54      0.00
    8    8   32    -13.30      0.00
    1    9   32      1.72      0.00
    3    9   32      3.53      0.00
    5    9   32      7.85      0.00
    7    9   32     -5.80      0.00
    0   10   32      3.90      0.00
    2   10   32      5.76      0.00
    4   10   32      7.40      0.00
    6   10   32     -5.30      0.00
    8   10   32      5.44      0.00
   10   10   32     18.71      0.00
    1   11   32      9.07      0.00
    3   11   32     14.65      0.00
    5   11   32     16.21      0.00
    7   11   32     13.57      0.00
    9   11   32      8.45      0.00
    0   12   32     12.49      0.00
    2   12   32     -4.08      0.00
    4   12   32    -16.50      0.00
    6   12   32      4.77      0.00
    8   12   32     23.15      0.00
   10   12   32      3.86      0.00
   12   12   32     10.50      0.00
    1   13   32      0.14      0.00
    3   13   32     10.04      0.00
    5   13   32      5.07      0.00
    7   13   32      6.30      0.00
    9   13   32     15.37      0.00
   11   13   32     15.10      0.00
    0   14   32    -15.52      0.00
    2   14   32    -16.07      0.00
    4   14   32     10.49      0.00
    6   14   32     -3.58      0.00
    8   14   32      6.54      0.00
   10   14   32      8.45      0.00
   12   14   32    -13.68      0.00
   14   14   32     24.08      0.00
    1   15   32      5.09      0.00
    3   15   32      1.73      0.00
    5   15   32      0.48      0.00
    7   15   32      2.06      0.00
    9   15   32     13.11      0.00
   11   15   32    -14.73      0.00
   13   15   32     -0.45      0.00
    0   16   32      6.41      0.00
    2   16   32     24.81      0.00
    4   16   32     -5.96      0.00
    6   16   32      6.57      0.00
    8   16   32     18.79      0.00
   10   16   32     16.52      0.00
   12   16   32      5.80      0.00
   14   16   32     10.79      0.00
    1   17   32     -1.53      0.00
    3   17   32      5.19      0.00
    5   17   32     -4.06      0.00
    7   17   32     -6.54      0.00
    9   17   32      4.16      0.00
   11   17   32     11.05      0.00
    0   18   32     12.31      0.00
    2   18   32     -9.33      0.00
    4   18   32     22.90      0.00
    6   18   32      8.19      0.00
    8   18   32     13.44      0.00
   10   18   32     19.98      0.00
    1   19   32    -13.83      0.00
    3   19   32     -6.69      0.00
    5   19   32     -1.10      0.00
    7   19   32     10.77      0.00
    9   19   32     -6.64      0.00
    0   20   32    -12.90      0.00
    2   20   32      3.03      0.00
    4   20   32    -18.00      0.00
    6   20   32     -4.50      0.00
    1   21   32     -2.26      0.00
    3   21   32     -2.71      0.00
    0    1   33     13.56      0.00
    1    2   33     -8.17      0.00
    0    3   33     -2.40      0.00
    2    3   33     -0.70      0.00
    1    4   33      0.94      0.00
    3    4   33      4.52      0.00
    0    5   33     -5.38      0.00
    2    5   33    -22.56      0.00
    4    5   33     -0.47      0.00
    1    6   33     -0.36      0.00
    3    6   33    -12.39      0.00
    5    6   33      0.59      0.00
    0    7   33      5.23      0.00
    2    7   33      9.67      0.00
    4    7   33      1.51      0.00
    6    7   33      7.55      0.00
    1    8   33    -14.00      0.00
    3    8   33      8.10      0.00
    5    8   33     -8.30      0.00
    7    8   33      5.10      0.00
    0    9   33     -4.01      0.00
    2    9   33      4.20      0.00
    4    9   33      9.75      0.00
    6    9   33     18.82      0.00
    8    9   33    -11.05      0.00
    1   10   33      1.99      0.00
    3   10   33     -7.63      0.00
    5   10   33      7.55      0.00
    7   10   33      5.82      0.00
    9   10   33     17.03      0.00
    0   11   33      2.85      0.00
    2   11   33     -1.49      0.00
    4   11   33      2.91      0.00
    6   11   33     -1.62      0.00
    8   11   33      9.34      0.00
   10   11   33     27.80      0.00
    1   12   33     -2.47      0.00
    3   12   33     -0.25      0.00
    5   12   33     -6.59      0.00
    7   12   33     14.05      0.00
    9   12   33     13.78      0.00
   11   12   33      1.49      0.00
    0   13   33    -11.77      0.00
    2   13   33      0.85      0.00
    4   13   33     13.62      0.00
    6   13   33      2.09      0.00
    8   13   33     -6.63      0.00
   10   13   33     16.67      0.00
   12   13   33     -7.35      0.00
    1   14   33    -19.24      0.00
    3   14   33     -6.60      0.00
    5   14   33      1.32      0.00
    7   14   33      4.85      0.00
    9   14   33      6.83      0.00
   11   14   33    -18.81      0.00
   13   14   33      6.11      0.00
    0   15   33      4.76      0.00
    2   15   33     -5.13      0.00
    4   15   33      1.16      0.00
    6   15   33     -7.64      0.00
    8   15   33     10.74      0.00
   10   15   33    -11.48      0.00
   12   15   33     -8.81      0.00
   14   15   33     12.30      0.00
    1   16   33     -6.15      0.00
    3   16   33      9.94      0.00
    5   16   33      2.82      0.00
    7   16   33    -18.12      0.00
    9   16   33    -14.36      0.00
   11   16   33    -12.10      0.00
   13   16   33    -23.27      0.00
    0   17   33     -3.76      0.00
    2   17   33     -7.47      0.00
    4   17   33      3.95      0.00
    6   17   33     -8.30      0.00
    8   17   33     10.35      0.00
   10   17   33     22.62      0.00
   12   17   33      9.89      0.00
    1   18   33     -9.37      0.00
    3   18   33     14.88      0.00
    5   18   33    -10.76      0.00
    7   18   33     -1.36      0.00
    9   18   33      6.50      0.00
   11   18   33    -11.96      0.00
    0   19   33     36.61      0.00
    2   19   33     10.21      0.00
    4   19   33     -8.80      0.00
    6   19   33     14.87      0.00
    8   19   33     15.64      0.00
    1   20   33      3.03      0.00
    3   20   33     -6.43      0.00
    5   20   33     -4.39      0.00
    0   21   33      0.87      0.00
    2   21   33     20.02      0.00
    1    1   34      9.38      0.00
    0    2   34     -3.55      0.00
    1    3   34      6.09      0.00
    3    3   34     -2.91      0.00
    0    4   34      3.98      0.00
    2    4   34     -6.66      0.00
    1    5   34     -1.15      0.00
    3    5   34    -18.06      0.00
    5    5   34     -6.92      0.00
    0    6   34     -2.75      0.00
    2    6   34     10.09      0.00
    4    6   34     -4.37      0.00
    1    7   34      4.65      0.00
    3    7   34      8.57      0.00
    5    7   34      9.64      0.00
    7    7   34     -6.98      0.00
    0    8   34     15.44      0.00
    2    8   34      2.95      0.00
    4    8   34      6.82      0.00
    6    8   34     -2.34      0.00
    1    9   34      9.48      0.00
    3    9   34      0.50      0.00
    5    9   34      7.35      0.00
    7    9   34     16.75      0.00
    9    9   34     10.74      0.00
    0   10   34     -3.98      0.00
    2   10   34     10.23      0.00
    4   10   34     -3.54      0.00
    6   10   34      5.17      0.00
    8   10   34      9.43      0.00
    1   11   34     -5.24      0.00
    3   11   34      7.28      0.00
    5   11   34      3.55      0.00
    7   11   34      6.34      0.00
    9   11   34     -1.54      0.00
   11   11   34     -4.14      0.00
    0   12   34     27.10      0.00
    2   12   34     -3.31      0.00
    4   12   34    -13.04      0.00
    6   12   34     -6.58      0.00
    8   12   34      1.13      0.00
   10   12   34     -5.03      0.00
    1   13   34      1.78      0.00
    3   13   34      0.22      0.00
    5   13   34     -6.25      0.00
    7   13   34      6.81      0.00
    9   13   34     15.11      0.00
   11   13   34     -1.62      0.00
   13   13   34    -11.72      0.00
    0   14   34      1.91      0.00
    2   14   34     -1.58      0.00
    4   14   34      7.32      0.00
    6   14   34      2.83      0.00
    8   14   34     -8.15      0.00
   10   14   34     -1.70      0.00
   12   14   34    -33.89      0.00
    1   15   34     13.85      0.00
    3   15   34      2.17      0.00
    5   15   34      3.39      0.00
    7   15   34     -1.87      0.00
    9   15   34     -1.19      0.00
   11   15   34    -11.68      0.00
   13   15   34    -14.27      0.00
    0   16   34    -20.56      0.00
    2   16   34      1.60      0.00
    4   16   34     10.63      0.00
    6   16   34      0.33      0.00
    8   16   34     19.32      0.00
   10   16   34     -9.11      0.00
   12   16   34     -1.45      0.00
    1   17   34    -11.13      0.00
    3   17   34      1.19      0.00
    5   17   34     -7.02      0.00
    7   17   34     -3.02      0.00
    9   17   34      8.28      0.00
   11   17   34     -3.49      0.00
    0   18   34     -3.92      0.00
    2   18   34     -1.67      0.00
    4   18   34     -7.45      0.00
    6   18   34     -4.22      0.00
    8   18   34     10.26      0.00
   10   18   34    -12.79      0.00
    1   19   34     19.59      0.00
    3   19   34     -5.88      0.00
    5   19   34    -12.68      0.00
    7   19   34     -6.30      0.00
    0   20   34    -24.80      0.00
    2   20   34    -42.19      0.00
    4   20   34     15.77      0.00
    6   20   34    -12.61      0.00
    0    1   35      1.22      0.00
    1    2   35      0.20      0.00
    0    3   35     -7.33      0.00
    2    3   35    -11.12      0.00
    1    4   35      2.61      0.00
    3    4   35     -7.23      0.00
    0    5   35      2.27      0.00
    2    5   35      0.10      0.00
    4    5   35     12.52      0.00
    1    6   35     14.96      0.00
    3    6   35     -5.65      0.00
    5    6   35      6.24      0.00
    0    7   35      2.06      0.00
    2    7   35     20.08      0.00
    4    7   35    -12.93      0.00
    6    7   35     -1.08      0.00
    1    8   35      2.43      0.00
    3    8   35      1.96      0.00
    5    8   35      4.28      0.00
    7    8   35     -8.10      0.00
    0    9   35     -6.82      0.00
    2    9   35      1.23      0.00
    4    9   35     -0.82      0.00
    6    9   35    -16.55      0.00
    8    9   35      0.19      0.00
    1   10   35      2.94      0.00
    3   10   35     -3.54      0.00
    5   10   35     -5.21      0.00
    7   10   35      1.53      0.00
    9   10   35     -5.78      0.00
    0   11   35      5.87      0.00
    2   11   35     -0.35      0.00
    4   11   35     -2.35      0.00
    6   11   35     -3.29      0.00
    8   11   35     -1.51      0.00
   10   11   35    -16.11      0.00
    1   12   35      7.09      0.00
    3   12   35    -16.60      0.00
    5   12   35     -7.73      0.00
    7   12   35     -5.80      0.00
    9   12   35      3.23      0.00
   11   12   35    -15.64      0.00
    0   13   35      6.91      0.00
    2   13   35      6.09      0.00
    4   13   35     -4.75      0.00
    6   13   35     -1.49      0.00
    8   13   35      6.02      0.00
   10   13   35    -12.23      0.00
   12   13   35    -11.21      0.00
    1   14   35     -5.46      0.00
    3   14   35     -4.07      0.00
    5   14   35      3.21      0.00
    7   14   35      2.97      0.00
    9   14   35     -6.34      0.00
   11   14   35     -9.47      0.00
   13   14   35    -21.57      0.00
    0   15   35     -3.19      0.00
    2   15   35     15.64      0.00
    4   15   35     11.85      0.00
    6   15   35      4.89      0.00
    8   15   35     -3.01      0.00
   10   15   35     -2.72      0.00
   12   15   35      6.09      0.00
   14   15   35     -4.44      0.00
    1   16   35     -0.97      0.00
    3   16   35     -1.40      0.00
    5   16   35      1.92      0.00
    7   16   35      2.94      0.00
    9   16   35     -5.01      0.00
   11   16   35    -15.95      0.00
   13   16   35      9.00      0.00
    0   17   35     -2.72      0.00
    2   17   35     12.30      0.00
    4   17   35     14.00      0.00
    6   17   35      5.75      0.00
    8   17   35     15.98      0.00
   10   17   35      1.84      0.00
   12   17   35     -2.12      0.00
    1   18   35      9.74      0.00
    3   18   35      4.84      0.00
    5   18   35      7.54      0.00
    7   18   35     -1.23      0.00
    9   18   35     19.85      0.00
    0   19   35      7.51      0.00
    2   19   35      2.04      0.00
    4   19   35    -14.51      0.00
    6   19   35     -0.85      0.00
    8   19   35     -0.35      0.00
    1   20   35     19.05      0.00
    3   20   35     -3.86      0.00
    5   20   35      3.95      0.00
    0    0   36     12.56      0.00
    0    2   36      0.07      0.00
    2    2   36    -10.54      0.00
    1    3   36     -5.28      0.00
    0    4   36      8.20      0.00
    2    4   36     -3.68      0.00
    4    4   36      0.16      0.00
    1    5   36    -11.40      0.00
    3    5   36    -15.35      0.00
    0    6   36      6.80      0.00
    2    6   36     -7.47      0.00
    4    6   36      1.69      0.00
    6    6   36     -8.77      0.00
    1    7   36     -2.85      0.00
    3    7   36      6.50      0.00
    5    7   36      4.83      0.00
    0    8   36      5.57      0.00
    2    8   36      0.64      0.00
    4    8   36      2.58      0.00
    6    8   36      4.60      0.00
    8    8   36     -8.52      0.00
    1    9   36    -10.35      0.00
    3    9   36     -2.97      0.00
    5    9   36      4.62      0.00
    7    9   36      1.71      0.00
    0   10   36    -12.90      0.00
    2   10   36      3.62      0.00
    4   10   36      7.22      0.00
    6   10   36     -4.56      0.00
    8   10   36     18.75      0.00
   10   10   36      3.78      0.00
    1   11   36      5.78      0.00
    3   11   36      1.59      0.00
    5   11   36     -8.99      0.00
    7   11   36     -7.70      0.00
    9   11   36     -4.76      0.00
    0   12   36      2.89      0.00
    2   12   36    -28.03      0.00
    4   12   36      2.65      0.00
    6   12   36     -1.92      0.00
    8   12   36      3.14      0.00
   10   12   36    -11.00      0.00
   12   12   36    -11.60      0.00
    1   13   36      7.51      0.00
    3   13   36      1.95      0.00
    5   13   36     11.43      0.00
    7   13   36     -5.48      0.00
    9   13   36     -1.65      0.00
   11   13   36    -20.18      0.00
    0   14   36      1.25      0.00
    2   14   36     -0.29      0.00
    4   14   36      2.34      0.00
    6   14   36      8.32      0.00
    8   14   36      3.17      0.00
   10   14   36     -7.18      0.00
   12   14   36    -19.27      0.00
   14   14   36     11.40      0.00
    1   15   36     -1.64      0.00
    3   15   36     11.20      0.00
    5   15   36      1.81      0.00
    7   15   36      1.49      0.00
    9   15   36     -5.15      0.00
   11   15   36     10.04      0.00
   13   15   36    -18.81      0.00
    0   16   36    -11.04      0.00
    2   16   36     -7.61      0.00
    4   16   36      1.06      0.00
    6   16   36     -3.02      0.00
    8   16   36      3.06      0.00
   10   16   36      9.33      0.00
   12   16   36    -16.76      0.00
    1   17   36     -7.01      0.00
    3   17   36      2.65      0.00
    5   17   36      1.62      0.00
    7   17   36     -4.27      0.00
    9   17   36      8.47      0.00
   11   17   36     10.56      0.00
    0   18   36     31.37      0.00
    2   18   36     24.19      0.00
    4   18   36     21.38      0.00
    6   18   36      1.74      0.00
    8   18   36     17.29      0.00
   10   18   36      5.52      0.00
    1   19   36     -0.08      0.00
    3   19   36    -16.60      0.00
    5   19   36     -6.70      0.00
    7   19   36     -5.20      0.00
    0   20   36     10.32      0.00
    2   20   36     14.26      0.00
    4   20   36     10.49      0.00
    0    1   37      1.31      0.00
    1    2   37     -8.49      0.00
    0    3   37     20.07      0.00
    2    3   37     -4.86      0.00
    1    4   37    -10.85      0.00
    3    4   37     -4.71      0.00
    0    5   37      7.40      0.00
    2    5   37      0.73      0.00
    4    5   37     -6.99      0.00
    1    6   37      3.67      0.00
    3    6   37      0.36      0.00
    5    6   37      1.94      0.00
    0    7   37     -5.89      0.00
    2    7   37      2.62      0.00
    4    7   37      5.22      0.00
    6    7   37      1.68      0.00
    1    8   37     -4.18      0.00
    3    8   37      8.09      0.00
    5    8   37     -3.81      0.00
    7    8   37      0.71      0.00
    0    9   37     -5.40      0.00
    2    9   37     -8.50      0.00
    4    9   37      0.81      0.00
    6    9   37      3.06      0.00
    8    9   37      9.06      0.00
    1   10   37     -0.65      0.00
    3   10   37     -3.06      0.00
    5   10   37      1.08      0.00
    7   10   37      0.29      0.00
    9   10   37     -8.07      0.00
    0   11   37      8.40      0.00
    2   11   37     -3.57      0.00
    4   11   37      7.04      0.00
    6   11   37      9.94      0.00
    8   11   37      9.58      0.00
   10   11   37      7.13      0.00
    1   12   37      5.40      0.00
    3   12   37     -6.04      0.00
    5   12   37    -15.04      0.00
    7   12   37      6.16      0.00
    9   12   37     15.01      0.00
   11   12   37      0.75      0.00
    0   13   37      4.74      0.00
    2   13   37     -7.69      0.00
    4   13   37    -12.85      0.00
    6   13   37      7.38      0.00
    8   13   37      2.08      0.00
   10   13   37      7.69      0.00
   12   13   37     -6.94      0.00
    1   14   37    -12.18      0.00
    3   14   37      2.29      0.00
    5   14   37     21.14      0.00
    7   14   37      9.17      0.00
    9   14   37    -11.89      0.00
   11   14   37    -20.48      0.00
   13   14   37    -16.09      0.00
    0   15   37     -1.39      0.00
    2   15   37      6.12      0.00
    4   15   37      6.66      0.00
    6   15   37     -6.33      0.00
    8   15   37     17.65      0.00
   10   15   37      4.79      0.00
   12   15   37      0.30      0.00
    1   16   37      1.57      0.00
    3   16   37     16.60      0.00
    5   16   37      2.73      0.00
    7   16   37     10.59      0.00
    9   16   37      8.04      0.00
   11   16   37    -11.00      0.00
    0   17   37      5.75      0.00
    2   17   37    -10.73      0.00
    4   17   37     -9.60      0.00
    6   17   37     -6.28      0.00
    8   17   37      4.60      0.00
   10   17   37     18.49      0.00
    1   18   37      5.48      0.00
    3   18   37    -13.11      0.00
    5   18   37      4.55      0.00
    7   18   37     -6.07      0.00
    9   18   37      4.23      0.00
    0   19   37    -17.56      0.00
    2   19   37      0.13      0.00
    4   19   37     14.96      0.00
    6   19   37      8.70      0.00
    1   20   37     -4.87      0.00
    3   20   37     15.38      0.00
    1    1   38      6.30      0.00
    0    2   38     -1.45      0.00
    1    3   38      2.24      0.00
    3    3   38    -20.97      0.00
    0    4   38      2.17      0.00
    2    4   38      2.71      0.00
    1    5   38      5.33      0.00
    3    5   38     -6.12      0.00
    5    5   38     11.02      0.00
    0    6   38      0.25      0.00
    2    6   38     -1.07      0.00
    4    6   38     -6.31      0.00
    1    7   38     -1.49      0.00
    3    7   38      5.75      0.00
    5    7   38    -11.11      0.00
    7    7   38      4.39      0.00
    0    8   38     -5.98      0.00
    2    8   38     -0.70      0.00
    4    8   38      2.97      0.00
    6    8   38     -2.57      0.00
    1    9   38      1.69      0.00
    3    9   38      8.65      0.00
    5    9   38     -7.70      0.00
    7    9   38    -13.92      0.00
    9    9   38     -5.22      0.00
    0   10   38      2.90      0.00
    2   10   38     -4.96      0.00
    4   10   38     -4.84      0.00
    6   10   38    -24.30      0.00
    8   10   38      0.24      0.00
    1   11   38     -0.50      0.00
    3   11   38     -7.23      0.00
    5   11   38      0.75      0.00
    7   11   38     -6.85      0.00
    9   11   38     -2.18      0.00
   11   11   38    -17.96      0.00
    0   12   38     23.67      0.00
    2   12   38     -6.01      0.00
    4   12   38    -12.96      0.00
    6   12   38      3.30      0.00
    8   12   38     12.40      0.00
   10   12   38     -4.63      0.00
    1   13   38    -11.22      0.00
    3   13   38     -9.35      0.00
    5   13   38     -8.22      0.00
    7   13   38     -3.92      0.00
    9   13   38     -6.28      0.00
   11   13   38      7.09      0.00
   13   13   38     -3.57      0.00
    0   14   38    -12.97      0.00
    2   14   38     -8.80      0.00
    4   14   38     -1.87      0.00
    6   14   38     -7.74      0.00
    8   14   38    -26.01      0.00
   10   14   38     -4.60      0.00
   12   14   38    -13.63      0.00
    1   15   38    -13.92      0.00
    3   15   38      0.72      0.00
    5   15   38      5.84      0.00
    7   15   38     17.20      0.00
    9   15   38     -8.68      0.00
   11   15   38     -5.24      0.00
   13   15   38     14.14      0.00
    0   16   38    -15.59      0.00
    2   16   38     -8.41      0.00
    4   16   38      0.62      0.00
    6   16   38      0.33      0.00
    8   16   38      8.27      0.00
   10   16   38    -14.71      0.00
   12   16   38    -20.59      0.00
    1   17   38     -8.43      0.00
    3   17   38      6.65      0.00
    5   17   38      7.47      0.00
    7   17   38     12.00      0.00
    9   17   38     27.15      0.00
   11   17   38     26.10      0.00
    0   18   38      9.33      0.00
    2   18   38     -0.82      0.00
    4   18   38      7.19      0.00
    6   18   38     -9.93      0.00
    8   18   38     16.16      0.00
    1   19   38      8.54      0.00
    3   19   38     10.69      0.00
    5   19   38    -13.78      0.00
    7   19   38      3.06      0.00
    0   20   38     -8.48      0.00
    2   20   38      1.46      0.00
    0    1   39      5.48      0.00
    1    2   39     -2.01      0.00
    0    3   39     -0.04      0.00
    2    3   39     -0.81      0.00
    1    4   39      0.11      0.00
    3    4   39      2.57      0.00
    0    5   39      2.67      0.00
    2    5   39     -2.58      0.00
    4    5   39     -5.61      0.00
    1    6   39     19.54      0.00
    3    6   39    -10.52      0.00
    5    6   39     -0.44      0.00
    0    7   39     -6.31      0.00
    2    7   39     -3.32      0.00
    4    7   39      3.94      0.00
    6    7   39     -0.88      0.00
    1    8   39      1.23      0.00
    3    8   39      4.03      0.00
    5    8   39      0.94      0.00
    7    8   39      0.83      0.00
    0    9   39      8.09      0.00
    2    9   39     11.29      0.00
    4    9   39    -16.59      0.00
    6    9   39     -3.59      0.00
    8    9   39      4.96      0.00
    1   10   39     13.80      0.00
    3   10   39     10.40      0.00
    5   10   39     18.71      0.00
    7   10   39      5.73      0.00
    9   10   39      4.11      0.00
    0   11   39      1.95      0.00
    2   11   39     -0.86      0.00
    4   11   39      2.15      0.00
    6   11   39    -10.16      0.00
    8   11   39      2.24      0.00
   10   11   39     -6.08      0.00
    1   12   39    -14.36      0.00
    3   12   39    -10.67      0.00
    5   12   39     -4.50      0.00
    7   12   39    -22.34      0.00
    9   12   39    -20.98      0.00
   11   12   39     -8.35      0.00
    0   13   39      0.52      0.00
    2   13   39    -10.54      0.00
    4   13   39     -4.13      0.00
    6   13   39     15.73      0.00
    8   13   39     -8.88      0.00
   10   13   39    -19.38      0.00
   12   13   39     -2.72      0.00
    1   14   39      1.92      0.00
    3   14   39     -7.86      0.00
    5   14   39     -9.26      0.00
    7   14   39     -4.57      0.00
    9   14   39     -5.26      0.00
   11   14   39     -9.62      0.00
   13   14   39    -11.22      0.00
    0   15   39      3.61      0.00
    2   15   39      5.98      0.00
    4   15   39      0.24      0.00
    6   15   39     -4.07      0.00
    8   15   39      7.25      0.00
   10   15   39     -4.73      0.00
   12   15   39      0.37      0.00
    1   16   39      5.20      0.00
    3   16   39     -2.32      0.00
    5   16   39     10.49      0.00
    7   16   39     -9.15      0.00
    9   16   39     -2.16      0.00
   11   16   39      9.24      0.00
    0   17   39      3.44      0.00
    2   17   39     18.34      0.00
    4   17   39     27.51      0.00
    6   17   39     -8.05      0.00
    8   17   39     -1.01      0.00
   10   17   39     -4.23      0.00
    1   18   39     20.36      0.00
    3   18   39    -12.08      0.00
    5   18   39     22.38      0.00
    7   18   39     -8.15      0.00
    0   19   39    -10.61      0.00
    2   19   39     10.30      0.00
    4   19   39    -32.12      0.00
    6   19   39    -17.24      0.00
    1   20   39     -3.69      0.00
    0    0   40      7.99      0.00
    0    2   40     -1.45      0.00
    2    2   40      7.73      0.00
    1    3   40      5.80      0.00
    0    4   40     -0.40      0.00
    2    4   40     -4.71      0.00
    4    4   40      5.59      0.00
    1    5   40      3.31      0.00
    3    5   40     13.60      0.00
    0    6   40      6.49      0.00
    2    6   40     -3.81      0.00
    4    6   40     -2.17      0.00
    6    6   40    -10.18      0.00
    1    7   40      2.59      0.00
    3    7   40     -1.43      0.00
    5    7   40      0.94      0.00
    0    8   40     13.02      0.00
    2    8   40     -4.64      0.00
    4    8   40     17.74      0.00
    6    8   40    -11.80      0.00
    8    8   40    -11.45      0.00
    1    9   40     -0.40      0.00
    3    9   40     -6.32      0.00
    5    9   40     -5.47      0.00
    7    9   40     -7.17      0.00
    0   10   40      5.59      0.00
    2   10   40     -8.14      0.00
    4   10   40     -4.50      0.00
    6   10   40      2.56      0.00
    8   10   40      5.88      0.00
   10   10   40    -17.41      0.00
    1   11   40      0.05      0.00
    3   11   40     -6.78      0.00
    5   11   40      0.99      0.00
    7   11   40      4.48      0.00
    9   11   40     14.41      0.00
    0   12   40     12.33      0.00
    2   12   40     10.54      0.00
    4   12   40     -8.04      0.00
    6   12   40      3.67      0.00
    8   12   40    -10.14      0.00
   10   12   40      2.83      0.00
   12   12   40     -3.01      0.00
    1   13   40     -9.83      0.00
    3   13   40    -15.87      0.00
    5   13   40     -6.83      0.00
    7   13   40    -14.91      0.00
    9   13   40     -8.70      0.00
   11   13   40    -13.29      0.00
    0   14   40     26.05      0.00
    2   14   40      5.01      0.00
    4   14   40     28.55      0.00
    6   14   40     -0.57      0.00
    8   14   40     11.10      0.00
   10   14   40    -17.35      0.00
   12   14   40    -13.38      0.00
   14   14   40     -5.08      0.00
    1   15   40     16.28      0.00
    3   15   40     -6.03      0.00
    5   15   40     -0.05      0.00
    7   15   40      5.06      0.00
    9   15   40      6.85      0.00
   11   15   40      0.91      0.00
   13   15   40     -2.17      0.00
    0   16   40      3.32      0.00
    2   16   40      5.02      0.00
    4   16   40      6.67      0.00
    6   16   40      8.05      0.00
    8   16   40    -20.51      0.00
   10   16   40    -11.26      0.00
    1   17   40     -5.42      0.00
    3   17   40      3.86      0.00
    5   17   40     -2.41      0.00
    7   17   40     -2.15      0.00
    9   17   40     -9.88      0.00
    0   18   40     38.00      0.00
    2   18   40     36.24      0.00
    4   18   40     18.11      0.00
    6   18   40    -17.49      0.00
    8   18   40     -6.19      0.00
    1   19   40      8.47      0.00
    3   19   40     12.03      0.00
    5   19   40     11.44      0.00
    0    1   41     -3.28      0.00
    1    2   41      6.56      0.00
    0    3   41      7.88      0.00
    2    3   41     -7.53      0.00
    1    4   41     -4.25      0.00
    3    4   41      3.56      0.00
    0    5   41     -6.03      0.00
    2    5   41     -0.84      0.00
    4    5   41     -9.35      0.00
    1    6   41     -4.30      0.00
    3    6   41     -2.30      0.00
    5    6   41     -3.63      0.00
    0    7   41     -4.07      0.00
    2    7   41     -5.39      0.00
    4    7   41     20.67      0.00
    6    7   41     -2.94      0.00
    1    8   41     15.39      0.00
    3    8   41      5.03      0.00
    5    8   41     -2.68      0.00
    7    8   41    -13.91      0.00
    0    9   41      3.00      0.00
    2    9   41      2.82      0.00
    4    9   41     10.91      0.00
    6    9   41    -15.88      0.00
    8    9   41     -7.58      0.00
    1   10   41    -14.85      0.00
    3   10   41      3.93      0.00
    5   10   41     -1.52      0.00
    7   10   41      8.64      0.00
    9   10   41      6.18      0.00
    0   11   41      7.95      0.00
    2   11   41      4.23      0.00
    4   11   41      5.95      0.00
    6   11   41     -1.39      0.00
    8   11   41     -1.74      0.00
   10   11   41     -2.98      0.00
    1   12   41      3.92      0.00
    3   12   41    -13.15      0.00
    5   12   41     -0.37      0.00
    7   12   41     -4.52      0.00
    9   12   41     -2.64      0.00
   11   12   41     13.08      0.00
    0   13   41     -2.44      0.00
    2   13   41    -18.16      0.00
    4   13   41    -15.55      0.00
    6   13   41      1.32      0.00
    8   13   41    -11.87      0.00
   10   13   41     14.27      0.00
   12   13   41      2.95      0.00
    1   14   41      8.35      0.00
    3   14   41      8.33      0.00
    5   14   41     -5.01      0.00
    7   14   41      1.84      0.00
    9   14   41    -19.47      0.00
   11   14   41    -22.59      0.00
   13   14   41    -10.78      0.00
    0   15   41    -13.28      0.00
    2   15   41    -14.02      0.00
    4   15   41     -4.97      0.00
    6   15   41      2.03      0.00
    8   15   41      3.34      0.00
   10   15   41     -1.70      0.00
   12   15   41     11.85      0.00
    1   16   41     -8.20      0.00
    3   16   41      6.22      0.00
    5   16   41     -2.15      0.00
    7   16   41     -7.88      0.00
    9   16   41      5.63      0.00
   11   16   41     -2.21      0.00
    0   17   41     -9.78      0.00
    2   17   41     -6.69      0.00
    4   17   41     -0.96      0.00
    6   17   41     14.53      0.00
    8   17   41      7.32      0.00
    1   18   41     16.02      0.00
    3   18   41     14.26      0.00
    5   18   41      5.72      0.00
    7   18   41      1.86      0.00
    0   19   41    -20.43      0.00
    2   19   41     14.05      0.00
    4   19   41     -5.17      0.00
    1    1   42     -0.60      0.00
    0    2   42    -13.34      0.00
    1    3   42      4.71      0.00
    3    3   42     -8.55      0.00
    0    4   42      3.27      0.00
    2    4   42    -14.70      0.00
    1    5   42      6.26      0.00
    3    5   42     -1.83      0.00
    5    5   42     -0.41      0.00
    0    6   42     15.23      0.00
    2    6   42      5.53      0.00
    4    6   42     -7.06      0.00
    1    7   42      3.15      0.00
    3    7   42      7.66      0.00
    5    7   42      7.01      0.00
    7    7   42     -6.36      0.00
    0    8   42      2.68      0.00
    2    8   42      9.65      0.00
    4    8   42      5.18      0.00
    6    8   42     12.35      0.00
    1    9   42      3.24      0.00
    3    9   42      2.73      0.00
    5    9   42      3.63      0.00
    7    9   42     -5.97      0.00
    9    9   42      3.26      0.00
    0   10   42    -15.33      0.00
    2   10   42    -12.19      0.00
    4   10   42     32.96      0.00
    6   10   42     -1.49      0.00
    8   10   42     10.82      0.00
    1   11   42     -0.73      0.00
    3   11   42      9.28      0.00
    5   11   42     -4.47      0.00
    7   11   42      3.83      0.00
    9   11   42     -0.89      0.00
   11   11   42     12.29      0.00
    0   12   42    -18.00      0.00
    2   12   42    -24.48      0.00
    4   12   42     -4.10      0.00
    6   12   42     -4.63      0.00
    8   12   42     -7.43      0.00
   10   12   42      7.28      0.00
    1   13   42     11.59      0.00
    3   13   42    -12.12      0.00
    5   13   42      9.66      0.00
    7   13   42      5.10      0.00
    9   13   42     -1.70      0.00
   11   13   42    -16.70      0.00
   13   13   42     25.95      0.00
    0   14   42     10.01      0.00
    2   14   42    -18.63      0.00
    4   14   42    -10.07      0.00
    6   14   42      1.11      0.00
    8   14   42     12.64      0.00
   10   14   42    -12.02      0.00
   12   14   42     -0.56      0.00
    1   15   42     -6.13      0.00
    3   15   42     15.14      0.00
    5   15   42      6.60      0.00
    7   15   42     16.26      0.00
    9   15   42    -10.10      0.00
   11   15   42     23.61      0.00
    0   16   42    -20.39      0.00
    2   16   42     -2.12      0.00
    4   16   42     13.51      0.00
    6   16   42     -1.11      0.00
    8   16   42     -5.47      0.00
   10   16   42     -0.82      0.00
    1   17   42     17.55      0.00
    3   17   42     14.31      0.00
    5   17   42      4.94      0.00
    7   17   42      2.03      0.00
    9   17   42      7.77      0.00
    0   18   42     -7.47      0.00
    2   18   42    -10.60      0.00
    4   18   42    -28.28      0.00
    6   18   42      4.02      0.00
    1   19   42    -17.93      0.00
    3   19   42      7.34      0.00
    0    1   43     -7.84      0.00
    1    2   43      0.70      0.00
    0    3   43      8.67      0.00
    2    3   43     -6.48      0.00
    1    4   43     -0.53      0.00
    3    4   43     -0.67      0.00
    0    5   43     -6.23      0.00
    2    5   43     -1.72      0.00
    4    5   43     11.47      0.00
    1    6   43      0.81      0.00
    3    6   43    -12.65      0.00
    5    6   43      1.11      0.00
    0    7   43      4.43      0.00
    2    7   43      0.24      0.00
    4    7   43      7.64      0.00
    6    7   43    -11.81      0.00
    1    8   43      2.69      0.00
    3    8   43    -14.99      0.00
    5    8   43     -2.15      0.00
    7    8   43     -0.11      0.00
    0    9   43     -0.74      0.00
    2    9   43     -3.56      0.00
    4    9   43     -2.78      0.00
    6    9   43     18.69      0.00
    8    9   43      6.58      0.00
    1   10   43    -13.94      0.00
    3   10   43     -4.54      0.00
    5   10   43      1.56      0.00
    7   10   43      0.41      0.00
    9   10   43     -0.80      0.00
    0   11   43      6.08      0.00
    2   11   43     16.19      0.00
    4   11   43      8.33      0.00
    6   11   43     -2.75      0.00
    8   11   43     -2.84      0.00
   10   11   43      9.44      0.00
    1   12   43     11.38      0.00
    3   12   43     -8.78      0.00
    5   12   43     12.00      0.00
    7   12   43      2.90      0.00
    9   12   43     19.94      0.00
   11   12   43     15.22      0.00
    0   13   43      7.68      0.00
    2   13   43     -8.95      0.00
    4   13   43     16.56      0.00
    6   13   43      5.32      0.00
    8   13   43     11.79      0.00
   10   13   43     -3.09      0.00
   12   13   43     15.62      0.00
    1   14   43     15.78      0.00
    3   14   43     11.69      0.00
    5   14   43     15.75      0.00
    7   14   43     19.56      0.00
    9   14   43     -2.12      0.00
   11   14   43      7.73      0.00
   13   14   43      9.28      0.00
    0   15   43      5.24      0.00
    2   15   43      3.07      0.00
    4   15   43      0.47      0.00
    6   15   43      4.96      0.00
    8   15   43     -6.23      0.00
   10   15   43     -9.76      0.00
   12   15   43      9.69      0.00
    1   16   43     -5.62      0.00
    3   16   43     -2.37      0.00
    5   16   43     10.66      0.00
    7   16   43      5.58      0.00
    9   16   43     -4.03      0.00
    0   17   43      0.32      0.00
    2   17   43     -8.51      0.00
    4   17   43     -4.67      0.00
    6   17   43    -19.42      0.00
    8   17   43     11.92      0.00
    1   18   43     14.67      0.00
    3   18   43      1.68      0.00
    5   18   43      8.69      0.00
    0   19   43      4.65      0.00
    2   19   43     -1.27      0.00
    0    0   44      9.29      0.00
    0    2   44      7.12      0.00
    2    2   44      7.89      0.00
    1    3   44    -10.81      0.00
    0    4   44     -3.26      0.00
    2    4   44     -3.91      0.00
    4    4   44     -6.78      0.00
    1    5   44      0.26      0.00
    3    5   44     -5.76      0.00
    0    6   44      5.16      0.00
    2    6   44      2.68      0.00
    4    6   44      9.23      0.00
    6    6   44      0.99      0.00
    1    7   44     -7.25      0.00
    3    7   44     12.97      0.00
    5    7   44      4.66      0.00
    0    8   44      3.81      0.00
    2    8   44     -3.69      0.00
    4    8   44      0.57      0.00
    6    8   44     -9.90      0.00
    8    8   44     12.13      0.00
    1    9   44     -0.68      0.00
    3    9   44      3.37      0.00
    5    9   44     20.51      0.00
    7    9   44      3.85      0.00
    0   10   44     20.16      0.00
    2   10   44      9.17      0.00
    4   10   44      7.43      0.00
    6   10   44     15.69      0.00
    8   10   44     12.07      0.00
   10   10   44      8.21      0.00
    1   11   44     18.63      0.00
    3   11   44     11.89      0.00
    5   11   44      1.27      0.00
    7   11   44      8.62      0.00
    9   11   44     24.71      0.00
    0   12   44      9.96      0.00
    2   12   44      3.58      0.00
    4   12   44      0.52      0.00
    6   12   44    -15.17      0.00
    8   12   44    -11.70      0.00
   10   12   44      3.47      0.00
   12   12   44      9.65      0.00
    1   13   44     -4.24      0.00
    3   13   44    -20.24      0.00
    5   13   44     23.48      0.00
    7   13   44      1.94      0.00
    9   13   44      6.84      0.00
   11   13   44      2.98      0.00
    0   14   44     12.49      0.00
    2   14   44      4.72      0.00
    4   14   44      0.36      0.00
    6   14   44     11.79      0.00
    8   14   44     -2.52      0.00
   10   14   44      2.61      0.00
   12   14   44      2.11      0.00
    1   15   44     -1.69      0.00
    3   15   44      6.74      0.00
    5   15   44    -19.40      0.00
    7   15   44    -10.76      0.00
    9   15   44      7.36      0.00
   11   15   44     19.15      0.00
    0   16   44     10.19      0.00
    2   16   44     13.96      0.00
    4   16   44     -1.22      0.00
    6   16   44    -10.26      0.00
    8   16   44      6.26      0.00
   10   16   44      7.63      0.00
    1   17   44     27.93      0.00
    3   17   44    -13.70      0.00
    5   17   44      6.92      0.00
    7   17   44      2.26      0.00
    0   18   44     -5.39      0.00
    2   18   44     12.86      0.00
    4   18   44     10.19      0.00
    6   18   44     -9.16      0.00
    1   19   44      3.60      0.00
    0    1   45      6.19      0.00
    1    2   45     -3.78      0.00
    0    3   45     12.79      0.00
    2    3   45     -1.62      0.00
    1    4   45     -4.30      0.00
    3    4   45    -15.31      0.00
    0    5   45      4.39      0.00
    2    5   45     10.08      0.00
    4    5   45     10.13      0.00
    1    6   45     -1.64      0.00
    3    6   45      6.64      0.00
    5    6   45     -5.05      0.00
    0    7   45      3.10      0.00
    2    7   45      3.32      0.00
    4    7   45      3.83      0.00
    6    7   45      6.66      0.00
    1    8   45      4.80      0.00
    3    8   45      2.30      0.00
    5    8   45     28.92      0.00
    7    8   45     17.65      0.00
    0    9   45     -1.86      0.00
    2    9   45    -21.06      0.00
    4    9   45     28.73      0.00
    6    9   45    -20.49      0.00
    8    9   45     -6.49      0.00
    1   10   45     -0.12      0.00
    3   10   45     21.95      0.00
    5   10   45    -10.54      0.00
    7   10   45     -8.12      0.00
    9   10   45     10.29      0.00
    0   11   45     -1.69      0.00
    2   11   45     -1.05      0.00
    4   11   45    -18.38      0.00
    6   11   45      3.45      0.00
    8   11   45     20.64      0.00
   10   11   45     17.67      0.00
    1   12   45     -0.10      0.00
    3   12   45    -10.87      0.00
    5   12   45     -4.71      0.00
    7   12   45     -4.05      0.00
    9   12   45      6.36      0.00
   11   12   45      2.29      0.00
    0   13   45      3.36      0.00
    2   13   45     -0.64      0.00
    4   13   45     -2.58      0.00
    6   13   45      2.40      0.00
    8   13   45    -18.56      0.00
   10   13   45     -7.11      0.00
   12   13   45     -1.62      0.00
    1   14   45      0.90      0.00
    3   14   45      8.14      0.00
    5   14   45    -14.48      0.00
    7   14   45      4.60      0.00
    9   14   45    -18.99      0.00
   11   14   45      0.69      0.00
    0   15   45      0.90      0.00
    2   15   45     -1.85      0.00
    4   15   45      3.79      0.00
    6   15   45     10.39      0.00
    8   15   45      5.78      0.00
   10   15   45     11.29      0.00
    1   16   45    -12.87      0.00
    3   16   45    -23.79      0.00
    5   16   45    -13.60      0.00
    7   16   45     -5.89      0.00
    9   16   45     -0.09      0.00
    0   17   45    -16.93      0.00
    2   17   45     12.94      0.00
    4   17   45     -6.53      0.00
    6   17   45     -9.47      0.00
    8   17   45     -0.55      0.00
    1   18   45     20.76      0.00
    3   18   45      3.48      0.00
    5   18   45     -0.67      0.00
    1    1   46    -11.06      0.00
    0    2   46     11.47      0.00
    1    3   46      0.40      0.00
    3    3   46      3.12      0.00
    0    4   46    -12.53      0.00
    2    4   46    -13.62      0.00
    1    5   46     -6.89      0.00
    3    5   46    -12.80      0.00
    5    5   46      4.70      0.00
    0    6   46      2.68      0.00
    2    6   46    -12.51      0.00
    4    6   46     -4.19      0.00
    1    7   46    -22.71      0.00
    3    7   46     -0.94      0.00
    5    7   46    -10.84      0.00
    7    7   46     -8.04      0.00
    0    8   46     -3.71      0.00
    2    8   46      0.54      0.00
    4    8   46     -0.51      0.00
    6    8   46      5.43      0.00
    1    9   46     -4.83      0.00
    3    9   46     -4.70      0.00
    5    9   46     10.84      0.00
    7    9   46     -8.33      0.00
    9    9   46     -0.40      0.00
    0   10   46     19.57      0.00
    2   10   46     -2.36      0.00
    4   10   46     -3.28      0.00
    6   10   46    -15.25      0.00
    8   10   46     -6.25      0.00
    1   11   46      5.72      0.00
    3   11   46     12.72      0.00
    5   11   46      3.52      0.00
    7   11   46     -7.04      0.00
    9   11   46     10.57      0.00
   11   11   46     -6.95      0.00
    0   12   46      1.41      0.00
    2   12   46     -3.51      0.00
    4   12   46      9.74      0.00
    6   12   46    -12.41      0.00
    8   12   46      8.27      0.00
   10   12   46      5.21      0.00
    1   13   46     -6.50      0.00
    3   13   46     -1.96      0.00
    5   13   46     18.01      0.00
    7   13   46     17.29      0.00
    9   13   46     -1.10      0.00
   11   13   46     21.31      0.00
   13   13   46     10.05      0.00
    0   14   46     29.34      0.00
    2   14   46     -1.93      0.00
    4   14   46      8.03      0.00
    6   14   46     -2.01      0.00
    8   14   46      2.51      0.00
   10   14   46      0.46      0.00
   12   14   46     -9.78      0.00
    1   15   46     -3.17      0.00
    3   15   46    -10.07      0.00
    5   15   46     -7.69      0.00
    7   15   46     -5.51      0.00
    9   15   46    -16.12      0.00
    0   16   46      0.37      0.00
    2   16   46     -7.95      0.00
    4   16   46    -21.08      0.00
    6   16   46     -3.33      0.00
    8   16   46      9.45      0.00
    1   17   46     -5.27      0.00
    3   17   46     -4.87      0.00
    5   17   46    -11.42      0.00
    7   17   46      1.54      0.00
    0   18   46    -17.24      0.00
    2   18   46      5.69      0.00
    4   18   46      4.56      0.00
    0    1   47     -8.25      0.00
    1    2   47     -5.56      0.00
    0    3   47     -7.31      0.00
    2    3   47      0.75      0.00
    1    4   47     -1.63      0.00
    3    4   47     -6.73      0.00
    0    5   47    -21.15      0.00
    2    5   47     -9.07      0.00
    4    5   47     -3.34      0.00
    1    6   47     -0.98      0.00
    3    6   47      0.58      0.00
    5    6   47     -1.95      0.00
    0    7   47     13.36      0.00
    2    7   47    -18.35      0.00
    4    7   47      1.66      0.00
    6    7   47     -7.47      0.00
    1    8   47      8.69      0.00
    3    8   47     -3.66      0.00
    5    8   47     11.68      0.00
    7    8   47      9.36      0.00
    0    9   47      3.39      0.00
    2    9   47      7.33      0.00
    4    9   47     10.20      0.00
    6    9   47     -9.57      0.00
    8    9   47      7.60      0.00
    1   10   47     12.12      0.00
    3   10   47     12.17      0.00
    5   10   47     -8.90      0.00
    7   10   47     -5.11      0.00
    9   10   47     -1.11      0.00
    0   11   47     -4.05      0.00
    2   11   47      1.76      0.00
    4   11   47     -4.12      0.00
    6   11   47      7.65      0.00
    8   11   47      1.67      0.00
   10   11   47      7.93      0.00
    1   12   47     -4.80      0.00
    3   12   47     -6.51      0.00
    5   12   47     13.86      0.00
    7   12   47    -25.32      0.00
    9   12   47    -23.37      0.00
   11   12   47     -0.27      0.00
    0   13   47      5.89      0.00
    2   13   47     -8.72      0.00
    4   13   47      6.38      0.00
    6   13   47     17.17      0.00
    8   13   47     -9.17      0.00
   10   13   47     -8.19      0.00
   12   13   47      8.01      0.00
    1   14   47     10.32      0.00
    3   14   47      6.73      0.00
    5   14   47    -19.18      0.00
    7   14   47      2.05      0.00
    9   14   47     11.38      0.00
   11   14   47      7.25      0.00
    0   15   47     20.69      0.00
    2   15   47     -7.40      0.00
    4   15   47     -2.51      0.00
    6   15   47    -16.63      0.00
    8   15   47      7.16      0.00
   10   15   47     -3.60      0.00
    1   16   47      8.10      0.00
    3   16   47     -8.46      0.00
    5   16   47      3.50      0.00
    7   16   47     -3.29      0.00
    0   17   47     29.64      0.00
    2   17   47      9.41      0.00
    4   17   47      8.97      0.00
    6   17   47     10.83      0.00
    1   18   47    -10.53      0.00
    3   18   47     -9.47      0.00
    0    0   48     -1.09      0.00
    0    2   48      0.90      0.00
    2    2   48     -7.51      0.00
    1    3   48      6.84      0.00
    0    4   48      4.32      0.00
    2    4   48     -4.35      0.00
    4    4   48    -10.00      0.00
    1    5   48      2.06      0.00
    3    5   48     13.43      0.00
    0    6   48     -6.51      0.00
    2    6   48      3.08      0.00
    4    6   48      0.52      0.00
    6    6   48     11.73      0.00
    1    7   48     14.12      0.00
    3    7   48      1.37      0.00
    5    7   48     12.66      0.00
    0    8   48     11.31      0.00
    2    8   48     -6.33      0.00
    4    8   48     19.31      0.00
    6    8   48      5.70      0.00
    8    8   48     22.88      0.00
    1    9   48     -9.53      0.00
    3    9   48      2.08      0.00
    5    9   48    -14.70      0.00
    7    9   48    -13.10      0.00
    0   10   48     -0.52      0.00
    2   10   48      0.61      0.00
    4   10   48     -6.46      0.00
    6   10   48    -11.34      0.00
    8   10   48     10.27      0.00
   10   10   48      1.97      0.00
    1   11   48    -17.76      0.00
    3   11   48    -10.52      0.00
    5   11   48     -7.45      0.00
    7   11   48    -14.32      0.00
    9   11   48    -10.28      0.00
    0   12   48      6.17      0.00
    2   12   48     -1.52      0.00
    4   12   48    -20.11      0.00
    6   12   48      0.64      0.00
    8   12   48    -21.46      0.00
   10   12   48      7.86      0.00
   12   12   48     -1.20      0.00
    1   13   48      5.36      0.00
    3   13   48     -6.59      0.00
    5   13   48      8.26      0.00
    7   13   48     -4.53      0.00
    9   13   48     -0.93      0.00
   11   13   48    -13.78      0.00
    0   14   48    -10.98      0.00
    2   14   48     -7.85      0.00
    4   14   48      1.28      0.00
    6   14   48     -9.08      0.00
    8   14   48     13.10      0.00
   10   14   48     -9.33      0.00
    1   15   48      0.05      0.00
    3   15   48    -10.21      0.00
    5   15   48      1.03      0.00
    7   15   48      5.77      0.00
    9   15   48      0.55      0.00
    0   16   48    -13.73      0.00
    2   16   48      8.53      0.00
    4   16   48    -11.10      0.00
    6   16   48     -5.46      0.00
    8   16   48     15.67      0.00
    1   17   48      5.46      0.00
    3   17   48      4.36      0.00
    5   17   48      4.83      0.00
    0   18   48     11.04      0.00
    0    1   49     -8.00      0.00
    1    2   49      3.68      0.00
    0    3   49      5.38      0.00
    2    3   49     -2.56      0.00
    1    4   49    -16.50      0.00
    3    4   49     -9.15      0.00
    0    5   49      3.81      0.00
    2    5   49     -5.23      0.00
    4    5   49     -6.99      0.00
    1    6   49     -4.86      0.00
    3    6   49     -0.98      0.00
    5    6   49     19.15      0.00
    0    7   49      1.69      0.00
    2    7   49      6.32      0.00
    4    7   49     -8.97      0.00
    6    7   49     -3.03      0.00
    1    8   49     -2.84      0.00
    3    8   49      5.08      0.00
    5    8   49     -7.70      0.00
    7    8   49      6.86      0.00
    0    9   49      5.98      0.00
    2    9   49     -3.57      0.00
    4    9   49     -7.73      0.00
    6    9   49    -25.26      0.00
    8    9   49      3.98      0.00
    1   10   49      7.26      0.00
    3   10   49     10.18      0.00
    5   10   49      2.46      0.00
    7   10   49      1.83      0.00
    9   10   49      9.00      0.00
    0   11   49     -5.40      0.00
    2   11   49      3.16      0.00
    4   11   49      1.90      0.00
    6   11   49    -12.84      0.00
    8   11   49      1.25      0.00
   10   11   49      0.07      0.00
    1   12   49      1.82      0.00
    3   12   49      3.43      0.00
    5   12   49     -9.20      0.00
    7   12   49     -9.95      0.00
    9   12   49    -15.28      0.00
   11   12   49     17.01      0.00
    0   13   49     22.48      0.00
    2   13   49     -6.70      0.00
    4   13   49     -2.32      0.00
    6   13   49      7.34      0.00
    8   13   49      4.98      0.00
   10   13   49     13.74      0.00
   12   13   49    -11.40      0.00
    1   14   49     -4.67      0.00
    3   14   49    -14.66      0.00
    5   14   49     -5.37      0.00
    7   14   49     -2.76      0.00
    9   14   49      6.41      0.00
    0   15   49     -6.91      0.00
    2   15   49     12.78      0.00
    4   15   49     -7.94      0.00
    6   15   49      3.56      0.00
    8   15   49     -9.37      0.00
    1   16   49    -11.90      0.00
    3   16   49      6.25      0.00
    5   16   49    -13.38      0.00
    7   16   49     16.98      0.00
    0   17   49     15.80      0.00
    2   17   49      6.68      0.00
    4   17   49      6.51      0.00
    1    1   50     -1.30      0.00
    0    2   50     -3.88      0.00
    1    3   50     21.05      0.00
    3    3   50      8.02      0.00
    0    4   50      9.87      0.00
    2    4   50    -10.80      0.00
    1    5   50     -5.68      0.00
    3    5   50     -3.44      0.00
    5    5   50    -17.86      0.00
    0    6   50      9.75      0.00
    2    6   50      2.18      0.00
    4    6   50     17.39      0.00
    1    7   50     13.67      0.00
    3    7   50     -6.39      0.00
    5    7   50     -8.18      0.00
    7    7   50    -21.43      0.00
    0    8   50    -16.65      0.00
    2    8   50     -0.71      0.00
    4    8   50      9.80      0.00
    6    8   50      8.29      0.00
    1    9   50      4.70      0.00
    3    9   50      4.17      0.00
    5    9   50    -13.04      0.00
    7    9   50    -12.46      0.00
    9    9   50    -13.49      0.00
    0   10   50     -0.46      0.00
    2   10   50     10.65      0.00
    4   10   50     21.22      0.00
    6   10   50     -5.21      0.00
    8   10   50    -16.16      0.00
    1   11   50      8.81      0.00
    3   11   50     -7.68      0.00
    5   11   50      2.72      0.00
    7   11   50     -7.23      0.00
    9   11   50     -0.64      0.00
   11   11   50      3.98      0.00
    0   12   50     17.00      0.00
    2   12   50      1.59      0.00
    4   12   50      8.72      0.00
    6   12   50     14.17      0.00
    8   12   50      5.15      0.00
   10   12   50     -4.64      0.00
    1   13   50      1.10      0.00
    3   13   50      2.19      0.00
    5   13   50    -11.26      0.00
    7   13   50     -3.78      0.00
    9   13   50     10.41      0.00
   11   13   50     -7.20      0.00
    0   14   50      6.86      0.00
    2   14   50     10.26      0.00
    4   14   50      2.63      0.00
    6   14   50    -11.65      0.00
    8   14   50      4.74      0.00
   10   14   50     -8.33      0.00
    1   15   50     17.02      0.00
    3   15   50      6.49      0.00
    5   15   50     20.50      0.00
    7   15   50    -11.98      0.00
    0   16   50     -9.37      0.00
    2   16   50    -31.35      0.00
    4   16   50      2.98      0.00
    6   16   50      3.79      0.00
    1   17   50    -23.96      0.00
    3   17   50    -19.77      0.00
    0    1   51     -6.38      0.00
    1    2   51     13.90      0.00
    0    3   51     11.23      0.00
    2    3   51     -3.93      0.00
    1    4   51      6.08      0.00
    3    4   51      6.06      0.00
    0    5   51     -1.02      0.00
    2    5   51      5.06      0.00
    4    5   51      2.51      0.00
    1    6   51     19.04      0.00
    3    6   51     -1.38      0.00
    5    6   51      5.84      0.00
    0    7   51      6.51      0.00
    2    7   51     -1.79      0.00
    4    7   51      4.57      0.00
    6    7   51      0.26      0.00
    1    8   51    -13.68      0.00
    3    8   51      5.25      0.00
    5    8   51      0.23      0.00
    7    8   51      8.82      0.00
    0    9   51    -10.59      0.00
    2    9   51    -13.33      0.00
    4    9   51     22.29      0.00
    6    9   51      3.48      0.00
    8    9   51     14.45      0.00
    1   10   51     -3.81      0.00
    3   10   51      0.34      0.00
    5   10   51     -1.01      0.00
    7   10   51    -10.95      0.00
    9   10   51     -4.25      0.00
    0   11   51    -11.94      0.00
    2   11   51      3.78      0.00
    4   11   51    -10.49      0.00
    6   11   51      0.72      0.00
    8   11   51    -21.61      0.00
   10   11   51     -8.24      0.00
    1   12   51     19.57      0.00
    3   12   51    -19.20      0.00
    5   12   51      9.28      0.00
    7   12   51     12.25      0.00
    9   12   51     -5.95      0.00
   11   12   51      0.11      0.00
    0   13   51    -15.80      0.00
    2   13   51     -9.79      0.00
    4   13   51     13.09      0.00
    6   13   51     -2.15      0.00
    8   13   51     15.20      0.00
   10   13   51      8.92      0.00
    1   14   51    -18.76      0.00
    3   14   51      5.08      0.00
    5   14   51      8.34      0.00
    7   14   51      8.46      0.00
    9   14   51     12.09      0.00
    0   15   51     -6.13      0.00
    2   15   51      5.48      0.00
    4   15   51      0.08      0.00
    6   15   51      7.99      0.00
    8   15   51     -1.07      0.00
    1   16   51     -0.43      0.00
    3   16   51      0.79      0.00
    5   16   51      6.33      0.00
    0   17   51     30.26      0.00
    2   17   51    -35.65      0.00
    0    0   52     10.92      0.00
    0    2   52     22.36      0.00
    2    2   52     11.19      0.00
    1    3   52     11.49      0.00
    0    4   52     -3.15      0.00
    2    4   52     -1.57      0.00
    4    4   52     19.20      0.00
    1    5   52     -4.84      0.00
    3    5   52      6.46      0.00
    0    6   52    -14.60      0.00
    2    6   52      0.75      0.00
    4    6   52     -1.50      0.00
    6    6   52     -2.25      0.00
    1    7   52     -4.06      0.00
    3    7   52      3.30      0.00
    5    7   52     -9.70      0.00
    0    8   52     -7.54      0.00
    2    8   52     -7.20      0.00
    4    8   52      1.22      0.00
    6    8   52     -6.58      0.00
    8    8   52      9.55      0.00
    1    9   52      5.88      0.00
    3    9   52      9.84      0.00
    5    9   52      6.85      0.00
    7    9   52     14.54      0.00
    0   10   52     21.19      0.00
    2   10   52     -0.49      0.00
    4   10   52     12.19      0.00
    6   10   52     -2.57      0.00
    8   10   52      2.27      0.00
   10   10   52      5.40      0.00
    1   11   52     -0.95      0.00
    3   11   52      7.77      0.00
    5   11   52    -12.22      0.00
    7   11   52     12.17      0.00
    9   11   52      5.95      0.00
    0   12   52     -5.47      0.00
    2   12   52    -11.37      0.00
    4   12   52     -4.49      0.00
    6   12   52     -4.57      0.00
    8   12   52     -6.37      0.00
   10   12   52     -5.41      0.00
    1   13   52     19.01      0.00
    3   13   52     -4.46      0.00
    5   13   52      6.77      0.00
    7   13   52      0.18      0.00
    9   13   52      5.26      0.00
    0   14   52      3.59      0.00
    2   14   52      1.60      0.00
    4   14   52      5.15      0.00
    6   14   52     -5.63      0.00
    8   14   52     -6.73      0.00
    1   15   52     -7.00      0.00
    3   15   52     -0.45      0.00
    5   15   52      5.10      0.00
    7   15   52      0.34      0.00
    0   16   52     -8.74      0.00
    2   16   52    -11.63      0.00
    4   16   52     -5.27      0.00
    0    1   53     -1.86      0.00
    1    2   53     10.23      0.00
    0    3   53     30.96      0.00
    2    3   53     14.82      0.00
    1    4   53      1.16      0.00
    3    4   53      7.44      0.00
    0    5   53      4.14      0.00
    2    5   53     11.80      0.00
    4    5   53     -3.11      0.00
    1    6   53     -1.16      0.00
    3    6   53      3.05      0.00
    5    6   53     13.00      0.00
    0    7   53      7.61      0.00
    2    7   53     -2.41      0.00
    4    7   53    -10.76      0.00
    6    7   53     -7.05      0.00
    1    8   53    -22.97      0.00
    3    8   53     -1.89      0.00
    5    8   53      4.28      0.00
    7    8   53      7.97      0.00
    0    9   53      6.53      0.00
    2    9   53     14.70      0.00
    4    9   53      0.82      0.00
    6    9   53     -2.15      0.00
    8    9   53     12.58      0.00
    1   10   53     -1.67      0.00
    3   10   53     23.79      0.00
    5   10   53     -1.54      0.00
    7   10   53     -7.53      0.00
    9   10   53      8.53      0.00
    0   11   53      5.64      0.00
    2   11   53      6.74      0.00
    4   11   53    -20.23      0.00
    6   11   53      7.81      0.00
    8   11   53     -0.30      0.00
   10   11   53     16.08      0.00
    1   12   53     -4.57      0.00
    3   12   53      5.98      0.00
    5   12   53    -19.29      0.00
    7   12   53     12.02      0.00
    9   12   53     26.65      0.00
   11   12   53      5.25      0.00
    0   13   53     -4.92      0.00
    2   13   53     -0.65      0.00
    4   13   53     -3.74      0.00
    6   13   53    -13.09      0.00
    8   13   53      9.69      0.00
   10   13   53      4.68      0.00
    1   14   53     13.28      0.00
    3   14   53      2.66      0.00
    5   14   53     22.50      0.00
    7   14   53      3.25      0.00
    0   15   53      0.26      0.00
    2   15   53     -9.18      0.00
    4   15   53     24.63      0.00
    6   15   53    -12.03      0.00
    1   16   53    -12.20      0.00
    3   16   53    -21.11      0.00
    1    1   54      8.43      0.00
    0    2   54      4.47      0.00
    1    3   54     -0.27      0.00
    3    3   54     -3.78      0.00
    0    4   54      0.06      0.00
    2    4   54    -13.83      0.00
    1    5   54      2.10      0.00
    3    5   54     -7.07      0.00
    5    5   54    -20.91      0.00
    0    6   54    -13.67      0.00
    2    6   54     -8.98      0.00
    4    6   54      4.31      0.00
    1    7   54      1.63      0.00
    3    7   54     -2.13      0.00
    5    7   54      0.52      0.00
    7    7   54     -4.30      0.00
    0    8   54     -5.82      0.00
    2    8   54     -8.37      0.00
    4    8   54     10.12      0.00
    6    8   54      2.33      0.00
    1    9   54     -5.83      0.00
    3    9   54     -8.26      0.00
    5    9   54     -2.01      0.00
    7    9   54     -5.65      0.00
    9    9   54      9.14      0.00
    0   10   54    -14.20      0.00
    2   10   54      4.47      0.00
    4   10   54     -4.91      0.00
    6   10   54    -18.76      0.00
    8   10   54     -2.39      0.00
    1   11   54     -9.19      0.00
    3   11   54    -11.14      0.00
    5   11   54     -3.72      0.00
    7   11   54     -5.54      0.00
    9   11   54    -11.91      0.00
   11   11   54     -4.11      0.00
    0   12   54    -23.40      0.00
    2   12   54     -3.19      0.00
    4   12   54      4.66      0.00
    6   12   54      1.42      0.00
    8   12   54    -13.46      0.00
   10   12   54     10.52      0.00
    1   13   54    -15.37      0.00
    3   13   54      5.79      0.00
    5   13   54      7.74      0.00
    7   13   54     -1.93      0.00
    9   13   54     18.11      0.00
    0   14   54    -17.30      0.00
    2   14   54    -24.85      0.00
    4   14   54     -5.43      0.00
    6   14   54      7.84      0.00
    8   14   54      7.13      0.00
    1   15   54     -4.31      0.00
    3   15   54      4.08      0.00
    5   15   54      8.71      0.00
    0   16   54     20.72      0.00
    2   16   54    -11.37      0.00
    0    1   55      3.35      0.00
    1    2   55     11.65      0.00
    0    3   55     -2.96      0.00
    2    3   55     16.90      0.00
    1    4   55    -14.84      0.00
    3    4   55     10.67      0.00
    0    5   55    -15.74      0.00
    2    5   55    -13.67      0.00
    4    5   55      5.51      0.00
    1    6   55    -15.82      0.00
    3    6   55     -7.46      0.00
    5    6   55      3.66      0.00
    0    7   55     17.33      0.00
    2    7   55      0.25      0.00
    4    7   55      3.55      0.00
    6    7   55     -4.10      0.00
    1    8   55     -4.48      0.00
    3    8   55      0.31      0.00
    5    8   55      3.15      0.00
    7    8   55      4.06      0.00
    0    9   55      5.19      0.00
    2    9   55      8.67      0.00
    4    9   55     -1.19      0.00
    6    9   55     -9.42      0.00
    8    9   55     -5.73      0.00
    1   10   55      1.16      0.00
    3   10   55      5.63      0.00
    5   10   55     -4.42      0.00
    7   10   55      0.84      0.00
    9   10   55    -16.53      0.00
    0   11   55     -9.65      0.00
    2   11   55      3.52      0.00
    4   11   55     -2.97      0.00
    6   11   55    -13.57      0.00
    8   11   55      2.33      0.00
   10   11   55    -14.59      0.00
    1   12   55      6.47      0.00
    3   12   55    -11.32      0.00
    5   12   55     10.32      0.00
    7   12   55    -25.38      0.00
    9   12   55     -4.87      0.00
    0   13   55     30.28      0.00
    2   13   55     11.62      0.00
    4   13   55     10.39      0.00
    6   13   55     12.88      0.00
    8   13   55     -1.62      0.00
    1   14   55     -8.95      0.00
    3   14   55    -10.45      0.00
    5   14   55     -0.04      0.00
    7   14   55    -22.54      0.00
    0   15   55    -15.08      0.00
    2   15   55      5.68      0.00
    4   15   55      5.13      0.00
    0    0   56     18.38      0.00
    0    2   56     13.55      0.00
    2    2   56     22.66      0.00
    1    3   56      3.59      0.00
    0    4   56      4.22      0.00
    2    4   56     -9.57      0.00
    4    4   56      6.60      0.00
    1    5   56    -12.68      0.00
    3    5   56      6.79      0.00
    0    6   56      0.28      0.00
    2    6   56     -5.04      0.00
    4    6   56      7.65      0.00
    6    6   56      8.31      0.00
    1    7   56      5.07      0.00
    3    7   56     -1.03      0.00
    5    7   56     -0.79      0.00
    0    8   56    -23.67      0.00
    2    8   56     -7.73      0.00
    4    8   56      1.10      0.00
    6    8   56      1.55      0.00
    8    8   56     -4.25      0.00
    1    9   56     -9.67      0.00
    3    9   56     29.01      0.00
    5    9   56     -5.66      0.00
    7    9   56     -1.19      0.00
    0   10   56     10.12      0.00
    2   10   56      5.64      0.00
    4   10   56     10.34      0.00
    6   10   56     -6.33      0.00
    8   10   56      5.79      0.00
   10   10   56     11.85      0.00
    1   11   56     -8.12      0.00
    3   11   56    -15.05      0.00
    5   11   56    -33.17      0.00
    7   11   56     12.71      0.00
    9   11   56     -6.60      0.00
    0   12   56     15.75      0.00
    2   12   56     -7.76      0.00
    4   12   56      3.01      0.00
    6   12   56     -8.47      0.00
    8   12   56     23.27      0.00
    1   13   56     -7.13      0.00
    3   13   56    -15.35      0.00
    5   13   56      8.01      0.00
    7   13   56     -6.01      0.00
    0   14   56     12.45      0.00
    2   14   56      0.77      0.00
    4   14   56     10.98      0.00
    6   14   56     -5.80      0.00
    1   15   56     -0.56      0.00
    3   15   56      8.92      0.00
    0    1   57      6.51      0.00
    1    2   57     -5.42      0.00
    0    3   57      2.11      0.00
    2    3   57      0.22      0.00
    1    4   57     -3.14      0.00
    3    4   57      2.23      0.00
    0    5   57    -12.87      0.00
    2    5   57     -0.10      0.00
    4    5   57     10.45      0.00
    1    6   57     -3.75      0.00
    3    6   57     -8.78      0.00
    5    6   57     -6.13      0.00
    0    7   57     13.60      0.00
    2    7   57      7.67      0.00
    4    7   57    -24.37      0.00
    6    7   57      3.86      0.00
    1    8   57    -22.82      0.00
    3    8   57      2.65      0.00
    5    8   57      8.25      0.00
    7    8   57     -1.86      0.00
    0    9   57     -8.02      0.00
    2    9   57      0.66      0.00
    4    9   57    -11.35      0.00
    6    9   57      0.98      0.00
    8    9   57      1.17      0.00
    1   10   57    -16.87      0.00
    3   10   57     12.32      0.00
    5   10   57     -8.17      0.00
    7   10   57     13.47      0.00
    9   10   57     -7.67      0.00
    0   11   57    -29.55      0.00
    2   11   57      0.35      0.00
    4   11   57     -2.90      0.00
    6   11   57     -5.95      0.00
    8   11   57    -14.09      0.00
   10   11   57    -12.80      0.00
    1   12   57    -33.31      0.00
    3   12   57      8.34      0.00
    5   12   57     24.20      0.00
    7   12   57      3.30      0.00
    9   12   57      0.05      0.00
    0   13   57     11.63      0.00
    2   13   57    -22.24      0.00
    4   13   57     -9.48      0.00
    6   13   57     -4.77      0.00
    1   14   57    -11.34      0.00
    3   14   57      2.42      0.00
    5   14   57      3.35      0.00
    0   15   57     -7.20      0.00
    1    1   58     -1.22      0.00
    0    2   58      3.99      0.00
    1    3   58      7.89      0.00
    3    3   58      3.58      0.00
    0    4   58     26.82      0.00
    2    4   58     -7.40      0.00
    1    5   58      3.10      0.00
    3    5   58     -0.08      0.00
    5    5   58      3.24      0.00
    0    6   58     14.51      0.00
    2    6   58     12.27      0.00
    4    6   58     16.29      0.00
    1    7   58     13.88      0.00
    3    7   58     -1.36      0.00
    5    7   58     -3.71      0.00
    7    7   58      4.52      0.00
    0    8   58    -18.12      0.00
    2    8   58     -5.44      0.00
    4    8   58     -1.28      0.00
    6    8   58      2.64      0.00
    1    9   58     16.43      0.00
    3    9   58     13.77      0.00
    5    9   58     -2.72      0.00
    7    9   58     -8.62      0.00
    9    9   58     11.95      0.00
    0   10   58    -17.72      0.00
    2   10   58     -6.24      0.00
    4   10   58      5.58      0.00
    6   10   58      7.66      0.00
    8   10   58     15.62      0.00
    1   11   58     20.72      0.00
    3   11   58      0.59      0.00
    5   11   58      3.59      0.00
    7   11   58     -2.35      0.00
    9   11   58     -9.44      0.00
    0   12   58    -10.70      0.00
    2   12   58      4.18      0.00
    4   12   58      3.17      0.00
    6   12   58      1.21      0.00
    8   12   58    -10.09      0.00
    1   13   58      8.15      0.00
    3   13   58     10.64      0.00
    5   13   58      7.03      0.00
    0   14   58    -15.55      0.00
    2   14   58     -4.83      0.00
    4   14   58     11.64      0.00
    0    1   59    -20.29      0.00
    1    2   59      9.99      0.00
    0    3   59     -0.67      0.00
    2    3   59    -14.57      0.00
    1    4   59      0.72      0.00
    3    4   59      1.87      0.00
    0    5   59    -12.47      0.00
    2    5   59     -6.04      0.00
    4    5   59     -8.30      0.00
    1    6   59      4.93      0.00
    3    6   59      4.90      0.00
    5    6   59     17.44      0.00
    0    7   59    -19.80      0.00
    2    7   59     -1.72      0.00
    4    7   59     21.14      0.00
    6    7   59    -10.06      0.00
    1    8   59      2.13      0.00
    3    8   59      3.62      0.00
    5    8   59      7.67      0.00
    7    8   59     -2.05      0.00
    0    9   59     18.10      0.00
    2    9   59     12.56      0.00
    4    9   59     -3.69      0.00
    6    9   59    -15.92      0.00
    8    9   59     -1.03      0.00
    1   10   59     11.25      0.00
    3   10   59      8.40      0.00
    5   10   59    -14.09      0.00
    7   10   59     12.90      0.00
    9   10   59      0.70      0.00
    0   11   59    -14.08      0.00
    2   11   59     -1.88      0.00
    4   11   59     -2.78      0.00
    6   11   59    -24.34      0.00
    8   11   59      0.77      0.00
    1   12   59      8.36      0.00
    3   12   59      4.22      0.00
    5   12   59     12.79      0.00
    7   12   59     -6.86      0.00
    0   13   59    -22.23      0.00
    2   13   59      8.80      0.00
    4   13   59     -4.25      0.00
    6   13   59     -6.49      0.00
    1   14   59      1.99      0.00
    3   14   59     -8.81      0.00
    0    0   60     27.13      0.00
    0    2   60      6.29      0.00
    2    2   60      5.96      0.00
    1    3   60     -7.30      0.00
    0    4   60      6.90      0.00
    2    4   60      6.59      0.00
    4    4   60     16.45      0.00
    1    5   60    -24.21      0.00
    3    5   60     -0.71      0.00
    0    6   60      2.68      0.00
    2    6   60     -1.39      0.00
    4    6   60    -10.86      0.00
    6    6   60      9.42      0.00
    1    7   60    -18.62      0.00
    3    7   60      3.39      0.00
    5    7   60     -2.41      0.00
    0    8   60    -13.89      0.00
    2    8   60      2.24      0.00
    4    8   60      8.45      0.00
    6    8   60     13.64      0.00
    8    8   60     10.55      0.00
    1    9   60      5.20      0.00
    3    9   60     -7.06      0.00
    5    9   60     -9.56      0.00
    7    9   60      4.99      0.00
    0   10   60      0.16      0.00
    2   10   60     -3.13      0.00
    4   10   60     17.51      0.00
    6   10   60     12.14      0.00
    8   10   60     11.50      0.00
    1   11   60    -19.51      0.00
    3   11   60      5.82      0.00
    5   11   60    -11.15      0.00
    7   11   60     -5.16      0.00
    0   12   60     11.16      0.00
    2   12   60     -2.70      0.00
    4   12   60     22.86      0.00
    6   12   60     -1.36      0.00
    1   13   60      0.21      0.00
    3   13   60      1.90      0.00
    0    1   61    -15.48      0.00
    1    2   61     14.54      0.00
    0    3   61      5.63      0.00
    2    3   61      7.17      0.00
    1    4   61     11.89      0.00
    3    4   61     -0.87      0.00
    0    5   61    -16.15      0.00
    2    5   61     -9.08      0.00
    4    5   61    -11.62      0.00
    1    6   61      2.21      0.00
    3    6   61     17.22      0.00
    5    6   61      2.93      0.00
    0    7   61     -6.23      0.00
    2    7   61    -10.16      0.00
    4    7   61    -19.70      0.00
    6    7   61     -0.96      0.00
    1    8   61     15.51      0.00
    3    8   61      7.52      0.00
    5    8   61     -9.59      0.00
    7    8   61     -2.33      0.00
    0    9   61    -25.56      0.00
    2    9   61      6.93      0.00
    4    9   61    -18.72      0.00
    6    9   61     18.19      0.00
    8    9   61      0.04      0.00
    1   10   61     -6.84      0.00
    3   10   61     11.42      0.00
    5   10   61      6.99      0.00
    7   10   61     15.88      0.00
    9   10   61      1.33      0.00
    0   11   61     17.12      0.00
    2   11   61      6.63      0.00
    4   11   61     -1.79      0.00
    6   11   61    -11.90      0.00
    1   12   61      0.74      0.00
    3   12   61      5.16      0.00
    5   12   61    -13.46      0.00
    0   13   61    -13.48      0.00
    2   13   61    -15.10      0.00
    1    1   62      8.44      0.00
    0    2   62    -11.91      0.00
    1    3   62     -5.60      0.00
    3    3   62    -12.83      0.00
    0    4   62      6.78      0.00
    2    4   62     -4.60      0.00
    1    5   62     -5.60      0.00
    3    5   62      8.55      0.00
    5    5   62     19.86      0.00
    0    6   62      6.31      0.00
    2    6   62    -10.19      0.00
    4    6   62     21.75      0.00
    1    7   62      0.22      0.00
    3    7   62     -2.66      0.00
    5    7   62    -13.05      0.00
    7    7   62     -0.24      0.00
    0    8   62     12.85      0.00
    2    8   62      5.68      0.00
    4    8   62    -24.99      0.00
    6    8   62    -11.14      0.00
    1    9   62      9.06      0.00
    3    9   62      8.94      0.00
    5    9   62    -12.67      0.00
    7    9   62    -10.10      0.00
    9    9   62     17.73      0.00
    0   10   62    -24.35      0.00
    2   10   62      8.59      0.00
    4   10   62      4.19      0.00
    6   10   62    -15.78      0.00
    8   10   62      5.09      0.00
    1   11   62     -8.80      0.00
    3   11   62     15.78      0.00
    5   11   62     -3.48      0.00
    0   12   62    -12.65      0.00
    2   12   62      2.68      0.00
    4   12   62     -0.47      0.00
    0    1   63      7.43      0.00
    1    2   63      4.92      0.00
    0    3   63    -13.88      0.00
    2    3   63      1.90      0.00
    1    4   63      3.35      0.00
    3    4   63     11.24      0.00
    0    5   63     -6.96      0.00
    2    5   63     -6.03      0.00
    4    5   63      1.47      0.00
    1    6   63      6.18      0.00
    3    6   63      3.08      0.00
    5    6   63     -6.07      0.00
    0    7   63     -2.70      0.00
    2    7   63     14.02      0.00
    4    7   63     -0.13      0.00
    6    7   63     -1.05      0.00
    1    8   63    -24.16      0.00
    3    8   63    -10.33      0.00
    5    8   63     -2.49      0.00
    7    8   63      4.23      0.00
    0    9   63     18.76      0.00
    2    9   63     -1.62      0.00
    4    9   63      9.72      0.00
    6    9   63      1.85      0.00
    8    9   63     11.46      0.00
    1   10   63    -12.53      0.00
    3   10   63     -0.93      0.00
    5   10   63      6.44      0.00
    7   10   63     13.33      0.00
    0   11   63    -21.49      0.00
    2   11   63     10.09      0.00
    4   11   63     -4.32      0.00
    1   12   63    -12.66      0.00
    3   12   63     14.48      0.00
    0    0   64    -10.65      0.00
    0    2   64    -10.70      0.00
    2    2   64     22.78      0.00
    1    3   64      4.87      0.00
    0    4   64     25.76      0.00
    2    4   64     -9.40      0.00
    4    4   64     10.55      0.00
    1    5   64     -1.91      0.00
    3    5   64      7.36      0.00
    0    6   64    -23.67      0.00
    2    6   64      6.27      0.00
    4    6   64      0.71      0.00
    6    6   64      7.31      0.00
    1    7   64      4.84      0.00
    3    7   64     -1.43      0.00
    5    7   64     -6.02      0.00
    0    8   64    -21.82      0.00
    2    8   64     11.41      0.00
    4    8   64    -12.16      0.00
    6    8   64     12.24      0.00
    8    8   64      3.65      0.00
    1    9   64    -12.72      0.00
    3    9   64      1.40      0.00
    5    9   64     -3.56      0.00
    7    9   64      0.57      0.00
    0   10   64    -11.76      0.00
    2   10   64    -14.76      0.00
    4   10   64     16.65      0.00
    6   10   64     -9.09      0.00
    1   11   64      4.35      0.00
    3   11   64     -5.06      0.00
    0    1   65    -13.68      0.00
    1    2   65    -22.91      0.00
    0    3   65     -3.75      0.00
    2    3   65     -3.42      0.00
    1    4   65     -3.33      0.00
    3    4   65     11.24      0.00
    0    5   65     -4.51      0.00
    2    5   65      2.87      0.00
    4    5   65     -0.67      0.00
    1    6   65      5.44      0.00
    3    6   65     -3.13      0.00
    5    6   65     -3.04      0.00
    0    7   65     -2.98      0.00
    2    7   65      2.32      0.00
    4    7   65     -7.71      0.00
    6    7   65     11.11      0.00
    1    8   65    -14.58      0.00
    3    8   65      2.54      0.00
    5    8   65    -17.03      0.00
    7    8   65      5.72      0.00
    0    9   65     11.16      0.00
    2    9   65     21.86      0.00
    4    9   65     -7.47      0.00
    6    9   65      3.21      0.00
    1   10   65    -21.67      0.00
    3   10   65      0.63      0.00
    5   10   65     -5.55      0.00
    0   11   65    -18.92      0.00
    2   11   65      0.19      0.00
    1    1   66     -6.17      0.00
    0    2   66    -26.41      0.00
    1    3   66      3.10      0.00
    3    3   66     -4.10      0.00
    0    4   66     27.59      0.00
    2    4   66     -7.38      0.00
    1    5   66    -12.68      0.00
    3    5   66     -7.16      0.00
    5    5   66    -26.42      0.00
    0    6   66    -13.18      0.00
    2    6   66     23.54      0.00
    4    6   66      8.58      0.00
    1    7   66    -18.37      0.00
    3    7   66     -7.60      0.00
    5    7   66    -17.34      0.00
    7    7   66    -19.57      0.00
    0    8   66      6.25      0.00
    2    8   66     -7.35      0.00
    4    8   66     14.34      0.00
    6    8   66      6.77      0.00
    1    9   66     -2.57      0.00
    3    9   66      8.52      0.00
    5    9   66      8.31      0.00
    0   10   66    -30.84      0.00
    2   10   66     -4.19      0.00
    4   10   66      2.71      0.00
    0    1   67      8.93      0.00
    1    2   67     -4.23      0.00
    0    3   67      8.11      0.00
    2    3   67     -2.03      0.00
    1    4   67     -3.46      0.00
    3    4   67      2.32      0.00
    0    5   67      9.40      0.00
    2    5   67      8.03      0.00
    4    5   67      1.37      0.00
    1    6   67     -6.71      0.00
    3    6   67     11.60      0.00
    5    6   67     27.05      0.00
    0    7   67    -14.98      0.00
    2    7   67     -5.12      0.00
    4    7   67     -4.81      0.00
    6    7   67    -10.06      0.00
    1    8   67     -3.65      0.00
    3    8   67     22.43      0.00
    5    8   67     -6.72      0.00
    0    9   67    -21.65      0.00
    2    9   67     -3.68      0.00
    4    9   67     -1.14      0.00
    1   10   67    -18.20      0.00
    0    0   68     -9.30      0.00
    0    2   68     -2.84      0.00
    2    2   68     -6.79      0.00
    1    3   68     15.56      0.00
    0    4   68    -31.03      0.00
    2    4   68     -0.88      0.00
    4    4   68    -15.98      0.00
    1    5   68     -6.18      0.00
    3    5   68     10.63      0.00
    0    6   68     -1.59      0.00
    2    6   68     -7.93      0.00
    4    6   68      2.75      0.00
    6    6   68    -14.34      0.00
    1    7   68     -0.54      0.00
    3    7   68    -11.29      0.00
    5    7   68      5.58      0.00
    0    8   68    -21.42      0.00
    2    8   68     10.32      0.00
    4    8   68    -10.02      0.00
    1    9   68    -11.48      0.00
    0    1   69     -5.74      0.00
    1    2   69     -6.39      0.00
    0    3   69      2.87      0.00
    2    3   69      1.77      0.00
    1    4   69     10.49      0.00
    3    4   69     -2.95      0.00
    0    5   69      3.94      0.00
    2    5   69     17.58      0.00
    4    5   69     -4.71      0.00
    1    6   69    -25.35      0.00
    3    6   69     15.30      0.00
    5    6   69    -13.86      0.00
    0    7   69     -1.25      0.00
    2    7   69     -4.91      0.00
    4    7   69     -9.24      0.00
    1    8   69     -0.08      0.00
    3    8   69      1.91      0.00
    1    1   70      0.15      0.00
    0    2   70     -1.60      0.00
    1    3   70     -9.55      0.00
    3    3   70      9.60      0.00
    0    4   70      2.68      0.00
    2    4   70     -6.38      0.00
    1    5   70     13.58      0.00
    3    5   70     -4.10      0.00
    5    5   70      5.85      0.00
    0    6   70     -4.49      0.00
    2    6   70     -6.38      0.00
    4    6   70     10.41      0.00
    1    7   70     -0.44      0.00
    3    7   70     27.34      0.00
    0    1   71    -23.05      0.00
    1    2   71     18.63      0.00
    0    3   71     -6.05      0.00
    2    3   71      6.08      0.00
    1    4   71    -19.07      0.00
    3    4   71      4.22      0.00
    0    5   71     -6.49      0.00
    2    5   71    -14.78      0.00
    4    5   71     10.32      0.00
    1    6   71     -6.66      0.00
    3    6   71     -2.19      0.00
    0    0   72     12.72      0.00
    0    2   72     -4.82      0.00
    2    2   72     -7.11      0.00
    1    3   72     11.77      0.00
    0    4   72      6.09      0.00
    2    4   72     -2.14      0.00
    4    4   72    -22.87      0.00
    1    5   72      9.66      0.00
    0    1   73     -0.14      0.00
    1    2   73    -15.50      0.00
    0    3   73    -10.48      0.00
    2    3   73      2.07      0.00
    1    4   73     -9.01      0.00
    1    1   74    -12.21      0.00
    9   22    1      4.21      0.00
    6   23    1     19.82      0.00
   11   21    2     -8.84      0.00
    9   22    3     -2.32      0.00
    6   23    3      4.98      0.00
   11   21    4      4.13      0.00
   14   19    5      7.68      0.00
    9   22    5     14.94      0.00
    6   23    5     -2.55      0.00
   11   21    6      4.12      0.00
   14   19    7     -8.11      0.00
    5   23    8      5.17      0.00
   14   19    9     -8.11      0.00
    5   23   10     15.34      0.00
   15   18   11     15.11      0.00
    8   22   12     10.77      0.00
   16   17   13    -16.88      0.00
   15   18   13     15.42      0.00
    4   23   13     11.68      0.00
   12   20   14      4.25      0.00
    8   22   14     -9.81      0.00
   16   17   15     -2.36      0.00
   10   21   15     15.18      0.00
    4   23   15     -5.47      0.00
    3   23   16    -15.22      0.00
    7   22   17     -9.62      0.00
    2   23   17    -10.48      0.00
   13   19   18     11.94      0.00
    1   23   18    -22.91      0.00
    0   23   19     -4.34      0.00
   14   18   20     10.77      0.00
    9   21   20    -13.35      0.00
    6   22   20     -6.41      0.00
   11   20   21     -9.39      0.00
   15   17   22    -11.92      0.00
    5   22   23     -0.20      0.00
   14   17   27    -26.02      0.00
   13   18   27     -6.92      0.00
    1   22   27     17.06      0.00
    3   22   27     -0.44      0.00
   11   19   28      6.96      0.00
    0   22   28     -3.38      0.00
    2   22   28     12.06      0.00
   15   16   29      6.08      0.00
    9   20   29     -4.97      0.00
    6   21   29      1.64      0.00
   12   18   30      3.45      0.00
   13   17   32      5.74      0.00
    8   20   32      6.11      0.00
    7   20   33      5.16      0.00
    4   21   33      2.75      0.00
   15   15   34     -5.95      0.00
    9   19   34     -1.97      0.00
    1   21   34     23.01      0.00
    3   21   34     23.62      0.00
    0   21   35     -2.72      0.00
    6   20   36     -3.70      0.00
   14   15   37     -2.72      0.00
   13   16   37     -4.04      0.00
    8   19   37    -11.72      0.00
    5   20   37    -10.54      0.00
    4   20   38      0.49      0.00
    9   18   39     12.43      0.00
    3   20   39     10.45      0.00
   12   16   40    -11.63      0.00
    0   20   40     24.65      0.00
    2   20   40      2.47      0.00
   10   17   41     12.81      0.00
    6   19   41     -9.30      0.00
    8   18   42      0.96      0.00
    5   19   42    -18.45      0.00
   11   16   43     -6.83      0.00
    7   18   43    -18.91      0.00
    4   19   43     -9.15      0.00
    9   17   44      4.36      0.00
    3   19   44      5.77      0.00
    0   19   45      5.80      0.00
   11   15   46    -13.00      0.00
    9   16   47      3.06      0.00
    2   18   48     -6.24      0.00
   11   14   49    -10.55      0.00
    9   15   50    -12.48      0.00
    5   17   50     -5.51      0.00
   12   12   52      2.02      0.00
   11   13   52     -3.45      0.00
    6   16   52     -3.66      0.00
    1   17   52     29.75      0.00
    9   14   53    -16.17      0.00
    5   16   53    -11.06      0.00
    1   16   55      8.00      0.00
   10   12   56      1.98      0.00
    8   13   57     12.46      0.00
    2   15   57      5.81      0.00
    7   13   58     -9.39      0.00
    1   15   58     -4.49      0.00
   10   10   60    -30.76      0.00
    9   11   60    -23.91      0.00
    5   13   60    -13.00      0.00
    0   14   60    -14.58      0.00
    2   14   60      8.11      0.00
    8   11   61      0.64      0.00
    4   13   61     12.10      0.00
    7   11   62    -15.46      0.00
    1   13   62    -14.33      0.00
    6   11   63    -22.02      0.00
    5   11   64    -17.40      0.00
    0   12   64     -1.71      0.00
    2   12   64     -0.85      0.00
    4   11   65     13.82      0.00
    1   11   66      3.53      0.00
    3   10   67      7.80      0.00
    3    9   68     -3.33      0.00
    0    9   69    -18.86      0.00
    0    8   70    -23.17      0.00
    2    8   70      9.43      0.00
    0    7   71     -2.77      0.00
    2    7   71     -3.76      0.00
    3    5   72     12.72      0.00
    0    6   72    -31.47      0.00
    2    6   72     -2.74      0.00
    3    4   73    -20.17      0.00
    0    5   73      3.55      0.00
    0    2   74     23.18      0.00
    1    3   74    -20.33      0.00
    0    0    0      0.00      0.00
# SQUEEZE RESULTS (Version =  30715)
# Note: Data are Listed for all Voids in the P1 Unit Cell
# i.e. Centre of Gravity, Solvent Accessible Volume,
# Recovered number of Electrons in the Void and
# Details about the Squeezed Material
loop_
  _platon_squeeze_void_nr
  _platon_squeeze_void_average_x
  _platon_squeeze_void_average_y
  _platon_squeeze_void_average_z
  _platon_squeeze_void_volume
  _platon_squeeze_void_count_electrons
  _platon_squeeze_void_content
   1 -0.067 -0.005 -0.001     16231      3836 ' '
_platon_squeeze_void_probe_radius                  1.20
_platon_squeeze_details
)
TITL swy1      I 41/a m d   R = 0.12
CELL   19.3870   19.3870   60.8310     90.00     90.00     90.00
SPGR I41/amd
# Solvent Accessible Volume =   16355.3
# Electrons Found in S.A.V. =    3823.2
# Note: Atoms in Void as Cxxx and Qxxx all others
C101 0.311 0.247 0.141 !       2.49 eA-3
C102 0.500 0.062 0.152 !       2.43 eA-3
C103 0.198 0.751 0.070 !       1.45 eA-3
C104 1.000 0.251 0.102 !       1.45 eA-3
C105 0.250 0.016 0.249 !       1.34 eA-3
C106 0.217 0.252 0.016 !       1.29 eA-3
C107 0.500 0.453 0.192 !       1.25 eA-3
C108 0.731 0.251 0.035 !       1.24 eA-3
C109 0.500 0.752 0.238 !       1.24 eA-3
C110 1.000 0.284 0.024 !       1.23 eA-3
C111 0.253 0.251 0.152 !       1.22 eA-3
C112 0.483 0.527 0.112 !       1.21 eA-3
Q113 0.814 0.249 0.246 !       1.19 eA-3
C114 0.500 0.778 0.085 !       1.19 eA-3
C115 0.248 0.448 0.006 !       1.18 eA-3
C116 0.141 0.252 0.133 !       1.17 eA-3
C117 1.000 0.251 0.145 !       1.16 eA-3
C118 0.323 0.249 0.031 !       1.15 eA-3
C119 0.326 0.253 0.074 !       1.13 eA-3
C120 0.239 0.748 0.023 !       1.13 eA-3
C121 0.784 0.966 0.008 !       1.12 eA-3
C122 0.500 0.108 0.094 !       1.11 eA-3
C123 1.000 0.441 0.097 !       1.11 eA-3
C124 0.299 0.250 0.121 !       1.10 eA-3
C125 0.109 0.251 0.180 !       1.09 eA-3
C126 0.472 0.984 0.228 !       1.09 eA-3
C127 0.500 0.872 0.090 !       1.09 eA-3
C128 0.500 0.937 0.100 !       1.08 eA-3
C129 1.000 0.439 0.191 !       1.08 eA-3
C130 1.000 0.548 0.226 !       1.07 eA-3
C131 0.522 0.251 0.168 !       1.07 eA-3
C132 0.245 0.763 0.184 !       1.05 eA-3
C133 0.500 0.512 0.139 !       1.04 eA-3
C134 0.200 0.219 0.005 !       1.04 eA-3
C135 0.722 0.550 0.231 !       1.03 eA-3
C136 0.167 0.514 0.015 !       1.02 eA-3
Q137 0.688 0.249 0.242 !       1.02 eA-3
C138 0.298 0.749 0.141 !       1.02 eA-3
C139 0.500 0.111 0.189 !       1.02 eA-3
C140 0.150 0.252 0.016 !       1.01 eA-3
Q141 0.542 0.204 0.232 !       1.01 eA-3
C142 1.000 0.989 0.195 !       1.01 eA-3
C143 0.252 0.030 0.754 !       1.01 eA-3
C144 0.748 0.970 0.246 !       1.01 eA-3
C145 0.248 0.470 0.746 !       1.01 eA-3
C146 0.793 0.521 0.993 !       1.01 eA-3
Q147 1.000 0.752 0.148 !       1.01 eA-3
C148 0.832 0.484 0.036 !       1.00 eA-3
C149 0.812 0.967 0.997 !       1.00 eA-3
C150 0.079 0.756 0.027 !       1.00 eA-3
C151 0.674 0.748 0.035 !       0.99 eA-3
C152 0.500 0.545 0.203 !       0.99 eA-3
C153 0.323 0.745 0.242 !       0.99 eA-3
C154 0.978 0.280 0.171 !       0.98 eA-3
C155 1.000 0.049 0.024 !       0.98 eA-3
C156 0.500 0.885 0.192 !       0.97 eA-3
C157 0.763 0.756 0.148 !       0.97 eA-3
C158 0.453 0.578 0.117 !       0.97 eA-3
C159 0.678 0.749 0.129 !       0.96 eA-3
C160 1.000 0.298 0.115 !       0.96 eA-3
C161 0.750 0.222 0.126 !       0.95 eA-3
C162 0.232 0.749 0.035 !       0.95 eA-3
C163 0.517 0.501 0.247 !       0.95 eA-3
C164 0.796 0.246 0.172 !       0.95 eA-3
C165 1.000 0.362 0.043 !       0.94 eA-3
C166 0.651 0.718 0.122 !       0.93 eA-3
C167 0.063 0.190 0.009 !       0.93 eA-3
C168 0.877 0.248 0.004 !       0.92 eA-3
C169 0.925 0.313 0.022 !       0.92 eA-3
C170 0.874 0.487 0.025 !       0.91 eA-3
C171 0.454 0.920 0.238 !       0.91 eA-3
C172 0.987 0.467 0.234 !       0.91 eA-3
C173 0.830 0.969 0.031 !       0.91 eA-3
C174 0.513 0.967 0.734 !       0.91 eA-3
C175 0.172 0.749 0.246 !       0.91 eA-3
C176 1.000 0.140 0.016 !       0.91 eA-3
C177 1.000 0.009 0.207 !       0.90 eA-3
C178 0.559 0.973 0.133 !       0.90 eA-3
C179 1.000 0.052 0.066 !       0.90 eA-3
C180 0.537 0.754 0.207 !       0.90 eA-3
C181 0.800 0.390 0.011 !       0.89 eA-3
Q182 0.428 0.248 0.246 !       0.89 eA-3
C183 0.760 0.753 0.090 !       0.89 eA-3
C184 0.926 0.091 0.132 !       0.89 eA-3
C185 0.360 0.504 0.242 !       0.89 eA-3
C186 0.583 0.250 0.070 !       0.89 eA-3
C187 1.000 0.402 0.143 !       0.88 eA-3
C188 0.026 0.465 0.156 !       0.88 eA-3
C189 1.000 0.537 0.076 !       0.88 eA-3
C190 0.453 0.491 0.106 !       0.88 eA-3
C191 0.032 0.501 0.078 !       0.88 eA-3
C192 0.028 0.418 0.040 !       0.88 eA-3
C193 0.622 0.743 0.227 !       0.88 eA-3
C194 0.891 0.281 0.011 !       0.88 eA-3
C195 0.123 0.511 0.273 !       0.88 eA-3
C196 0.377 0.989 0.227 !       0.88 eA-3
C197 0.800 0.745 0.090 !       0.88 eA-3
C198 0.217 0.518 0.022 !       0.87 eA-3
C199 0.947 0.626 0.051 !       0.87 eA-3
)
;
_shelx_fab_checksum              79693
loop_
_space_group_symop_operation_xyz
'x, y, z'
'-x+1/2, -y, z+1/2'
'-y+1/4, x+3/4, z+1/4'
'y+1/4, -x+1/4, z+3/4'
'-x+1/2, y, -z+1/2'
'x, -y, -z'
'y+1/4, x+3/4, -z+1/4'
'-y+1/4, -x+1/4, -z+3/4'
'x+1/2, y+1/2, z+1/2'
'-x+1, -y+1/2, z+1'
'-y+3/4, x+5/4, z+3/4'
'y+3/4, -x+3/4, z+5/4'
'-x+1, y+1/2, -z+1'
'x+1/2, -y+1/2, -z+1/2'
'y+3/4, x+5/4, -z+3/4'
'-y+3/4, -x+3/4, -z+5/4'
'-x, -y, -z'
'x-1/2, y, -z-1/2'
'y-1/4, -x-3/4, -z-1/4'
'-y-1/4, x-1/4, -z-3/4'
'x-1/2, -y, z-1/2'
'-x, y, z'
'-y-1/4, -x-3/4, z-1/4'
'y-1/4, x-1/4, z-3/4'
'-x+1/2, -y+1/2, -z+1/2'
'x, y+1/2, -z'
'y+1/4, -x-1/4, -z+1/4'
'-y+1/4, x+1/4, -z-1/4'
'x, -y+1/2, z'
'-x+1/2, y+1/2, z+1/2'
'-y+1/4, -x-1/4, z+1/4'
'y+1/4, x+1/4, z-1/4'
loop_
_atom_site_label
_atom_site_type_symbol
_atom_site_fract_x
_atom_site_fract_y
_atom_site_fract_z
_atom_site_U_iso_or_equiv
_atom_site_adp_type
_atom_site_occupancy
_atom_site_site_symmetry_order
_atom_site_calc_flag
_atom_site_refinement_flags_posn
_atom_site_refinement_flags_adp
_atom_site_refinement_flags_occupancy
_atom_site_disorder_assembly
_atom_site_disorder_group
Cu1 Cu 0.0000 0.43246(4) 0.49767(2) 0.0486(3) Uani 1 2 d S T P A .
Cu2 Cu 0.5000 0.2500 0.60331(2) 0.0480(3) Uani 1 4 d S T P . .
O1 O 0.07017(18) 0.55393(18) 0.52481(5) 0.0664(11) Uani 1 1 d . . . . .
O2 O 0.07126(18) 0.44070(18) 0.52075(5) 0.0676(10) Uani 1 1 d . . . . .
O3 O 0.42981(17) 0.32005(17) 0.60648(5) 0.0690(10) Uani 1 1 d . . . . .
O4 O 0.5000 0.2500 0.56721(11) 0.125(3) Uani 1 4 d S TU P . .
H4A H 0.4706 0.2793 0.5596 0.150 Uiso 0.25 1 d R U P . .
H4B H 0.5294 0.2207 0.5596 0.150 Uiso 0.25 1 d R U P . .
N1 N 0.0000 0.3189(3) 0.49722(10) 0.0664(16) Uani 1 2 d DS TU P . .
C1 C 0.0899(3) 0.4959(4) 0.53032(8) 0.0619(15) Uani 1 1 d . . . . .
C2 C 0.1375(3) 0.4863(3) 0.54919(8) 0.0683(17) Uani 1 1 d . . . . .
C3 C 0.1608(3) 0.4223(3) 0.55521(9) 0.117(3) Uani 1 1 d . . . . .
H3 H 0.1485 0.3840 0.5469 0.140 Uiso 1 1 calc R U . . .
C4 C 0.1562(3) 0.5417(3) 0.56174(10) 0.097(2) Uani 1 1 d . . . . .
H4 H 0.1411 0.5857 0.5581 0.116 Uiso 1 1 calc R U . . .
C5 C 0.2030(4) 0.4137(3) 0.57372(10) 0.136(3) Uani 1 1 d . . . . .
H5 H 0.2188 0.3700 0.5776 0.163 Uiso 1 1 calc R U . . .
C6 C 0.1979(3) 0.5320(3) 0.57998(9) 0.105(2) Uani 1 1 d . . . . .
H6 H 0.2104 0.5703 0.5883 0.126 Uiso 1 1 calc R U . . .
C7 C 0.2211(3) 0.4699(3) 0.58619(9) 0.096(2) Uani 1 1 d . . . . .
C8 C 0.2650(3) 0.4582(3) 0.60569(9) 0.088(2) Uani 1 1 d . . . . .
C9 C 0.2533(3) 0.4967(3) 0.6250 0.105(3) Uani 1 2 d S T P . .
H9 H 0.2193 0.5307 0.6250 0.127 Uiso 1 2 calc R U P . .
C10 C 0.3156(3) 0.4093(3) 0.60609(8) 0.0821(19) Uani 1 1 d . . . . .
H10 H 0.3249 0.3841 0.5934 0.099 Uiso 1 1 calc R U . . .
C11 C 0.3535(2) 0.3965(2) 0.6250 0.064(2) Uani 1 2 d S T P . .
C12 C 0.4078(3) 0.3422(3) 0.6250 0.065(2) Uani 1 2 d S T P . .
C13A C 0.0000 0.2870(6) 0.5166(2) 0.077(3) Uani 0.5 2 d DS TU P A 1
H13A H 0.0000 0.3119 0.5297 0.092 Uiso 0.5 2 calc R U P A 1
C13B C 0.0000 0.2891(7) 0.4761(2) 0.089(4) Uani 0.5 2 d DS TU P A 1
H13B H 0.0000 0.3152 0.4633 0.106 Uiso 0.5 2 calc R U P A 1
C13C C 0.0594(5) 0.2859(4) 0.49183(17) 0.086(3) Uani 0.5 1 d D U P A 2
H13C H 0.0989 0.3106 0.4882 0.104 Uiso 0.5 1 calc R U P A 2
loop_
_atom_site_aniso_label
_atom_site_aniso_U_11
_atom_site_aniso_U_22
_atom_site_aniso_U_33
_atom_site_aniso_U_23
_atom_site_aniso_U_13
_atom_site_aniso_U_12
Cu1 0.0671(6) 0.0435(5) 0.0350(4) 0.0018(4) 0.000 0.000
Cu2 0.0603(9) 0.0544(8) 0.0292(6) 0.000 0.000 0.000
O1 0.089(3) 0.054(2) 0.056(2) 0.002(2) -0.0246(19) 0.002(2)
O2 0.091(3) 0.059(2) 0.053(2) 0.0037(19) -0.0265(19) 0.004(2)
O3 0.092(3) 0.074(2) 0.0412(19) -0.0090(19) -0.005(2) 0.026(2)
O4 0.159(8) 0.168(8) 0.049(5) 0.000 0.000 0.000
N1 0.101(4) 0.030(3) 0.068(4) -0.011(3) 0.000 0.000
C1 0.072(4) 0.070(4) 0.044(3) -0.012(3) -0.007(3) -0.013(4)
C2 0.081(4) 0.062(4) 0.061(4) -0.008(3) -0.035(3) 0.028(3)
C3 0.167(7) 0.088(5) 0.096(5) -0.041(4) -0.090(5) 0.048(5)
C4 0.128(6) 0.066(5) 0.097(5) -0.021(4) -0.042(4) 0.027(4)
C5 0.195(8) 0.107(6) 0.106(5) -0.029(5) -0.098(5) 0.075(5)
C6 0.141(6) 0.086(5) 0.087(5) -0.036(4) -0.068(4) 0.038(5)
C7 0.136(6) 0.077(5) 0.076(4) -0.041(4) -0.055(4) 0.056(4)
C8 0.114(5) 0.087(5) 0.062(4) -0.029(3) -0.044(4) 0.052(4)
C9 0.112(5) 0.112(5) 0.092(7) -0.040(5) -0.040(5) 0.079(6)
C10 0.082(4) 0.104(5) 0.060(3) -0.034(3) -0.031(3) 0.048(4)
C11 0.065(3) 0.065(3) 0.062(5) -0.011(3) -0.011(3) 0.028(4)
C12 0.067(4) 0.067(4) 0.061(5) -0.008(3) -0.008(3) 0.009(4)
C13A 0.122(6) 0.032(5) 0.077(6) -0.004(5) 0.000 0.000
C13B 0.130(6) 0.049(5) 0.087(6) -0.006(5) 0.000 0.000
C13C 0.099(5) 0.035(4) 0.125(5) -0.006(4) 0.009(4) 0.000(4)
loop_
_atom_type_symbol
_atom_type_description
_atom_type_scat_dispersion_real
_atom_type_scat_dispersion_imag
_atom_type_scat_source
C C 0.0033 0.0016 'International Tables Vol C Tables 4.2.6.8 and 6.1.1.4'
H H 0.0000 0.0000 'International Tables Vol C Tables 4.2.6.8 and 6.1.1.4'
N N 0.0061 0.0033 'International Tables Vol C Tables 4.2.6.8 and 6.1.1.4'
O O 0.0106 0.0060 'International Tables Vol C Tables 4.2.6.8 and 6.1.1.4'
Cu Cu 0.3201 1.2651 'International Tables Vol C Tables 4.2.6.8 and 6.1.1.4'
loop_
_geom_angle_atom_site_label_1
_geom_angle_atom_site_label_2
_geom_angle_atom_site_label_3
_geom_angle
_geom_angle_site_symmetry_1
_geom_angle_site_symmetry_3
O1 Cu1 O1 88.7(2) 17_566 6_566
O1 Cu1 O2 167.58(13) 17_566 .
O1 Cu1 O2 89.97(13) 6_566 .
O1 Cu1 O2 89.98(13) 17_566 22
O1 Cu1 O2 167.57(13) 6_566 22
O2 Cu1 O2 88.7(2) . 22
O1 Cu1 N1 97.28(15) 17_566 .
O1 Cu1 N1 97.28(15) 6_566 .
O2 Cu1 N1 95.14(15) . .
O2 Cu1 N1 95.14(15) 22 .
O1 Cu1 Cu1 86.62(11) 17_566 17_566
O1 Cu1 Cu1 86.62(11) 6_566 17_566
O2 Cu1 Cu1 80.97(10) . 17_566
O2 Cu1 Cu1 80.97(10) 22 17_566
N1 Cu1 Cu1 174.52(16) . 17_566
O3 Cu2 O3 89.5(2) . 22_655
O3 Cu2 O3 89.3(2) . 29
O3 Cu2 O3 168.53(17) 22_655 29
O3 Cu2 O3 168.53(17) . 10_554
O3 Cu2 O3 89.3(2) 22_655 10_554
O3 Cu2 O3 89.5(2) 29 10_554
O3 Cu2 O4 95.74(9) . .
O3 Cu2 O4 95.74(9) 22_655 .
O3 Cu2 O4 95.74(9) 29 .
O3 Cu2 O4 95.74(9) 10_554 .
O3 Cu2 Cu2 84.26(9) . 27_566
O3 Cu2 Cu2 84.26(9) 22_655 27_566
O3 Cu2 Cu2 84.26(9) 29 27_566
O3 Cu2 Cu2 84.26(9) 10_554 27_566
O4 Cu2 Cu2 180.0 . 27_566
C1 O1 Cu1 122.0(3) . 17_566
C1 O2 Cu1 126.3(3) . .
C12 O3 Cu2 124.0(4) . .
Cu2 O4 H4A 120.0 . .
Cu2 O4 H4B 120.0 . .
H4A O4 H4B 120.0 . .
C13C N1 C13C 116.1(10) . 22
C13A N1 C13B 128.2(9) . .
C13A N1 Cu1 116.9(6) . .
C13C N1 Cu1 118.3(5) . .
C13C N1 Cu1 118.3(5) 22 .
C13B N1 Cu1 114.9(7) . .
O1 C1 O2 123.7(5) . .
O1 C1 C2 121.1(5) . .
O2 C1 C2 115.2(6) . .
C4 C2 C3 118.3(5) . .
C4 C2 C1 120.0(5) . .
C3 C2 C1 121.7(5) . .
C2 C3 C5 121.0(5) . .
C2 C3 H3 119.5 . .
C5 C3 H3 119.5 . .
C2 C4 C6 119.8(6) . .
C2 C4 H4 120.1 . .
C6 C4 H4 120.1 . .
C7 C5 C3 119.8(6) . .
C7 C5 H5 120.1 . .
C3 C5 H5 120.1 . .
C7 C6 C4 122.9(6) . .
C7 C6 H6 118.6 . .
C4 C6 H6 118.6 . .
C6 C7 C5 118.2(5) . .
C6 C7 C8 123.9(5) . .
C5 C7 C8 117.9(6) . .
C10 C8 C9 118.0(5) . .
C10 C8 C7 122.4(5) . .
C9 C8 C7 119.6(5) . .
C8 C9 C8 121.5(7) . 16
C8 C9 H9 119.3 . .
C8 C9 H9 119.3 16 .
C8 C10 C11 121.4(5) . .
C8 C10 H10 119.3 . .
C11 C10 H10 119.3 . .
C10 C11 C10 119.8(6) 16 .
C10 C11 C12 120.1(3) 16 .
C10 C11 C12 120.1(3) . .
O3 C12 O3 123.5(7) . 16
O3 C12 C11 118.3(3) . .
O3 C12 C11 118.3(3) 16 .
N1 C13A C13A 117.6(6) . 10_454
N1 C13A H13A 121.2 . .
C13A C13A H13A 121.2 10_454 .
N1 C13B C13B 114.2(6) . 10_454
N1 C13B H13B 122.9 . .
C13B C13B H13B 122.9 10_454 .
N1 C13C C13C 118.1(5) . 29
N1 C13C H13C 121.0 . .
C13C C13C H13C 121.0 29 .
loop_
_geom_bond_atom_site_label_1
_geom_bond_atom_site_label_2
_geom_bond_distance
_geom_bond_site_symmetry_2
Cu1 O1 1.947(3) 17_566
Cu1 O1 1.947(3) 6_566
Cu1 O2 1.976(3) .
Cu1 O2 1.976(3) 22
Cu1 N1 2.202(5) .
Cu1 Cu1 2.6341(16) 17_566
Cu2 O3 1.932(3) .
Cu2 O3 1.932(3) 22_655
Cu2 O3 1.932(3) 29
Cu2 O3 1.932(3) 10_554
Cu2 O4 2.196(7) .
Cu2 Cu2 2.639(2) 27_566
O1 C1 1.235(6) .
O1 Cu1 1.946(3) 17_566
O2 C1 1.271(5) .
O3 C12 1.279(4) .
O4 H4A 0.9300 .
O4 H4B 0.9300 .
N1 C13A 1.332(11) .
N1 C13C 1.357(9) .
N1 C13C 1.357(9) 22
N1 C13B 1.405(12) .
C1 C2 1.484(6) .
C2 C4 1.367(6) .
C2 C3 1.371(6) .
C3 C5 1.402(7) .
C3 H3 0.9300 .
C4 C6 1.385(6) .
C4 H4 0.9300 .
C5 C7 1.373(7) .
C5 H5 0.9300 .
C6 C7 1.340(7) .
C6 H6 0.9300 .
C7 C8 1.477(7) .
C8 C10 1.363(6) .
C8 C9 1.411(6) .
C9 C8 1.411(6) 16
C9 H9 0.9300 .
C10 C11 1.388(5) .
C10 H10 0.9300 .
C11 C10 1.388(5) 16
C11 C12 1.488(9) .
C12 O3 1.279(4) 16
C13A C13A 1.44(2) 10_454
C13A H13A 0.9300 .
C13B C13B 1.52(3) 10_454
C13B H13B 0.9300 .
C13C C13C 1.394(16) 29
C13C H13C 0.9300 .
