#------------------------------------------------------------------------------
#$Date: 2017-08-03 05:20:19 +0300 (Thu, 03 Aug 2017) $
#$Revision: 199484 $
#$URL: file:///home/coder/svn-repositories/cod/cif/7/04/38/7043895.cif $
#------------------------------------------------------------------------------
#
# This file is available in the Crystallography Open Database (COD),
# http://www.crystallography.net/
#
# All data on this site have been placed in the public domain by the
# contributors.
#
data_7043895
loop_
_publ_author_name
'Wang, Peng'
'Chen, Kai'
'Liu, Qing'
'Wang, Huai-Wei'
'Azam, Mohammad'
'Al-Resayes, Saud I'
'Lu, Yi'
'Sun, Wei-Yin'
_publ_section_title
;
 Fine tuning catalytic and sorption properties of metal-organic frameworks
 via in situ ligand exchange
;
_journal_name_full               'Dalton Trans.'
_journal_paper_doi               10.1039/C7DT02231J
_journal_year                    2017
_chemical_formula_moiety         'C50 H30 Cu3 N2 O13, 12(C3 H7 N O)'
_chemical_formula_sum            'C86 H114 Cu3 N14 O25'
_chemical_formula_weight         1934.53
_space_group_crystal_system      tetragonal
_space_group_IT_number           141
_space_group_name_Hall           '-I 4bd 2'
_space_group_name_H-M_alt        'I 41/a m d'
_symmetry_space_group_name_Hall  '-I 4bd 2'
_symmetry_space_group_name_H-M   'I 41/a m d :2'
_atom_sites_solution_hydrogens   geom
_audit_creation_method           SHELXL-2014/7
_audit_update_record
;
2017-07-15 deposited with the CCDC.
2017-08-02 downloaded from the CCDC.
;
_cell_angle_alpha                90
_cell_angle_beta                 90
_cell_angle_gamma                90
_cell_formula_units_Z            8
_cell_length_a                   19.730(4)
_cell_length_b                   19.730(4)
_cell_length_c                   60.060(10)
_cell_measurement_reflns_used    5236
_cell_measurement_temperature    296(2)
_cell_measurement_theta_max      19.41
_cell_measurement_theta_min      2.17
_cell_volume                     23380(8)
_computing_cell_refinement       'Bruker SAINT'
_computing_data_collection       'Bruker APEX2'
_computing_data_reduction        'Bruker SAINT'
_computing_molecular_graphics    'Bruker SHELXTL'
_computing_publication_material  'Bruker SHELXTL'
_computing_structure_refinement  'SHELXL-2014/7 (Sheldrick, 2014)'
_computing_structure_solution    'SHELXS-97 (Sheldrick 2008)'
_diffrn_ambient_temperature      296(2)
_diffrn_measured_fraction_theta_full 1.000
_diffrn_measured_fraction_theta_max 0.999
_diffrn_measurement_device_type  'Bruker APEX-II CCD'
_diffrn_measurement_method       '\f and \ scans'
_diffrn_radiation_type           MoK\a
_diffrn_radiation_wavelength     0.71073
_diffrn_reflns_av_R_equivalents  0.1490
_diffrn_reflns_av_unetI/netI     0.1021
_diffrn_reflns_Laue_measured_fraction_full 1.000
_diffrn_reflns_Laue_measured_fraction_max 0.999
_diffrn_reflns_limit_h_max       25
_diffrn_reflns_limit_h_min       -23
_diffrn_reflns_limit_k_max       17
_diffrn_reflns_limit_k_min       -25
_diffrn_reflns_limit_l_max       77
_diffrn_reflns_limit_l_min       -76
_diffrn_reflns_number            78053
_diffrn_reflns_point_group_measured_fraction_full 1.000
_diffrn_reflns_point_group_measured_fraction_max 0.999
_diffrn_reflns_theta_full        25.242
_diffrn_reflns_theta_max         27.505
_diffrn_reflns_theta_min         1.086
_diffrn_standards_number         0
_exptl_absorpt_coefficient_mu    0.605
_exptl_absorpt_correction_T_max  0.9176
_exptl_absorpt_correction_T_min  0.8121
_exptl_absorpt_correction_type   multi-scan
_exptl_absorpt_process_details   sadabs
_exptl_crystal_colour            green
_exptl_crystal_density_diffrn    1.099
_exptl_crystal_description       pillar
_exptl_crystal_F_000             8120
_exptl_crystal_size_max          0.400
_exptl_crystal_size_mid          0.400
_exptl_crystal_size_min          0.100
_refine_diff_density_max         0.414
_refine_diff_density_min         -0.399
_refine_diff_density_rms         0.063
_refine_ls_extinction_method     none
_refine_ls_goodness_of_fit_ref   1.020
_refine_ls_hydrogen_treatment    constr
_refine_ls_matrix_type           full
_refine_ls_number_parameters     168
_refine_ls_number_reflns         7116
_refine_ls_number_restraints     0
_refine_ls_restrained_S_all      1.020
_refine_ls_R_factor_all          0.0768
_refine_ls_R_factor_gt           0.0417
_refine_ls_shift/su_max          0.002
_refine_ls_shift/su_mean         0.000
_refine_ls_structure_factor_coef Fsqd
_refine_ls_weighting_details
'w=1/[\s^2^(Fo^2^)+(0.0587P)^2^] where P=(Fo^2^+2Fc^2^)/3'
_refine_ls_weighting_scheme      calc
_refine_ls_wR_factor_gt          0.1334
_refine_ls_wR_factor_ref         0.1468
_reflns_Friedel_coverage         0.000
_reflns_number_gt                3705
_reflns_number_total             7116
_reflns_threshold_expression     'I > 2\s(I)'
_cod_data_source_file            c7dt02231j2.cif
_cod_data_source_block           swy3
_cod_original_cell_volume        23380(10)
_cod_database_code               7043895
_shelx_shelxl_version_number     2014/7
_shelx_space_group_comment
;
The symmetry employed for this shelxl refinement is uniquely defined
by the following loop, which should always be used as a source of
symmetry information in preference to the above space-group names.
They are only intended as comments.
;
_shelx_estimated_absorpt_t_min   0.794
_shelx_estimated_absorpt_t_max   0.942
_shelx_res_file
;

    swy3.res created by SHELXL-2014/7


TITL swy3.res in I4(1)/amd
CELL 0.71073 19.730 19.730 60.06 90 90 90
ZERR 8 0.004 0.004 0.01 0 0 0
LATT 2
SYMM 0.5-X,-Y,0.5+Z
SYMM 0.25-Y,0.75+X,0.25+Z
SYMM 0.25+Y,0.25-X,0.75+Z
SYMM 0.5-X,+Y,0.5-Z
SYMM +X,-Y,-Z
SYMM 0.25+Y,0.75+X,0.25-Z
SYMM 0.25-Y,0.25-X,0.75-Z
SFAC C  H  N  O  Cu
UNIT 688  912  112  200  24
LIST 6 ! automatically inserted. Change 6 to 4 for CHECKCIF!!
L.S. 5 0  128
ACTA
BOND $H
FMAP 2
PLAN 20
size .4 .4 .1
temp 20
TEMP 23
ABIN
WGHT    0.058700
FVAR       0.08288
CU1   5    0.500000    0.566115    0.496795    10.50000    0.04017    0.02329 =
         0.02838   -0.00180    0.00000    0.00000
CU2   5    1.000000    0.750000    0.603048    10.25000    0.03383    0.03171 =
         0.02588    0.00000    0.00000    0.00000
O1    4    0.568865    0.567443    0.520514    11.00000    0.06318    0.03699 =
         0.04437    0.00364   -0.01829   -0.00466
O2    4    0.569029    0.455354    0.525522    11.00000    0.06008    0.03868 =
         0.04526    0.00088   -0.01650   -0.00606
O3    4    0.929884    0.680360    0.606558    11.00000    0.05414    0.05064 =
         0.03944    0.00663   -0.00583   -0.01873
O4    4    1.000000    0.750000    0.566338    10.25000    0.15214    0.11496 =
         0.04737    0.00000    0.00000    0.00000
AFIX  93
H4A   2    1.028963    0.778767    0.558596    10.25000   -1.20000
H4B   2    0.971037    0.721233    0.558596    10.25000   -1.20000
AFIX   0
N1    3    0.500000    0.678100    0.492402    10.50000    0.05786    0.02762 =
         0.03371   -0.00110    0.00000    0.00000
C1    1    0.588306    0.515226    0.530280    11.00000    0.04877    0.04347 =
         0.03239    0.00244   -0.00343   -0.00512
C2    1    0.636204    0.522906    0.549189    11.00000    0.05376    0.04083 =
         0.03936    0.00741   -0.01555   -0.01050
C3    1    0.656814    0.466454    0.560955    11.00000    0.08538    0.04734 =
         0.06192    0.00804   -0.03927   -0.01668
AFIX  43
H3    2    0.642708    0.423490    0.556585    11.00000   -1.20000
AFIX   0
C4    1    0.698678    0.474169    0.579331    11.00000    0.08596    0.04828 =
         0.07832    0.02307   -0.04266   -0.01717
AFIX  43
H4    2    0.711710    0.435954    0.587321    11.00000   -1.20000
AFIX   0
C5    1    0.721907    0.538045    0.586197    11.00000    0.06017    0.05159 =
         0.05849    0.01665   -0.02086   -0.02269
C6    1    0.702003    0.592938    0.573211    11.00000    0.09394    0.04666 =
         0.07021    0.02124   -0.04071   -0.02923
AFIX  43
H6    2    0.717468    0.636021    0.576906    11.00000   -1.20000
AFIX   0
C7    1    0.659951    0.585350    0.554991    11.00000    0.08972    0.04569 =
         0.05432    0.01595   -0.03726   -0.02186
AFIX  43
H7    2    0.647755    0.623094    0.546625    11.00000   -1.20000
AFIX   0
C8    1    0.765110    0.546957    0.606615    11.00000    0.06177    0.05580 =
         0.04610    0.01349   -0.02268   -0.02343
C9    1    0.757019    0.507019    0.625000    10.50000    0.06365    0.06365 =
         0.04586    0.02216   -0.02216   -0.02840
AFIX  43
H9    2    0.723687    0.473689    0.625000    10.50000   -1.20000
AFIX   0
C10   1    0.817002    0.595549    0.606670    11.00000    0.05944    0.05468 =
         0.04481    0.01795   -0.01129   -0.01830
AFIX  43
H10   2    0.824836    0.621079    0.593910    11.00000   -1.20000
AFIX   0
C11   1    0.856113    0.606113    0.625000    10.50000    0.04642    0.04642 =
         0.03838    0.01461   -0.01461   -0.01378
C12   1    0.909679    0.659679    0.625000    10.50000    0.04070    0.04070 =
         0.03697    0.01020   -0.01020   -0.00669
C13   1    0.500000    0.713308    0.510968    10.50000    0.10783    0.03146 =
         0.04465    0.00610    0.00000    0.00000
AFIX  43
H13   2    0.500000    0.690425    0.524506    10.50000   -1.20000
AFIX   0
C14   1    0.500000    0.713913    0.472660    10.50000    0.07490    0.03223 =
         0.04046    0.00093    0.00000    0.00000
C15   1    0.500000    0.678574    0.452384    10.50000    0.18430    0.03605 =
         0.03699   -0.01100    0.00000    0.00000
AFIX  43
H15   2    0.500000    0.631449    0.452034    10.50000   -1.20000
AFIX   0
C16   1    0.500000    0.714725    0.433662    10.50000    0.38951    0.04542 =
         0.02882    0.00309    0.00000    0.00000
AFIX  43
H16   2    0.500000    0.692014    0.420094    10.50000   -1.20000

AFIX   0
HKLF 4

REM  wpp_a.res in I4(1)/amd
REM R1 =  0.0417 for    3705 Fo > 4sig(Fo)  and  0.0768 for all    7116 data
REM    168 parameters refined using      0 restraints

END

WGHT      0.0704      0.0000

REM Highest difference peak  0.414,  deepest hole -0.399,  1-sigma level  0.063
Q1    1   1.0000  0.7500  0.6250  10.12500  0.05    0.41
Q2    1   0.9301  0.7500  0.5581  10.50000  0.05    0.40
Q3    1   0.6583  0.4707  0.5682  11.00000  0.05    0.37
Q4    1   0.7578  0.5276  0.6335  11.00000  0.05    0.34
Q5    1   0.7657  0.5327  0.5997  11.00000  0.05    0.33
Q6    1   0.6615  0.5935  0.5619  11.00000  0.05    0.33
Q7    1   0.8187  0.5934  0.6005  11.00000  0.05    0.29
Q8    1   0.7761  0.4863  0.6315  11.00000  0.05    0.27
Q9    1   0.8455  0.6001  0.6332  11.00000  0.05    0.26
Q10   1   0.9197  0.6782  0.5992  11.00000  0.05    0.26
Q11   1   0.6391  0.4974  0.5539  11.00000  0.05    0.26
Q12   1   0.6378  0.5468  0.5558  11.00000  0.05    0.25
Q13   1   1.0000  0.8085  0.6240  10.50000  0.05    0.25
Q14   1   0.7207  0.4892  0.6289  11.00000  0.05    0.24
Q15   1   0.8563  0.5809  0.6290  11.00000  0.05    0.23
Q16   1   0.6910  0.4861  0.5440  11.00000  0.05    0.23
Q17   1   0.7216  0.5520  0.5488  11.00000  0.05    0.23
Q18   1   0.9524  0.6478  0.6145  11.00000  0.05    0.21
Q19   1   0.5000  0.5867  0.4763  10.50000  0.05    0.21
Q20   1   0.6872  0.4940  0.6335  11.00000  0.05    0.21
;
_shelx_res_checksum              28893
_shelx_fab_file
;
    0    2    0   -154.42      0.00
    2    2    0    682.77      0.00
    0    4    0    436.45      0.00
    2    4    0   -131.26      0.00
    4    4    0    128.48      0.00
    0    6    0   -189.44      0.00
    2    6    0     25.00      0.00
    4    6    0    -52.28      0.00
    6    6    0     -6.74      0.00
    0    8    0     49.47      0.00
    2    8    0    -71.31      0.00
    4    8    0     -5.83      0.00
    6    8    0     -8.06      0.00
    8    8    0     -4.32      0.00
    0   10    0    -45.99      0.00
    2   10    0      7.21      0.00
    4   10    0    -13.19      0.00
    6   10    0      1.32      0.00
    8   10    0      9.55      0.00
   10   10    0     -0.88      0.00
    0   12    0     33.26      0.00
    2   12    0     -6.83      0.00
    4   12    0      9.52      0.00
    6   12    0      6.66      0.00
    8   12    0     -2.07      0.00
   10   12    0      6.20      0.00
   12   12    0      1.45      0.00
    0   14    0     -1.00      0.00
    2   14    0     18.26      0.00
    4   14    0      5.08      0.00
    6   14    0      4.08      0.00
    8   14    0     -3.17      0.00
   10   14    0      7.66      0.00
   12   14    0      9.27      0.00
   14   14    0     -2.37      0.00
    0   16    0     19.44      0.00
    2   16    0     -3.46      0.00
    4   16    0      3.56      0.00
    6   16    0      4.08      0.00
    8   16    0     -3.25      0.00
   10   16    0      2.93      0.00
   12   16    0     -3.26      0.00
   14   16    0      7.88      0.00
   16   16    0      8.00      0.00
    0   18    0     -3.94      0.00
    2   18    0      6.18      0.00
    4   18    0     -1.93      0.00
    6   18    0    -11.94      0.00
    8   18    0     -0.12      0.00
   10   18    0     -1.68      0.00
   12   18    0      9.66      0.00
   14   18    0      7.91      0.00
   16   18    0    -12.11      0.00
   18   18    0      1.90      0.00
    0   20    0      3.01      0.00
    2   20    0      5.24      0.00
    4   20    0     -6.41      0.00
    6   20    0      2.00      0.00
    8   20    0      9.94      0.00
   10   20    0     -6.58      0.00
   12   20    0      2.78      0.00
   14   20    0     12.24      0.00
   16   20    0    -14.04      0.00
    0   22    0     -4.97      0.00
    2   22    0     -9.34      0.00
    4   22    0     -3.06      0.00
    6   22    0     -5.02      0.00
    8   22    0     -3.67      0.00
   10   22    0     -8.46      0.00
   12   22    0     -5.89      0.00
    0   24    0      4.37      0.00
    2   24    0     -2.76      0.00
    4   24    0    -10.42      0.00
    6   24    0     -8.73      0.00
    8   24    0    -10.31      0.00
    0    1    1   -281.05      0.00
    1    2    1   -118.88      0.00
    0    3    1    -18.58      0.00
    2    3    1    199.42      0.00
    1    4    1     45.13      0.00
    3    4    1    -39.83      0.00
    0    5    1     81.00      0.00
    2    5    1    129.08      0.00
    4    5    1     32.27      0.00
    1    6    1    -15.06      0.00
    3    6    1     11.12      0.00
    5    6    1    -24.51      0.00
    0    7    1     47.08      0.00
    2    7    1     64.56      0.00
    4    7    1     15.01      0.00
    6    7    1      5.78      0.00
    1    8    1      9.94      0.00
    3    8    1     -4.01      0.00
    5    8    1      2.63      0.00
    7    8    1    -10.03      0.00
    0    9    1    -22.44      0.00
    2    9    1      8.33      0.00
    4    9    1    -15.77      0.00
    6    9    1     -1.47      0.00
    8    9    1     -3.01      0.00
    1   10    1    -10.43      0.00
    3   10    1      3.33      0.00
    5   10    1    -10.01      0.00
    7   10    1      0.26      0.00
    9   10    1      1.62      0.00
    0   11    1     -9.14      0.00
    2   11    1    -11.02      0.00
    4   11    1     -6.79      0.00
    6   11    1     -4.68      0.00
    8   11    1      1.06      0.00
   10   11    1     -2.76      0.00
    1   12    1      6.60      0.00
    3   12    1     -7.15      0.00
    5   12    1      2.64      0.00
    7   12    1      1.47      0.00
    9   12    1     -1.66      0.00
   11   12    1     -0.88      0.00
    0   13    1    -10.75      0.00
    2   13    1     -4.27      0.00
    4   13    1      0.35      0.00
    6   13    1     -0.84      0.00
    8   13    1      1.59      0.00
   10   13    1      3.07      0.00
   12   13    1      2.13      0.00
    1   14    1     -3.05      0.00
    3   14    1      1.43      0.00
    5   14    1     -4.77      0.00
    7   14    1      0.74      0.00
    9   14    1      1.06      0.00
   11   14    1      2.98      0.00
   13   14    1     -1.18      0.00
    0   15    1     -1.07      0.00
    2   15    1     -2.52      0.00
    4   15    1      0.72      0.00
    6   15    1      4.09      0.00
    8   15    1     -2.88      0.00
   10   15    1     -8.57      0.00
   12   15    1     -5.08      0.00
   14   15    1      2.87      0.00
    1   16    1     -7.05      0.00
    3   16    1     -4.02      0.00
    5   16    1     -0.72      0.00
    7   16    1     -2.65      0.00
    9   16    1     -3.02      0.00
   11   16    1     -1.00      0.00
   13   16    1      1.03      0.00
   15   16    1     -4.37      0.00
    0   17    1     -7.46      0.00
    2   17    1      8.90      0.00
    4   17    1      2.53      0.00
    6   17    1      1.16      0.00
    8   17    1     -6.57      0.00
   10   17    1     -7.44      0.00
   12   17    1      0.13      0.00
   14   17    1     -2.37      0.00
   16   17    1     -5.27      0.00
    1   18    1     -1.13      0.00
    3   18    1      0.77      0.00
    5   18    1     -2.68      0.00
    7   18    1     -3.30      0.00
    9   18    1     -2.11      0.00
   11   18    1      1.04      0.00
   13   18    1     -7.22      0.00
   15   18    1     -1.20      0.00
   17   18    1      0.61      0.00
    0   19    1      9.45      0.00
    2   19    1      0.42      0.00
    4   19    1      3.21      0.00
    6   19    1      4.96      0.00
    8   19    1      6.14      0.00
   10   19    1     -3.95      0.00
   12   19    1    -12.53      0.00
   14   19    1      2.62      0.00
   16   19    1      4.99      0.00
    1   20    1     -2.72      0.00
    3   20    1     -3.25      0.00
    5   20    1      2.81      0.00
    7   20    1     -1.16      0.00
    9   20    1      3.35      0.00
   11   20    1      2.79      0.00
   13   20    1     -0.17      0.00
   15   20    1     11.33      0.00
    0   21    1      3.79      0.00
    2   21    1      9.68      0.00
    4   21    1     15.63      0.00
    6   21    1     12.39      0.00
    8   21    1      1.02      0.00
   10   21    1      6.49      0.00
   12   21    1      6.41      0.00
   14   21    1      4.43      0.00
    1   22    1     13.35      0.00
    3   22    1     11.41      0.00
    5   22    1      1.73      0.00
    7   22    1      8.34      0.00
    9   22    1      4.29      0.00
   11   22    1      6.20      0.00
   13   22    1      5.72      0.00
    0   23    1     -7.76      0.00
    2   23    1      2.46      0.00
    4   23    1     -6.56      0.00
    6   23    1     -9.08      0.00
    8   23    1     -1.87      0.00
   10   23    1     -3.57      0.00
    1   24    1      1.56      0.00
    3   24    1      0.46      0.00
    5   24    1      0.44      0.00
    7   24    1     -4.73      0.00
    0   25    1     -0.45      0.00
    2   25    1      2.32      0.00
    4   25    1      8.36      0.00
    1    1    2   -310.97      0.00
    0    2    2   -288.50      0.00
    1    3    2     19.51      0.00
    3    3    2     98.17      0.00
    0    4    2      2.67      0.00
    2    4    2   -108.19      0.00
    1    5    2     18.21      0.00
    3    5    2    -21.86      0.00
    5    5    2     19.72      0.00
    0    6    2    -32.61      0.00
    2    6    2     29.76      0.00
    4    6    2     22.75      0.00
    1    7    2     32.91      0.00
    3    7    2     -6.17      0.00
    5    7    2     -8.79      0.00
    7    7    2     -2.75      0.00
    0    8    2     56.85      0.00
    2    8    2      7.62      0.00
    4    8    2     23.97      0.00
    6    8    2     10.43      0.00
    1    9    2    -12.79      0.00
    3    9    2     -2.12      0.00
    5    9    2     -5.32      0.00
    7    9    2     -7.04      0.00
    9    9    2     -2.46      0.00
    0   10    2    -14.39      0.00
    2   10    2     16.21      0.00
    4   10    2      3.22      0.00
    6   10    2     -8.96      0.00
    8   10    2      3.33      0.00
    1   11    2     -5.87      0.00
    3   11    2     -3.45      0.00
    5   11    2     -3.31      0.00
    7   11    2     -0.91      0.00
    9   11    2      0.63      0.00
   11   11    2     -0.68      0.00
    0   12    2      3.69      0.00
    2   12    2     -7.06      0.00
    4   12    2      2.12      0.00
    6   12    2      2.22      0.00
    8   12    2     -4.74      0.00
   10   12    2      1.83      0.00
    1   13    2     -6.07      0.00
    3   13    2     -4.16      0.00
    5   13    2     -5.77      0.00
    7   13    2     -0.06      0.00
    9   13    2     -1.51      0.00
   11   13    2      2.43      0.00
   13   13    2     -1.51      0.00
    0   14    2    -14.72      0.00
    2   14    2     -0.97      0.00
    4   14    2     -8.99      0.00
    6   14    2     -2.88      0.00
    8   14    2     -1.82      0.00
   10   14    2     -2.69      0.00
   12   14    2      1.39      0.00
    1   15    2      1.39      0.00
    3   15    2      2.68      0.00
    5   15    2      3.05      0.00
    7   15    2      2.37      0.00
    9   15    2      2.45      0.00
   11   15    2     -3.84      0.00
   13   15    2      2.64      0.00
   15   15    2      0.78      0.00
    0   16    2      6.60      0.00
    2   16    2     -1.04      0.00
    4   16    2     -3.54      0.00
    6   16    2     11.06      0.00
    8   16    2      5.00      0.00
   10   16    2      2.90      0.00
   12   16    2     -2.57      0.00
   14   16    2      0.70      0.00
    1   17    2     -0.27      0.00
    3   17    2      3.10      0.00
    5   17    2     -2.62      0.00
    7   17    2     -4.55      0.00
    9   17    2     -3.14      0.00
   11   17    2      3.00      0.00
   13   17    2      3.05      0.00
   15   17    2     -4.49      0.00
   17   17    2     -5.52      0.00
    0   18    2     -1.70      0.00
    2   18    2      2.72      0.00
    4   18    2     -8.66      0.00
    6   18    2     -2.17      0.00
    8   18    2      0.49      0.00
   10   18    2      1.42      0.00
   12   18    2     -0.29      0.00
   14   18    2     10.71      0.00
   16   18    2     -0.28      0.00
    1   19    2     -5.24      0.00
    3   19    2      2.20      0.00
    5   19    2     -4.01      0.00
    7   19    2      4.46      0.00
    9   19    2      2.18      0.00
   11   19    2      2.71      0.00
   13   19    2     -0.74      0.00
   15   19    2      3.65      0.00
   17   19    2     -0.70      0.00
    0   20    2     -1.65      0.00
    2   20    2     -0.62      0.00
    4   20    2      5.91      0.00
    6   20    2      4.97      0.00
    8   20    2     -1.99      0.00
   10   20    2      4.88      0.00
   12   20    2      4.51      0.00
   14   20    2     -1.42      0.00
   16   20    2     -1.47      0.00
    1   21    2     -4.59      0.00
    3   21    2     -2.04      0.00
    5   21    2      6.81      0.00
    7   21    2     -3.30      0.00
    9   21    2      3.88      0.00
   11   21    2     -7.48      0.00
   13   21    2     -7.17      0.00
    0   22    2     -4.58      0.00
    2   22    2     -1.34      0.00
    4   22    2    -10.10      0.00
    6   22    2      3.30      0.00
    8   22    2     -0.72      0.00
   10   22    2      6.34      0.00
   12   22    2     -1.26      0.00
    1   23    2      3.93      0.00
    3   23    2     -1.86      0.00
    5   23    2      7.05      0.00
    7   23    2      1.31      0.00
    9   23    2      4.36      0.00
   11   23    2     11.61      0.00
    0   24    2     -4.87      0.00
    2   24    2     -8.65      0.00
    4   24    2      7.62      0.00
    6   24    2      7.93      0.00
    8   24    2      1.25      0.00
    1   25    2     -0.05      0.00
    3   25    2      6.38      0.00
    5   25    2     -2.44      0.00
    0    1    3    513.08      0.00
    1    2    3   -184.08      0.00
    0    3    3    117.19      0.00
    2    3    3    -55.39      0.00
    1    4    3     62.68      0.00
    3    4    3    -25.77      0.00
    0    5    3    -84.26      0.00
    2    5    3    -78.88      0.00
    4    5    3     -4.10      0.00
    1    6    3    -10.70      0.00
    3    6    3     35.31      0.00
    5    6    3      0.05      0.00
    0    7    3     21.71      0.00
    2    7    3    -51.61      0.00
    4    7    3     12.73      0.00
    6    7    3     -1.54      0.00
    1    8    3      5.02      0.00
    3    8    3     -6.93      0.00
    5    8    3      2.56      0.00
    7    8    3      3.49      0.00
    0    9    3    -22.88      0.00
    2    9    3     18.95      0.00
    4    9    3      5.93      0.00
    6    9    3     16.10      0.00
    8    9    3      2.80      0.00
    1   10    3      1.13      0.00
    3   10    3     17.22      0.00
    5   10    3     -2.26      0.00
    7   10    3      0.74      0.00
    9   10    3      0.80      0.00
    0   11    3     31.72      0.00
    2   11    3     -1.66      0.00
    4   11    3     14.60      0.00
    6   11    3      4.04      0.00
    8   11    3      3.80      0.00
   10   11    3      3.26      0.00
    1   12    3      5.40      0.00
    3   12    3     -3.51      0.00
    5   12    3      3.40      0.00
    7   12    3     -1.06      0.00
    9   12    3     -2.66      0.00
   11   12    3     -0.96      0.00
    0   13    3    -10.43      0.00
    2   13    3     -0.92      0.00
    4   13    3     -4.15      0.00
    6   13    3     -1.36      0.00
    8   13    3     -1.50      0.00
   10   13    3     -1.53      0.00
   12   13    3      1.88      0.00
    1   14    3     -0.76      0.00
    3   14    3      2.41      0.00
    5   14    3     -0.92      0.00
    7   14    3     -1.50      0.00
    9   14    3      2.21      0.00
   11   14    3     -5.29      0.00
   13   14    3     -6.60      0.00
    0   15    3     -4.45      0.00
    2   15    3     -3.44      0.00
    4   15    3      3.09      0.00
    6   15    3      2.82      0.00
    8   15    3     -2.75      0.00
   10   15    3      3.56      0.00
   12   15    3     -4.07      0.00
   14   15    3     -7.70      0.00
    1   16    3     -0.11      0.00
    3   16    3      0.42      0.00
    5   16    3     -1.49      0.00
    7   16    3      0.65      0.00
    9   16    3     -0.23      0.00
   11   16    3      0.70      0.00
   13   16    3      0.46      0.00
   15   16    3      2.04      0.00
    0   17    3     -9.97      0.00
    2   17    3      4.35      0.00
    4   17    3     -5.73      0.00
    6   17    3     -3.58      0.00
    8   17    3     -4.60      0.00
   10   17    3     -1.42      0.00
   12   17    3     -0.20      0.00
   14   17    3     -8.90      0.00
   16   17    3      4.79      0.00
    1   18    3     -5.87      0.00
    3   18    3     -4.20      0.00
    5   18    3      8.55      0.00
    7   18    3     -6.10      0.00
    9   18    3     -0.97      0.00
   11   18    3     -4.13      0.00
   13   18    3     -4.29      0.00
   15   18    3      3.16      0.00
   17   18    3      0.66      0.00
    0   19    3      1.23      0.00
    2   19    3    -13.21      0.00
    4   19    3      9.28      0.00
    6   19    3      0.78      0.00
    8   19    3     -2.91      0.00
   10   19    3      8.97      0.00
   12   19    3      4.95      0.00
   14   19    3      1.58      0.00
   16   19    3      2.97      0.00
    1   20    3     -4.26      0.00
    3   20    3     -9.93      0.00
    5   20    3     -6.68      0.00
    7   20    3     -3.24      0.00
    9   20    3      1.03      0.00
   11   20    3      0.74      0.00
   13   20    3      1.66      0.00
   15   20    3      5.62      0.00
    0   21    3      2.31      0.00
    2   21    3     10.93      0.00
    4   21    3     -1.97      0.00
    6   21    3      9.31      0.00
    8   21    3     13.19      0.00
   10   21    3     -4.15      0.00
   12   21    3      0.37      0.00
   14   21    3      1.90      0.00
    1   22    3      0.49      0.00
    3   22    3      3.90      0.00
    5   22    3     -2.87      0.00
    7   22    3     -8.02      0.00
    9   22    3     -6.78      0.00
   11   22    3    -14.97      0.00
   13   22    3     -4.87      0.00
    0   23    3     -4.26      0.00
    2   23    3    -15.64      0.00
    4   23    3     -0.04      0.00
    6   23    3     -2.84      0.00
    8   23    3     -5.40      0.00
   10   23    3    -18.27      0.00
    1   24    3     11.44      0.00
    3   24    3      3.02      0.00
    5   24    3      3.80      0.00
    7   24    3      0.98      0.00
    0   25    3     -1.06      0.00
    2   25    3    -10.55      0.00
    4   25    3    -10.86      0.00
    0    0    4    336.74      0.00
    0    2    4    320.98      0.00
    2    2    4   -253.82      0.00
    1    3    4    -51.59      0.00
    0    4    4     27.97      0.00
    2    4    4     57.60      0.00
    4    4    4    -55.90      0.00
    1    5    4    -20.00      0.00
    3    5    4    -36.28      0.00
    0    6    4     44.56      0.00
    2    6    4    -27.87      0.00
    4    6    4      7.23      0.00
    6    6    4    -28.98      0.00
    1    7    4      2.08      0.00
    3    7    4      7.19      0.00
    5    7    4      5.80      0.00
    0    8    4    -32.07      0.00
    2    8    4    -15.37      0.00
    4    8    4    -19.66      0.00
    6    8    4      4.36      0.00
    8    8    4    -13.84      0.00
    1    9    4     -4.11      0.00
    3    9    4     -7.38      0.00
    5    9    4     -0.28      0.00
    7    9    4      2.34      0.00
    0   10    4     -4.65      0.00
    2   10    4     -3.38      0.00
    4   10    4      2.67      0.00
    6   10    4      0.12      0.00
    8   10    4      3.44      0.00
   10   10    4     -3.48      0.00
    1   11    4     11.33      0.00
    3   11    4      6.72      0.00
    5   11    4      7.02      0.00
    7   11    4      1.37      0.00
    9   11    4      7.66      0.00
    0   12    4      5.32      0.00
    2   12    4      1.28      0.00
    4   12    4      4.45      0.00
    6   12    4      7.59      0.00
    8   12    4     -4.23      0.00
   10   12    4     -0.60      0.00
   12   12    4      2.53      0.00
    1   13    4      3.39      0.00
    3   13    4      6.88      0.00
    5   13    4     -2.12      0.00
    7   13    4     -3.12      0.00
    9   13    4      5.33      0.00
   11   13    4      2.74      0.00
    0   14    4      8.75      0.00
    2   14    4      2.18      0.00
    4   14    4     10.35      0.00
    6   14    4     -1.74      0.00
    8   14    4      1.49      0.00
   10   14    4      2.02      0.00
   12   14    4      0.86      0.00
   14   14    4      0.12      0.00
    1   15    4      4.05      0.00
    3   15    4    -20.02      0.00
    5   15    4     -4.94      0.00
    7   15    4     -0.58      0.00
    9   15    4      5.30      0.00
   11   15    4     -1.62      0.00
   13   15    4     -0.34      0.00
    0   16    4      5.71      0.00
    2   16    4      5.00      0.00
    4   16    4     -1.89      0.00
    6   16    4      2.33      0.00
    8   16    4     -1.92      0.00
   10   16    4      1.60      0.00
   12   16    4      1.83      0.00
   14   16    4     -0.43      0.00
   16   16    4     -1.62      0.00
    1   17    4     -2.60      0.00
    3   17    4     -8.66      0.00
    5   17    4    -11.98      0.00
    7   17    4     -8.55      0.00
    9   17    4      1.27      0.00
   11   17    4      7.43      0.00
   13   17    4     18.05      0.00
   15   17    4     -0.92      0.00
    0   18    4     -4.33      0.00
    2   18    4      4.00      0.00
    4   18    4      4.72      0.00
    6   18    4     -3.45      0.00
    8   18    4      2.03      0.00
   10   18    4      4.13      0.00
   12   18    4      0.59      0.00
   14   18    4      7.80      0.00
   16   18    4     -6.90      0.00
   18   18    4      7.17      0.00
    1   19    4      6.97      0.00
    3   19    4      3.34      0.00
    5   19    4     -2.17      0.00
    7   19    4      5.99      0.00
    9   19    4     12.63      0.00
   11   19    4      6.34      0.00
   13   19    4      6.31      0.00
   15   19    4      0.71      0.00
   17   19    4     -3.12      0.00
    0   20    4      1.95      0.00
    2   20    4     -1.90      0.00
    4   20    4     -0.14      0.00
    6   20    4      0.38      0.00
    8   20    4      2.44      0.00
   10   20    4     -5.07      0.00
   12   20    4     -8.88      0.00
   14   20    4    -16.65      0.00
    1   21    4     -0.11      0.00
    3   21    4     -1.53      0.00
    5   21    4      1.74      0.00
    7   21    4    -10.69      0.00
    9   21    4    -12.67      0.00
   11   21    4      9.85      0.00
   13   21    4     -5.96      0.00
    0   22    4     -4.05      0.00
    2   22    4      5.15      0.00
    4   22    4     10.78      0.00
    6   22    4     12.93      0.00
    8   22    4      1.96      0.00
   10   22    4      6.19      0.00
   12   22    4     12.91      0.00
    1   23    4     -5.96      0.00
    3   23    4     -2.27      0.00
    5   23    4     -3.85      0.00
    7   23    4      7.75      0.00
    9   23    4     -4.51      0.00
   11   23    4     -7.76      0.00
    0   24    4      1.01      0.00
    2   24    4     -5.62      0.00
    4   24    4     -9.77      0.00
    6   24    4     -9.36      0.00
    8   24    4      0.21      0.00
    1   25    4     -0.31      0.00
    3   25    4      2.17      0.00
    5   25    4      9.43      0.00
    0    1    5   -229.96      0.00
    1    2    5     88.41      0.00
    0    3    5     76.20      0.00
    2    3    5     55.48      0.00
    1    4    5    -52.25      0.00
    3    4    5     59.96      0.00
    0    5    5   -120.80      0.00
    2    5    5     69.45      0.00
    4    5    5      0.07      0.00
    1    6    5     39.46      0.00
    3    6    5      0.81      0.00
    5    6    5      2.35      0.00
    0    7    5    -13.01      0.00
    2    7    5      0.99      0.00
    4    7    5     -2.66      0.00
    6    7    5     -3.98      0.00
    1    8    5     -6.22      0.00
    3    8    5    -10.16      0.00
    5    8    5      5.91      0.00
    7    8    5     16.83      0.00
    0    9    5    -41.89      0.00
    2    9    5      1.47      0.00
    4    9    5    -19.49      0.00
    6    9    5     -6.66      0.00
    8    9    5      1.59      0.00
    1   10    5     -8.63      0.00
    3   10    5     -0.83      0.00
    5   10    5     -2.52      0.00
    7   10    5     -1.50      0.00
    9   10    5     10.83      0.00
    0   11    5      9.59      0.00
    2   11    5    -20.95      0.00
    4   11    5     -6.09      0.00
    6   11    5     -6.53      0.00
    8   11    5    -11.69      0.00
   10   11    5     -1.18      0.00
    1   12    5     -3.75      0.00
    3   12    5     -9.62      0.00
    5   12    5     -1.86      0.00
    7   12    5     -0.38      0.00
    9   12    5     -2.26      0.00
   11   12    5      3.12      0.00
    0   13    5    -18.23      0.00
    2   13    5      4.36      0.00
    4   13    5     -4.27      0.00
    6   13    5      1.04      0.00
    8   13    5     -1.44      0.00
   10   13    5     -5.05      0.00
   12   13    5     -0.83      0.00
    1   14    5     -6.73      0.00
    3   14    5      5.29      0.00
    5   14    5      1.10      0.00
    7   14    5      0.12      0.00
    9   14    5     -1.18      0.00
   11   14    5     -5.68      0.00
   13   14    5     -8.71      0.00
    0   15    5      3.85      0.00
    2   15    5     -1.19      0.00
    4   15    5      4.40      0.00
    6   15    5      5.89      0.00
    8   15    5      0.00      0.00
   10   15    5      4.73      0.00
   12   15    5      8.26      0.00
   14   15    5      5.71      0.00
    1   16    5      3.50      0.00
    3   16    5     -0.76      0.00
    5   16    5      2.03      0.00
    7   16    5      1.79      0.00
    9   16    5     -3.78      0.00
   11   16    5     -0.47      0.00
   13   16    5     -0.46      0.00
   15   16    5     -5.50      0.00
    0   17    5     -5.65      0.00
    2   17    5      7.88      0.00
    4   17    5      1.84      0.00
    6   17    5      3.60      0.00
    8   17    5      6.39      0.00
   10   17    5      1.15      0.00
   12   17    5     -0.08      0.00
   14   17    5     -2.40      0.00
   16   17    5      3.31      0.00
    1   18    5      9.23      0.00
    3   18    5     11.22      0.00
    5   18    5      9.42      0.00
    7   18    5      2.57      0.00
    9   18    5     -0.55      0.00
   11   18    5     -0.86      0.00
   13   18    5     -3.49      0.00
   15   18    5      5.21      0.00
   17   18    5      0.79      0.00
    0   19    5      7.28      0.00
    2   19    5     -6.44      0.00
    4   19    5     -4.56      0.00
    6   19    5      3.28      0.00
    8   19    5     -2.63      0.00
   10   19    5     -3.22      0.00
   12   19    5      1.85      0.00
   14   19    5     -0.60      0.00
   16   19    5      2.52      0.00
    1   20    5      8.39      0.00
    3   20    5      7.68      0.00
    5   20    5     -1.33      0.00
    7   20    5     10.75      0.00
    9   20    5     -7.92      0.00
   11   20    5      3.85      0.00
   13   20    5     -1.18      0.00
   15   20    5      0.73      0.00
    0   21    5      0.25      0.00
    2   21    5     13.15      0.00
    4   21    5      0.02      0.00
    6   21    5     -5.50      0.00
    8   21    5      4.18      0.00
   10   21    5     -4.71      0.00
   12   21    5     -5.97      0.00
   14   21    5      8.13      0.00
    1   22    5     -8.55      0.00
    3   22    5     -1.03      0.00
    5   22    5     -1.77      0.00
    7   22    5     -0.06      0.00
    9   22    5     -3.83      0.00
   11   22    5     -7.26      0.00
   13   22    5     11.40      0.00
    0   23    5     15.78      0.00
    2   23    5      3.40      0.00
    4   23    5      7.50      0.00
    6   23    5     -0.06      0.00
    8   23    5     -0.35      0.00
   10   23    5      7.44      0.00
    1   24    5      0.79      0.00
    3   24    5     -5.99      0.00
    5   24    5      7.64      0.00
    7   24    5      4.75      0.00
    0   25    5     -5.92      0.00
    2   25    5     -3.76      0.00
    4   25    5      6.72      0.00
    1    1    6    136.23      0.00
    0    2    6   -267.99      0.00
    1    3    6    102.62      0.00
    3    3    6    196.03      0.00
    0    4    6    -88.80      0.00
    2    4    6   -121.55      0.00
    1    5    6     71.73      0.00
    3    5    6     -2.91      0.00
    5    5    6     25.79      0.00
    0    6    6    -31.25      0.00
    2    6    6     17.43      0.00
    4    6    6      2.44      0.00
    1    7    6     25.58      0.00
    3    7    6     11.17      0.00
    5    7    6      6.27      0.00
    7    7    6     -1.15      0.00
    0    8    6     35.77      0.00
    2    8    6     -0.87      0.00
    4    8    6     11.97      0.00
    6    8    6     -2.85      0.00
    1    9    6      8.78      0.00
    3    9    6      6.98      0.00
    5    9    6      2.06      0.00
    7    9    6      6.62      0.00
    9    9    6     -1.08      0.00
    0   10    6      2.67      0.00
    2   10    6     12.23      0.00
    4   10    6     -3.61      0.00
    6   10    6     -6.49      0.00
    8   10    6     -1.45      0.00
    1   11    6     -1.29      0.00
    3   11    6     -1.94      0.00
    5   11    6     -2.36      0.00
    7   11    6     -3.23      0.00
    9   11    6      0.94      0.00
   11   11    6     -6.46      0.00
    0   12    6     -8.90      0.00
    2   12    6     -2.01      0.00
    4   12    6     -7.17      0.00
    6   12    6      0.56      0.00
    8   12    6      0.23      0.00
   10   12    6     -0.37      0.00
    1   13    6     -6.66      0.00
    3   13    6      5.07      0.00
    5   13    6     -3.92      0.00
    7   13    6      1.61      0.00
    9   13    6     -2.33      0.00
   11   13    6     -5.05      0.00
   13   13    6      0.18      0.00
    0   14    6     -2.10      0.00
    2   14    6    -12.01      0.00
    4   14    6     -1.95      0.00
    6   14    6     -0.99      0.00
    8   14    6      6.23      0.00
   10   14    6      0.33      0.00
   12   14    6      3.04      0.00
    1   15    6      2.75      0.00
    3   15    6     -0.53      0.00
    5   15    6      0.58      0.00
    7   15    6      3.42      0.00
    9   15    6      0.69      0.00
   11   15    6     -2.45      0.00
   13   15    6     -2.95      0.00
   15   15    6     -6.45      0.00
    0   16    6     -8.00      0.00
    2   16    6      2.99      0.00
    4   16    6     -5.66      0.00
    6   16    6      0.29      0.00
    8   16    6     -2.22      0.00
   10   16    6     -3.43      0.00
   12   16    6     -2.88      0.00
   14   16    6      1.64      0.00
    1   17    6      4.27      0.00
    3   17    6      4.84      0.00
    5   17    6      2.64      0.00
    7   17    6      9.09      0.00
    9   17    6      8.26      0.00
   11   17    6     -0.35      0.00
   13   17    6     -0.70      0.00
   15   17    6     10.03      0.00
   17   17    6      2.63      0.00
    0   18    6     -1.00      0.00
    2   18    6      1.70      0.00
    4   18    6     -6.95      0.00
    6   18    6      5.16      0.00
    8   18    6     10.65      0.00
   10   18    6      1.21      0.00
   12   18    6     -0.68      0.00
   14   18    6     -3.02      0.00
   16   18    6      2.82      0.00
    1   19    6      1.94      0.00
    3   19    6     -0.80      0.00
    5   19    6      8.36      0.00
    7   19    6      6.87      0.00
    9   19    6     -0.14      0.00
   11   19    6     -1.24      0.00
   13   19    6     -4.26      0.00
   15   19    6     -9.88      0.00
   17   19    6     -2.04      0.00
    0   20    6     -6.47      0.00
    2   20    6      2.87      0.00
    4   20    6      1.66      0.00
    6   20    6     -1.56      0.00
    8   20    6    -10.80      0.00
   10   20    6      5.15      0.00
   12   20    6      2.13      0.00
   14   20    6     -4.87      0.00
    1   21    6     -0.07      0.00
    3   21    6      1.07      0.00
    5   21    6     -1.67      0.00
    7   21    6     -1.99      0.00
    9   21    6     -0.95      0.00
   11   21    6      4.13      0.00
   13   21    6      0.98      0.00
    0   22    6     -2.62      0.00
    2   22    6     -5.50      0.00
    4   22    6      0.71      0.00
    6   22    6      2.36      0.00
    8   22    6     -0.33      0.00
   10   22    6      9.61      0.00
   12   22    6     10.68      0.00
    1   23    6     -2.44      0.00
    3   23    6     -7.68      0.00
    5   23    6     -0.68      0.00
    7   23    6     -5.21      0.00
    9   23    6      5.05      0.00
   11   23    6     -7.57      0.00
    0   24    6      1.39      0.00
    2   24    6      5.91      0.00
    4   24    6      5.14      0.00
    6   24    6      4.24      0.00
    8   24    6    -10.60      0.00
    1   25    6      5.33      0.00
    3   25    6     12.43      0.00
    5   25    6     12.17      0.00
    0    1    7   -163.28      0.00
    1    2    7     21.87      0.00
    0    3    7   -177.62      0.00
    2    3    7   -282.48      0.00
    1    4    7    -28.94      0.00
    3    4    7    -25.72      0.00
    0    5    7    -23.68      0.00
    2    5    7    -75.14      0.00
    4    5    7    -30.88      0.00
    1    6    7     -2.14      0.00
    3    6    7      2.56      0.00
    5    6    7     -5.95      0.00
    0    7    7    -19.61      0.00
    2    7    7    -24.71      0.00
    4    7    7     -3.97      0.00
    6    7    7      3.17      0.00
    1    8    7      9.31      0.00
    3    8    7      6.63      0.00
    5    8    7      3.26      0.00
    7    8    7      2.35      0.00
    0    9    7      1.85      0.00
    2    9    7      3.49      0.00
    4    9    7      2.91      0.00
    6    9    7     -1.94      0.00
    8    9    7      4.62      0.00
    1   10    7     15.08      0.00
    3   10    7     15.90      0.00
    5   10    7      2.01      0.00
    7   10    7      0.09      0.00
    9   10    7      3.06      0.00
    0   11    7     16.44      0.00
    2   11    7      7.39      0.00
    4   11    7      1.11      0.00
    6   11    7      1.39      0.00
    8   11    7     -4.64      0.00
   10   11    7      3.37      0.00
    1   12    7      5.85      0.00
    3   12    7     -2.33      0.00
    5   12    7     -4.70      0.00
    7   12    7     -0.18      0.00
    9   12    7     -5.08      0.00
   11   12    7      3.82      0.00
    0   13    7     -1.86      0.00
    2   13    7      5.47      0.00
    4   13    7      1.90      0.00
    6   13    7      1.32      0.00
    8   13    7      3.35      0.00
   10   13    7      1.16      0.00
   12   13    7     -2.93      0.00
    1   14    7      0.13      0.00
    3   14    7      5.55      0.00
    5   14    7      1.94      0.00
    7   14    7     -7.63      0.00
    9   14    7      5.02      0.00
   11   14    7      3.26      0.00
   13   14    7      0.08      0.00
    0   15    7      5.24      0.00
    2   15    7      1.89      0.00
    4   15    7      2.14      0.00
    6   15    7     -0.58      0.00
    8   15    7     -2.68      0.00
   10   15    7     -2.75      0.00
   12   15    7     -0.68      0.00
   14   15    7     -7.92      0.00
    1   16    7     -2.57      0.00
    3   16    7    -11.87      0.00
    5   16    7     -4.18      0.00
    7   16    7     -5.02      0.00
    9   16    7     -0.47      0.00
   11   16    7      2.49      0.00
   13   16    7    -10.71      0.00
   15   16    7     -3.55      0.00
    0   17    7    -13.68      0.00
    2   17    7      4.99      0.00
    4   17    7      2.22      0.00
    6   17    7      0.56      0.00
    8   17    7     -0.24      0.00
   10   17    7     -2.10      0.00
   12   17    7     -3.34      0.00
   14   17    7    -11.13      0.00
   16   17    7      2.17      0.00
    1   18    7     -8.85      0.00
    3   18    7    -10.47      0.00
    5   18    7     -1.69      0.00
    7   18    7     -8.33      0.00
    9   18    7     -0.72      0.00
   11   18    7    -12.67      0.00
   13   18    7     -0.32      0.00
   15   18    7     -0.21      0.00
   17   18    7    -14.15      0.00
    0   19    7     -0.16      0.00
    2   19    7     -8.10      0.00
    4   19    7     -7.12      0.00
    6   19    7     -2.90      0.00
    8   19    7     -0.74      0.00
   10   19    7      1.82      0.00
   12   19    7     -0.05      0.00
   14   19    7     -8.00      0.00
   16   19    7     -8.36      0.00
    1   20    7      2.89      0.00
    3   20    7     -1.58      0.00
    5   20    7     -5.28      0.00
    7   20    7     -0.24      0.00
    9   20    7      4.73      0.00
   11   20    7     -5.89      0.00
   13   20    7      7.35      0.00
   15   20    7      6.10      0.00
    0   21    7      1.40      0.00
    2   21    7     -9.77      0.00
    4   21    7     -6.31      0.00
    6   21    7     -4.80      0.00
    8   21    7      5.01      0.00
   10   21    7      1.95      0.00
   12   21    7      2.52      0.00
   14   21    7     -4.28      0.00
    1   22    7     -0.21      0.00
    3   22    7      0.92      0.00
    5   22    7     -2.44      0.00
    7   22    7    -11.11      0.00
    9   22    7     -6.99      0.00
   11   22    7      0.40      0.00
    0   23    7     -0.98      0.00
    2   23    7      1.60      0.00
    4   23    7      3.42      0.00
    6   23    7     -3.64      0.00
    8   23    7     -1.14      0.00
   10   23    7      7.63      0.00
    1   24    7     -2.49      0.00
    3   24    7     -3.62      0.00
    5   24    7     -3.53      0.00
    7   24    7     -3.46      0.00
    0   25    7      7.30      0.00
    2   25    7    -12.64      0.00
    4   25    7    -12.95      0.00
    0    0    8    503.55      0.00
    0    2    8    117.40      0.00
    2    2    8    119.46      0.00
    1    3    8      4.59      0.00
    0    4    8     79.74      0.00
    2    4    8    -67.85      0.00
    4    4    8    -10.45      0.00
    1    5    8      2.82      0.00
    3    5    8     -1.61      0.00
    0    6    8     17.46      0.00
    2    6    8     -7.69      0.00
    4    6    8    -13.62      0.00
    6    6    8      3.22      0.00
    1    7    8      7.96      0.00
    3    7    8    -18.02      0.00
    5    7    8    -11.07      0.00
    0    8    8    -44.06      0.00
    2    8    8     -3.71      0.00
    4    8    8      2.99      0.00
    6    8    8     -1.94      0.00
    8    8    8      9.84      0.00
    1    9    8     -5.83      0.00
    3    9    8     -0.36      0.00
    5    9    8     -7.80      0.00
    7    9    8     -4.14      0.00
    0   10    8     -0.36      0.00
    2   10    8     -5.84      0.00
    4   10    8     -2.61      0.00
    6   10    8      5.23      0.00
    8   10    8      2.59      0.00
   10   10    8      5.92      0.00
    1   11    8      1.87      0.00
    3   11    8     -0.82      0.00
    5   11    8      9.82      0.00
    7   11    8      0.25      0.00
    9   11    8     -3.81      0.00
    0   12    8      2.53      0.00
    2   12    8      1.01      0.00
    4   12    8      5.20      0.00
    6   12    8     10.17      0.00
    8   12    8      2.90      0.00
   10   12    8      1.63      0.00
   12   12    8      1.31      0.00
    1   13    8      5.46      0.00
    3   13    8      2.50      0.00
    5   13    8      2.50      0.00
    7   13    8     -6.03      0.00
    9   13    8      8.52      0.00
   11   13    8      0.10      0.00
    0   14    8     19.27      0.00
    2   14    8      3.20      0.00
    4   14    8      1.93      0.00
    6   14    8     -0.13      0.00
    8   14    8     -0.67      0.00
   10   14    8      2.27      0.00
   12   14    8      0.39      0.00
   14   14    8     -3.15      0.00
    1   15    8      0.31      0.00
    3   15    8     -0.13      0.00
    5   15    8     -3.00      0.00
    7   15    8     -4.48      0.00
    9   15    8     -6.46      0.00
   11   15    8     -3.29      0.00
   13   15    8     -1.46      0.00
    0   16    8      4.33      0.00
    2   16    8      2.51      0.00
    4   16    8      4.47      0.00
    6   16    8      1.14      0.00
    8   16    8      1.73      0.00
   10   16    8     -2.57      0.00
   12   16    8      8.65      0.00
   14   16    8      6.46      0.00
   16   16    8      1.16      0.00
    1   17    8      1.09      0.00
    3   17    8     -4.44      0.00
    5   17    8      3.80      0.00
    7   17    8     -3.46      0.00
    9   17    8     -5.53      0.00
   11   17    8    -14.58      0.00
   13   17    8      9.59      0.00
   15   17    8      8.98      0.00
    0   18    8     -9.53      0.00
    2   18    8     -0.52      0.00
    4   18    8      5.92      0.00
    6   18    8     10.84      0.00
    8   18    8      4.53      0.00
   10   18    8      7.60      0.00
   12   18    8     -1.51      0.00
   14   18    8     -2.50      0.00
   16   18    8     -1.32      0.00
   18   18    8      6.64      0.00
    1   19    8      6.81      0.00
    3   19    8      8.61      0.00
    5   19    8      1.12      0.00
    7   19    8     -5.13      0.00
    9   19    8    -10.79      0.00
   11   19    8     -6.36      0.00
   13   19    8     -1.32      0.00
   15   19    8      4.70      0.00
    0   20    8     -7.15      0.00
    2   20    8      4.05      0.00
    4   20    8     -0.88      0.00
    6   20    8     -1.51      0.00
    8   20    8     -0.44      0.00
   10   20    8     -3.35      0.00
   12   20    8     -2.00      0.00
   14   20    8      1.19      0.00
    1   21    8      0.25      0.00
    3   21    8      1.20      0.00
    5   21    8      3.95      0.00
    7   21    8      2.77      0.00
    9   21    8    -16.18      0.00
   11   21    8      6.46      0.00
   13   21    8     -4.26      0.00
    0   22    8     -8.42      0.00
    2   22    8     -6.22      0.00
    4   22    8     -3.17      0.00
    6   22    8     -7.75      0.00
    8   22    8      2.46      0.00
   10   22    8     -6.90      0.00
   12   22    8     -2.52      0.00
    1   23    8     -2.20      0.00
    3   23    8     -4.96      0.00
    5   23    8     -3.90      0.00
    7   23    8     -4.24      0.00
    9   23    8      6.89      0.00
   11   23    8     -3.90      0.00
    0   24    8      3.73      0.00
    2   24    8      2.43      0.00
    4   24    8     -0.33      0.00
    6   24    8      3.17      0.00
    8   24    8     -2.18      0.00
    1   25    8      0.34      0.00
    3   25    8     -3.46      0.00
    0    1    9    -56.28      0.00
    1    2    9    -87.66      0.00
    0    3    9    115.53      0.00
    2    3    9     37.52      0.00
    1    4    9     87.40      0.00
    3    4    9    -53.85      0.00
    0    5    9    -11.61      0.00
    2    5    9     72.05      0.00
    4    5    9      5.82      0.00
    1    6    9     -5.58      0.00
    3    6    9     24.00      0.00
    5    6    9    -18.22      0.00
    0    7    9     -6.32      0.00
    2    7    9     14.70      0.00
    4    7    9     -2.61      0.00
    6    7    9     -8.04      0.00
    1    8    9    -12.96      0.00
    3    8    9    -22.67      0.00
    5    8    9     -1.94      0.00
    7    8    9     -9.98      0.00
    0    9    9     -7.35      0.00
    2    9    9     11.20      0.00
    4    9    9     -1.52      0.00
    6    9    9      7.49      0.00
    8    9    9     -3.15      0.00
    1   10    9    -17.58      0.00
    3   10    9     -4.56      0.00
    5   10    9    -10.40      0.00
    7   10    9     -2.88      0.00
    9   10    9     -7.22      0.00
    0   11    9     -9.25      0.00
    2   11    9    -10.96      0.00
    4   11    9     -5.02      0.00
    6   11    9     -3.85      0.00
    8   11    9      0.16      0.00
   10   11    9     -1.84      0.00
    1   12    9     -7.58      0.00
    3   12    9    -11.44      0.00
    5   12    9     -3.86      0.00
    7   12    9     -9.37      0.00
    9   12    9     -2.16      0.00
   11   12    9      4.43      0.00
    0   13    9      1.20      0.00
    2   13    9     -3.71      0.00
    4   13    9     -4.70      0.00
    6   13    9      3.78      0.00
    8   13    9     -3.04      0.00
   10   13    9      2.00      0.00
   12   13    9     -2.31      0.00
    1   14    9     -3.82      0.00
    3   14    9      0.72      0.00
    5   14    9     -0.39      0.00
    7   14    9     -6.02      0.00
    9   14    9     -5.24      0.00
   11   14    9     -2.55      0.00
   13   14    9      4.44      0.00
    0   15    9      0.18      0.00
    2   15    9      2.42      0.00
    4   15    9      3.78      0.00
    6   15    9      5.72      0.00
    8   15    9      7.00      0.00
   10   15    9      3.52      0.00
   12   15    9      6.71      0.00
   14   15    9     -2.90      0.00
    1   16    9     -2.03      0.00
    3   16    9      0.62      0.00
    5   16    9      0.89      0.00
    7   16    9      1.91      0.00
    9   16    9     -2.77      0.00
   11   16    9      0.59      0.00
   13   16    9      0.76      0.00
   15   16    9      0.84      0.00
    0   17    9     -7.75      0.00
    2   17    9      4.48      0.00
    4   17    9      9.86      0.00
    6   17    9      0.05      0.00
    8   17    9     -3.07      0.00
   10   17    9     -3.76      0.00
   12   17    9     -5.88      0.00
   14   17    9     -4.74      0.00
   16   17    9     -4.15      0.00
    1   18    9      0.19      0.00
    3   18    9     -2.45      0.00
    5   18    9     -6.99      0.00
    7   18    9      0.04      0.00
    9   18    9      1.65      0.00
   11   18    9      0.70      0.00
   13   18    9     -3.75      0.00
   15   18    9     -2.60      0.00
   17   18    9     -2.88      0.00
    0   19    9     -2.68      0.00
    2   19    9     -2.12      0.00
    4   19    9     -2.31      0.00
    6   19    9      1.46      0.00
    8   19    9      0.27      0.00
   10   19    9     -5.59      0.00
   12   19    9     -1.88      0.00
   14   19    9      0.85      0.00
   16   19    9     10.14      0.00
    1   20    9      3.77      0.00
    3   20    9     -4.07      0.00
    5   20    9      5.39      0.00
    7   20    9      9.51      0.00
    9   20    9     -1.98      0.00
   11   20    9      8.22      0.00
   13   20    9      3.25      0.00
   15   20    9      8.91      0.00
    0   21    9     -6.10      0.00
    2   21    9     -2.54      0.00
    4   21    9      5.96      0.00
    6   21    9     -2.26      0.00
    8   21    9      4.87      0.00
   10   21    9     -4.58      0.00
   12   21    9     -1.45      0.00
   14   21    9      1.39      0.00
    1   22    9      0.79      0.00
    3   22    9      0.38      0.00
    5   22    9     -7.50      0.00
    7   22    9      4.43      0.00
    9   22    9      9.42      0.00
   11   22    9     -1.34      0.00
    0   23    9     12.02      0.00
    2   23    9      0.64      0.00
    4   23    9     -2.40      0.00
    6   23    9      0.23      0.00
    8   23    9     -2.23      0.00
   10   23    9      0.95      0.00
    1   24    9      3.35      0.00
    3   24    9     -7.11      0.00
    5   24    9      5.55      0.00
    7   24    9      5.86      0.00
    0   25    9     12.41      0.00
    2   25    9      4.53      0.00
    4   25    9      8.37      0.00
    1    1   10    176.96      0.00
    0    2   10     35.64      0.00
    1    3   10    -25.48      0.00
    3    3   10    -69.83      0.00
    0    4   10    -95.17      0.00
    2    4   10     97.71      0.00
    1    5   10      6.58      0.00
    3    5   10     30.95      0.00
    5    5   10    -43.14      0.00
    0    6   10     47.94      0.00
    2    6   10    -26.16      0.00
    4    6   10     41.51      0.00
    1    7   10     10.89      0.00
    3    7   10    -11.83      0.00
    5    7   10     21.95      0.00
    7    7   10     -8.13      0.00
    0    8   10    -15.40      0.00
    2    8   10     27.26      0.00
    4    8   10     -7.12      0.00
    6    8   10      6.29      0.00
    1    9   10      3.24      0.00
    3    9   10     14.42      0.00
    5    9   10     -4.79      0.00
    7    9   10      3.02      0.00
    9    9   10      3.58      0.00
    0   10   10     20.22      0.00
    2   10   10     -0.20      0.00
    4   10   10      6.69      0.00
    6   10   10     -1.21      0.00
    8   10   10      3.12      0.00
    1   11   10     -1.26      0.00
    3   11   10     -5.39      0.00
    5   11   10      9.05      0.00
    7   11   10      3.03      0.00
    9   11   10     -0.05      0.00
   11   11   10     -0.07      0.00
    0   12   10     -9.87      0.00
    2   12   10      4.58      0.00
    4   12   10     -3.85      0.00
    6   12   10      2.85      0.00
    8   12   10      2.33      0.00
   10   12   10     -3.65      0.00
    1   13   10     -7.38      0.00
    3   13   10      9.81      0.00
    5   13   10     -3.34      0.00
    7   13   10     -0.92      0.00
    9   13   10     -1.60      0.00
   11   13   10     -5.54      0.00
   13   13   10     -2.63      0.00
    0   14   10     -0.55      0.00
    2   14   10     -1.80      0.00
    4   14   10      1.59      0.00
    6   14   10      1.22      0.00
    8   14   10      7.97      0.00
   10   14   10      2.85      0.00
   12   14   10     -4.12      0.00
    1   15   10     -2.87      0.00
    3   15   10     -1.77      0.00
    5   15   10      1.84      0.00
    7   15   10     -2.54      0.00
    9   15   10     -6.04      0.00
   11   15   10      1.94      0.00
   13   15   10     -2.25      0.00
   15   15   10      2.54      0.00
    0   16   10     13.01      0.00
    2   16   10      2.90      0.00
    4   16   10      0.08      0.00
    6   16   10     -3.84      0.00
    8   16   10      5.86      0.00
   10   16   10    -14.24      0.00
   12   16   10     -2.67      0.00
   14   16   10     10.06      0.00
    1   17   10      3.12      0.00
    3   17   10     -3.42      0.00
    5   17   10      0.27      0.00
    7   17   10      1.63      0.00
    9   17   10      1.87      0.00
   11   17   10      2.46      0.00
   13   17   10      3.67      0.00
   15   17   10     -0.07      0.00
   17   17   10     -1.47      0.00
    0   18   10      3.76      0.00
    2   18   10     15.90      0.00
    4   18   10     -0.64      0.00
    6   18   10      4.03      0.00
    8   18   10     -7.59      0.00
   10   18   10     -1.80      0.00
   12   18   10      1.15      0.00
   14   18   10      0.65      0.00
   16   18   10      4.00      0.00
    1   19   10      0.35      0.00
    3   19   10      5.14      0.00
    5   19   10     -5.71      0.00
    7   19   10     -0.20      0.00
    9   19   10      1.05      0.00
   11   19   10     11.11      0.00
   13   19   10     -1.28      0.00
   15   19   10      1.31      0.00
    0   20   10      3.53      0.00
    2   20   10      5.60      0.00
    4   20   10     -1.63      0.00
    6   20   10     -7.39      0.00
    8   20   10     -3.58      0.00
   10   20   10     -8.33      0.00
   12   20   10     -2.32      0.00
   14   20   10     -5.54      0.00
    1   21   10     -2.28      0.00
    3   21   10     -6.69      0.00
    5   21   10      8.74      0.00
    7   21   10      0.32      0.00
    9   21   10     -0.69      0.00
   11   21   10     -7.30      0.00
   13   21   10      7.73      0.00
    0   22   10     14.87      0.00
    2   22   10     -0.30      0.00
    4   22   10     -7.20      0.00
    6   22   10      8.27      0.00
    8   22   10     -0.90      0.00
   10   22   10     -0.16      0.00
   12   22   10      2.64      0.00
    1   23   10     -1.30      0.00
    3   23   10      6.01      0.00
    5   23   10      2.13      0.00
    7   23   10     -3.85      0.00
    9   23   10      3.74      0.00
    0   24   10     -1.76      0.00
    2   24   10      3.86      0.00
    4   24   10     -2.39      0.00
    6   24   10     -1.31      0.00
    8   24   10     -3.71      0.00
    1   25   10     -6.78      0.00
    3   25   10      5.16      0.00
    0    1   11    -43.00      0.00
    1    2   11     30.06      0.00
    0    3   11     41.04      0.00
    2    3   11    -25.53      0.00
    1    4   11     -2.60      0.00
    3    4   11     -4.11      0.00
    0    5   11    -39.80      0.00
    2    5   11     18.04      0.00
    4    5   11     17.59      0.00
    1    6   11      0.54      0.00
    3    6   11      5.87      0.00
    5    6   11      3.95      0.00
    0    7   11     38.48      0.00
    2    7   11    -29.66      0.00
    4    7   11     20.59      0.00
    6    7   11     16.83      0.00
    1    8   11      9.55      0.00
    3    8   11      5.39      0.00
    5    8   11      1.70      0.00
    7    8   11      2.34      0.00
    0    9   11     -2.10      0.00
    2    9   11     19.10      0.00
    4    9   11      2.53      0.00
    6    9   11     -0.61      0.00
    8    9   11      1.08      0.00
    1   10   11     10.56      0.00
    3   10   11      2.28      0.00
    5   10   11     -1.88      0.00
    7   10   11      3.42      0.00
    9   10   11     -0.16      0.00
    0   11   11     10.38      0.00
    2   11   11      4.13      0.00
    4   11   11     -1.60      0.00
    6   11   11      0.81      0.00
    8   11   11      3.40      0.00
   10   11   11     -2.42      0.00
    1   12   11      2.12      0.00
    3   12   11      3.73      0.00
    5   12   11     -0.28      0.00
    7   12   11     -6.24      0.00
    9   12   11     -6.02      0.00
   11   12   11      0.31      0.00
    0   13   11     -0.34      0.00
    2   13   11     -0.71      0.00
    4   13   11     -1.12      0.00
    6   13   11     -0.55      0.00
    8   13   11      5.42      0.00
   10   13   11      3.48      0.00
   12   13   11      0.70      0.00
    1   14   11     -2.80      0.00
    3   14   11     -2.69      0.00
    5   14   11      0.48      0.00
    7   14   11     -2.83      0.00
    9   14   11     -3.15      0.00
   11   14   11     -2.09      0.00
   13   14   11     -4.91      0.00
    0   15   11     -0.80      0.00
    2   15   11     -1.22      0.00
    4   15   11     -4.16      0.00
    6   15   11     -4.96      0.00
    8   15   11      3.69      0.00
   10   15   11     -2.33      0.00
   12   15   11     -4.06      0.00
   14   15   11      1.70      0.00
    1   16   11     -3.40      0.00
    3   16   11      0.59      0.00
    5   16   11      2.32      0.00
    7   16   11     -6.10      0.00
    9   16   11     10.25      0.00
   11   16   11      3.94      0.00
   13   16   11      0.47      0.00
   15   16   11     -4.40      0.00
    0   17   11     -3.77      0.00
    2   17   11     -2.25      0.00
    4   17   11    -10.42      0.00
    6   17   11     -5.31      0.00
    8   17   11      2.02      0.00
   10   17   11      7.08      0.00
   12   17   11     10.80      0.00
   14   17   11    -12.09      0.00
   16   17   11      1.62      0.00
    1   18   11      1.51      0.00
    3   18   11      2.27      0.00
    5   18   11     -0.53      0.00
    7   18   11     -1.70      0.00
    9   18   11     -1.02      0.00
   11   18   11      9.73      0.00
   13   18   11      3.87      0.00
   15   18   11     -1.19      0.00
   17   18   11    -13.09      0.00
    0   19   11     -5.17      0.00
    2   19   11     -5.44      0.00
    4   19   11      6.03      0.00
    6   19   11     -3.55      0.00
    8   19   11     -0.64      0.00
   10   19   11      8.00      0.00
   12   19   11     -0.61      0.00
   14   19   11     -2.74      0.00
   16   19   11      1.91      0.00
    1   20   11     -5.83      0.00
    3   20   11      1.24      0.00
    5   20   11      3.76      0.00
    7   20   11     -1.79      0.00
    9   20   11     -0.69      0.00
   11   20   11    -10.74      0.00
   13   20   11      5.17      0.00
   15   20   11      1.75      0.00
    0   21   11      3.63      0.00
    2   21   11      0.96      0.00
    4   21   11     -9.63      0.00
    6   21   11      3.62      0.00
    8   21   11      3.62      0.00
   10   21   11     11.14      0.00
   12   21   11     11.15      0.00
   14   21   11      0.54      0.00
    1   22   11      3.54      0.00
    3   22   11      2.08      0.00
    5   22   11     -2.51      0.00
    7   22   11     -4.00      0.00
    9   22   11     -9.80      0.00
   11   22   11      1.97      0.00
    0   23   11      2.39      0.00
    2   23   11      6.76      0.00
    4   23   11      1.48      0.00
    6   23   11      2.61      0.00
    8   23   11      8.80      0.00
   10   23   11     -9.58      0.00
    1   24   11     -7.46      0.00
    3   24   11     -2.29      0.00
    5   24   11      3.67      0.00
    7   24   11     -2.13      0.00
    0   25   11      2.13      0.00
    2   25   11    -11.38      0.00
    4   25   11      9.16      0.00
    0    0   12     30.32      0.00
    0    2   12     -1.38      0.00
    2    2   12     11.96      0.00
    1    3   12     46.75      0.00
    0    4   12     81.90      0.00
    2    4   12     33.32      0.00
    4    4   12     42.05      0.00
    1    5   12    -25.56      0.00
    3    5   12     13.41      0.00
    0    6   12     14.78      0.00
    2    6   12    -23.73      0.00
    4    6   12     16.02      0.00
    6    6   12     -5.05      0.00
    1    7   12     -8.93      0.00
    3    7   12    -45.25      0.00
    5    7   12     10.45      0.00
    0    8   12     -9.47      0.00
    2    8   12      2.42      0.00
    4    8   12    -12.99      0.00
    6    8   12      7.00      0.00
    8    8   12     -2.29      0.00
    1    9   12    -15.43      0.00
    3    9   12     14.94      0.00
    5    9   12    -14.87      0.00
    7    9   12     -1.07      0.00
    0   10   12     -2.71      0.00
    2   10   12     -5.89      0.00
    4   10   12      1.54      0.00
    6   10   12     -0.49      0.00
    8   10   12     -3.40      0.00
   10   10   12     -9.88      0.00
    1   11   12      0.16      0.00
    3   11   12     -9.96      0.00
    5   11   12      5.17      0.00
    7   11   12     -0.53      0.00
    9   11   12      3.08      0.00
    0   12   12     -6.05      0.00
    2   12   12      3.44      0.00
    4   12   12      1.37      0.00
    6   12   12      7.29      0.00
    8   12   12      4.25      0.00
   10   12   12      0.67      0.00
   12   12   12      0.76      0.00
    1   13   12      6.01      0.00
    3   13   12      6.11      0.00
    5   13   12     -0.64      0.00
    7   13   12     -1.66      0.00
    9   13   12      2.72      0.00
   11   13   12      8.51      0.00
    0   14   12      6.86      0.00
    2   14   12     -2.54      0.00
    4   14   12      3.18      0.00
    6   14   12     -5.08      0.00
    8   14   12      1.23      0.00
   10   14   12      4.17      0.00
   12   14   12     -2.10      0.00
   14   14   12     -3.96      0.00
    1   15   12      7.09      0.00
    3   15   12     -3.11      0.00
    5   15   12     -4.08      0.00
    7   15   12    -11.13      0.00
    9   15   12     -6.47      0.00
   11   15   12      1.20      0.00
   13   15   12      7.54      0.00
    0   16   12      0.48      0.00
    2   16   12     -2.05      0.00
    4   16   12     -4.60      0.00
    6   16   12      4.96      0.00
    8   16   12      2.96      0.00
   10   16   12      2.21      0.00
   12   16   12      7.16      0.00
   14   16   12     -1.62      0.00
   16   16   12      6.63      0.00
    1   17   12      5.73      0.00
    3   17   12     -0.58      0.00
    5   17   12      0.37      0.00
    7   17   12     -3.21      0.00
    9   17   12     -2.69      0.00
   11   17   12     -2.93      0.00
   13   17   12      7.22      0.00
   15   17   12      8.23      0.00
    0   18   12     -9.32      0.00
    2   18   12      1.99      0.00
    4   18   12      5.40      0.00
    6   18   12     -5.60      0.00
    8   18   12     -5.15      0.00
   10   18   12      7.44      0.00
   12   18   12    -10.14      0.00
   14   18   12      4.46      0.00
   16   18   12      4.58      0.00
    1   19   12     -3.86      0.00
    3   19   12     -1.88      0.00
    5   19   12     -9.68      0.00
    7   19   12     -1.39      0.00
    9   19   12     -3.32      0.00
   11   19   12      3.63      0.00
   13   19   12      6.42      0.00
   15   19   12     -6.58      0.00
    0   20   12     -5.20      0.00
    2   20   12      3.53      0.00
    4   20   12     -2.59      0.00
    6   20   12     -2.35      0.00
    8   20   12     -4.28      0.00
   10   20   12     -8.19      0.00
   12   20   12     -1.54      0.00
   14   20   12     -4.08      0.00
    1   21   12     13.03      0.00
    3   21   12     -6.16      0.00
    5   21   12     -0.62      0.00
    7   21   12     -2.57      0.00
    9   21   12    -10.78      0.00
   11   21   12      7.31      0.00
   13   21   12     -0.01      0.00
    0   22   12     -8.69      0.00
    2   22   12      0.05      0.00
    4   22   12      5.63      0.00
    6   22   12     -3.47      0.00
    8   22   12      0.28      0.00
   10   22   12      3.28      0.00
   12   22   12      4.26      0.00
    1   23   12    -11.68      0.00
    3   23   12      6.61      0.00
    5   23   12     -3.69      0.00
    7   23   12     -1.75      0.00
    9   23   12     12.23      0.00
    0   24   12      5.74      0.00
    2   24   12     -2.27      0.00
    4   24   12     -2.54      0.00
    6   24   12      2.38      0.00
    8   24   12     -2.81      0.00
    1   25   12     -0.67      0.00
    3   25   12      5.31      0.00
    0    1   13     73.53      0.00
    1    2   13    -11.74      0.00
    0    3   13     24.75      0.00
    2    3   13    -34.38      0.00
    1    4   13    -25.36      0.00
    3    4   13    -15.51      0.00
    0    5   13     20.56      0.00
    2    5   13     42.33      0.00
    4    5   13      2.30      0.00
    1    6   13    -10.78      0.00
    3    6   13    -31.91      0.00
    5    6   13     17.29      0.00
    0    7   13     -2.83      0.00
    2    7   13     12.43      0.00
    4    7   13    -13.28      0.00
    6    7   13      9.00      0.00
    1    8   13    -13.51      0.00
    3    8   13      4.77      0.00
    5    8   13    -14.38      0.00
    7    8   13      5.27      0.00
    0    9   13     -2.11      0.00
    2    9   13     -0.58      0.00
    4    9   13      2.35      0.00
    6    9   13     -8.27      0.00
    8    9   13      1.14      0.00
    1   10   13     -7.11      0.00
    3   10   13    -10.38      0.00
    5   10   13      3.72      0.00
    7   10   13     -1.08      0.00
    9   10   13      2.27      0.00
    0   11   13    -10.59      0.00
    2   11   13     -0.39      0.00
    4   11   13     -8.84      0.00
    6   11   13      2.50      0.00
    8   11   13     -5.26      0.00
   10   11   13      1.31      0.00
    1   12   13      0.26      0.00
    3   12   13      0.75      0.00
    5   12   13      1.11      0.00
    7   12   13      4.86      0.00
    9   12   13      6.05      0.00
   11   12   13      5.06      0.00
    0   13   13      1.87      0.00
    2   13   13     -2.23      0.00
    4   13   13     -2.35      0.00
    6   13   13      0.37      0.00
    8   13   13     -1.21      0.00
   10   13   13     -6.41      0.00
   12   13   13      3.61      0.00
    1   14   13     -0.43      0.00
    3   14   13      0.14      0.00
    5   14   13      6.32      0.00
    7   14   13     -0.09      0.00
    9   14   13     -2.19      0.00
   11   14   13      0.65      0.00
   13   14   13     -0.06      0.00
    0   15   13     -6.32      0.00
    2   15   13      1.26      0.00
    4   15   13     -0.21      0.00
    6   15   13      5.81      0.00
    8   15   13      1.78      0.00
   10   15   13      3.61      0.00
   12   15   13      5.04      0.00
   14   15   13      4.75      0.00
    1   16   13     -3.53      0.00
    3   16   13      2.30      0.00
    5   16   13      4.30      0.00
    7   16   13      0.02      0.00
    9   16   13      3.17      0.00
   11   16   13     -1.32      0.00
   13   16   13     -2.99      0.00
   15   16   13     -0.13      0.00
    0   17   13     -4.94      0.00
    2   17   13     -7.69      0.00
    4   17   13      3.17      0.00
    6   17   13     -2.05      0.00
    8   17   13      7.12      0.00
   10   17   13     -3.00      0.00
   12   17   13     -6.51      0.00
   14   17   13     -2.72      0.00
   16   17   13      4.08      0.00
    1   18   13      2.46      0.00
    3   18   13     -6.75      0.00
    5   18   13     -0.57      0.00
    7   18   13     -1.65      0.00
    9   18   13     -5.24      0.00
   11   18   13     -4.74      0.00
   13   18   13     -3.54      0.00
   15   18   13     -6.53      0.00
   17   18   13     -2.51      0.00
    0   19   13      3.67      0.00
    2   19   13     -3.47      0.00
    4   19   13     -1.12      0.00
    6   19   13      3.98      0.00
    8   19   13      5.26      0.00
   10   19   13     -7.14      0.00
   12   19   13     -4.17      0.00
   14   19   13     -9.77      0.00
   16   19   13     11.67      0.00
    1   20   13      3.17      0.00
    3   20   13     -3.91      0.00
    5   20   13     -1.88      0.00
    7   20   13     16.48      0.00
    9   20   13     -1.12      0.00
   11   20   13     17.32      0.00
   13   20   13      1.22      0.00
   15   20   13     -2.54      0.00
    0   21   13      3.74      0.00
    2   21   13      4.20      0.00
    4   21   13      8.83      0.00
    6   21   13     -0.12      0.00
    8   21   13      3.58      0.00
   10   21   13      2.69      0.00
   12   21   13     -0.81      0.00
   14   21   13      2.54      0.00
    1   22   13     -6.77      0.00
    3   22   13      2.87      0.00
    5   22   13      2.11      0.00
    7   22   13     -3.64      0.00
    9   22   13      7.91      0.00
   11   22   13     -1.54      0.00
    0   23   13     12.42      0.00
    2   23   13     -4.22      0.00
    4   23   13     -4.26      0.00
    6   23   13     14.01      0.00
    8   23   13      7.66      0.00
   10   23   13     -5.44      0.00
    1   24   13      0.02      0.00
    3   24   13     -4.19      0.00
    5   24   13      3.96      0.00
    7   24   13     -7.73      0.00
    0   25   13      3.94      0.00
    2   25   13     -5.21      0.00
    1    1   14    -63.05      0.00
    0    2   14   -103.95      0.00
    1    3   14    -32.81      0.00
    3    3   14    -50.98      0.00
    0    4   14    -55.51      0.00
    2    4   14    -17.64      0.00
    1    5   14     -0.96      0.00
    3    5   14      1.00      0.00
    5    5   14      7.03      0.00
    0    6   14     -6.81      0.00
    2    6   14     17.37      0.00
    4    6   14    -12.26      0.00
    1    7   14     15.35      0.00
    3    7   14      4.05      0.00
    5    7   14      3.53      0.00
    7    7   14     19.04      0.00
    0    8   14      8.50      0.00
    2    8   14     20.36      0.00
    4    8   14     12.25      0.00
    6    8   14     -4.10      0.00
    1    9   14     -0.21      0.00
    3    9   14     12.25      0.00
    5    9   14     -2.74      0.00
    7    9   14     -1.46      0.00
    9    9   14      6.43      0.00
    0   10   14      2.38      0.00
    2   10   14      1.04      0.00
    4   10   14      1.23      0.00
    6   10   14     -6.90      0.00
    8   10   14      0.21      0.00
    1   11   14      7.57      0.00
    3   11   14     -2.26      0.00
    5   11   14      5.66      0.00
    7   11   14      6.52      0.00
    9   11   14      6.80      0.00
   11   11   14      5.38      0.00
    0   12   14     -5.30      0.00
    2   12   14      3.97      0.00
    4   12   14     -4.66      0.00
    6   12   14      5.53      0.00
    8   12   14     -1.55      0.00
   10   12   14     -1.05      0.00
    1   13   14     -1.33      0.00
    3   13   14      3.19      0.00
    5   13   14      1.90      0.00
    7   13   14     -4.17      0.00
    9   13   14      1.17      0.00
   11   13   14      3.62      0.00
   13   13   14      1.07      0.00
    0   14   14      4.59      0.00
    2   14   14     -1.45      0.00
    4   14   14     -1.24      0.00
    6   14   14     -2.35      0.00
    8   14   14      4.62      0.00
   10   14   14      4.94      0.00
   12   14   14      1.06      0.00
    1   15   14     -6.00      0.00
    3   15   14     -5.36      0.00
    5   15   14     -1.69      0.00
    7   15   14      1.61      0.00
    9   15   14      0.66      0.00
   11   15   14     -0.15      0.00
   13   15   14     -6.24      0.00
   15   15   14     13.46      0.00
    0   16   14      1.01      0.00
    2   16   14     -2.03      0.00
    4   16   14      0.93      0.00
    6   16   14     -1.07      0.00
    8   16   14      2.99      0.00
   10   16   14     -6.07      0.00
   12   16   14     -4.03      0.00
   14   16   14      5.55      0.00
    1   17   14     -0.31      0.00
    3   17   14      3.33      0.00
    5   17   14      2.47      0.00
    7   17   14      2.56      0.00
    9   17   14     -0.79      0.00
   11   17   14     -2.82      0.00
   13   17   14     -0.91      0.00
   15   17   14      3.23      0.00
   17   17   14     -4.44      0.00
    0   18   14     -1.47      0.00
    2   18   14     -4.98      0.00
    4   18   14    -14.64      0.00
    6   18   14     -1.10      0.00
    8   18   14     14.53      0.00
   10   18   14     -0.35      0.00
   12   18   14      3.55      0.00
   14   18   14      6.35      0.00
   16   18   14      9.26      0.00
    1   19   14     11.09      0.00
    3   19   14      0.12      0.00
    5   19   14      3.74      0.00
    7   19   14      9.04      0.00
    9   19   14     -3.14      0.00
   11   19   14      3.32      0.00
   13   19   14      9.93      0.00
   15   19   14     -4.78      0.00
    0   20   14     -1.92      0.00
    2   20   14      8.07      0.00
    4   20   14      1.58      0.00
    6   20   14    -13.37      0.00
    8   20   14    -11.86      0.00
   10   20   14     -3.29      0.00
   12   20   14     -7.59      0.00
   14   20   14     -0.62      0.00
    1   21   14     -8.09      0.00
    3   21   14     -0.54      0.00
    5   21   14      2.83      0.00
    7   21   14      0.59      0.00
    9   21   14    -11.94      0.00
   11   21   14    -11.95      0.00
   13   21   14     -2.50      0.00
    0   22   14     -3.03      0.00
    2   22   14     -5.41      0.00
    4   22   14      3.53      0.00
    6   22   14      9.71      0.00
    8   22   14     -2.27      0.00
   10   22   14      1.13      0.00
   12   22   14     12.82      0.00
    1   23   14      9.09      0.00
    3   23   14      7.93      0.00
    5   23   14      9.37      0.00
    7   23   14     -7.30      0.00
    9   23   14    -10.53      0.00
    0   24   14     -2.90      0.00
    2   24   14     12.59      0.00
    4   24   14     -9.21      0.00
    6   24   14     -0.83      0.00
    1   25   14     -6.34      0.00
    3   25   14      7.86      0.00
    0    1   15    -68.36      0.00
    1    2   15    -98.54      0.00
    0    3   15    -80.87      0.00
    2    3   15     40.09      0.00
    1    4   15     27.27      0.00
    3    4   15      3.38      0.00
    0    5   15    -10.39      0.00
    2    5   15    -44.36      0.00
    4    5   15      4.81      0.00
    1    6   15      2.51      0.00
    3    6   15     -0.59      0.00
    5    6   15     -1.24      0.00
    0    7   15    -20.34      0.00
    2    7   15      2.01      0.00
    4    7   15    -12.41      0.00
    6    7   15    -10.62      0.00
    1    8   15     10.07      0.00
    3    8   15      1.15      0.00
    5    8   15      5.88      0.00
    7    8   15     -2.74      0.00
    0    9   15     17.33      0.00
    2    9   15    -19.15      0.00
    4    9   15     12.28      0.00
    6    9   15     -8.25      0.00
    8    9   15     -5.78      0.00
    1   10   15      7.75      0.00
    3   10   15      8.67      0.00
    5   10   15      2.39      0.00
    7   10   15      1.60      0.00
    9   10   15      1.69      0.00
    0   11   15      0.79      0.00
    2   11   15      6.64      0.00
    4   11   15     -3.02      0.00
    6   11   15      2.96      0.00
    8   11   15     -2.00      0.00
   10   11   15     -0.41      0.00
    1   12   15      4.51      0.00
    3   12   15      5.57      0.00
    5   12   15      1.00      0.00
    7   12   15      3.23      0.00
    9   12   15     -4.26      0.00
   11   12   15     -5.57      0.00
    0   13   15      8.01      0.00
    2   13   15     -3.41      0.00
    4   13   15      1.31      0.00
    6   13   15     -0.48      0.00
    8   13   15      1.01      0.00
   10   13   15     -2.19      0.00
   12   13   15      4.97      0.00
    1   14   15      0.25      0.00
    3   14   15     -5.75      0.00
    5   14   15      1.40      0.00
    7   14   15     -0.45      0.00
    9   14   15     -1.35      0.00
   11   14   15      0.69      0.00
   13   14   15     -1.03      0.00
    0   15   15     -1.76      0.00
    2   15   15     12.28      0.00
    4   15   15      6.59      0.00
    6   15   15     -1.63      0.00
    8   15   15     10.99      0.00
   10   15   15      1.31      0.00
   12   15   15     -1.17      0.00
   14   15   15     -1.60      0.00
    1   16   15     -0.25      0.00
    3   16   15      6.50      0.00
    5   16   15     -6.87      0.00
    7   16   15      0.36      0.00
    9   16   15     -2.90      0.00
   11   16   15      2.34      0.00
   13   16   15      5.39      0.00
   15   16   15     -3.26      0.00
    0   17   15      7.77      0.00
    2   17   15     -0.99      0.00
    4   17   15     -4.45      0.00
    6   17   15      1.04      0.00
    8   17   15     -0.01      0.00
   10   17   15      6.33      0.00
   12   17   15      2.53      0.00
   14   17   15     -6.93      0.00
   16   17   15     -3.45      0.00
    1   18   15      7.24      0.00
    3   18   15      1.15      0.00
    5   18   15      5.04      0.00
    7   18   15      0.28      0.00
    9   18   15      6.68      0.00
   11   18   15     -0.26      0.00
   13   18   15      1.07      0.00
   15   18   15     -6.53      0.00
   17   18   15    -15.70      0.00
    0   19   15     -6.79      0.00
    2   19   15      4.10      0.00
    4   19   15      2.09      0.00
    6   19   15     -3.46      0.00
    8   19   15      3.15      0.00
   10   19   15      1.46      0.00
   12   19   15     -1.78      0.00
   14   19   15      0.12      0.00
   16   19   15      3.21      0.00
    1   20   15     -4.63      0.00
    3   20   15      5.02      0.00
    5   20   15      6.67      0.00
    7   20   15     10.42      0.00
    9   20   15      0.75      0.00
   11   20   15      3.71      0.00
   13   20   15      3.61      0.00
   15   20   15      4.68      0.00
    0   21   15    -11.83      0.00
    2   21   15     -5.10      0.00
    4   21   15     -2.82      0.00
    6   21   15     -0.38      0.00
    8   21   15      6.69      0.00
   10   21   15      7.23      0.00
   12   21   15      3.84      0.00
    1   22   15      8.31      0.00
    3   22   15     -4.28      0.00
    5   22   15     -9.61      0.00
    7   22   15      1.92      0.00
    9   22   15     -3.26      0.00
   11   22   15    -10.40      0.00
    0   23   15     -2.64      0.00
    2   23   15      5.58      0.00
    4   23   15     -8.51      0.00
    6   23   15     -2.41      0.00
    8   23   15     -1.29      0.00
   10   23   15      6.62      0.00
    1   24   15     -4.38      0.00
    3   24   15      4.20      0.00
    5   24   15      5.16      0.00
    7   24   15     -0.39      0.00
    0   25   15     14.58      0.00
    2   25   15     -3.29      0.00
    0    0   16     -1.37      0.00
    0    2   16     -3.34      0.00
    2    2   16     26.08      0.00
    1    3   16     16.32      0.00
    0    4   16      6.41      0.00
    2    4   16     -3.85      0.00
    4    4   16    -20.53      0.00
    1    5   16     -7.34      0.00
    3    5   16      6.24      0.00
    0    6   16     10.02      0.00
    2    6   16    -37.23      0.00
    4    6   16     -3.17      0.00
    6    6   16    -19.63      0.00
    1    7   16    -17.27      0.00
    3    7   16     -6.47      0.00
    5    7   16      7.44      0.00
    0    8   16     -6.05      0.00
    2    8   16    -12.82      0.00
    4    8   16     -4.91      0.00
    6    8   16    -11.18      0.00
    8    8   16     -9.41      0.00
    1    9   16     -4.42      0.00
    3    9   16    -10.41      0.00
    5    9   16      4.78      0.00
    7    9   16     -2.36      0.00
    0   10   16     -4.51      0.00
    2   10   16     -6.24      0.00
    4   10   16     -2.29      0.00
    6   10   16     -1.32      0.00
    8   10   16     -1.70      0.00
   10   10   16     -2.31      0.00
    1   11   16     -7.98      0.00
    3   11   16      5.15      0.00
    5   11   16     -4.71      0.00
    7   11   16     -0.22      0.00
    9   11   16     -5.46      0.00
    0   12   16      3.75      0.00
    2   12   16     -1.88      0.00
    4   12   16     -1.38      0.00
    6   12   16     -4.36      0.00
    8   12   16     -1.06      0.00
   10   12   16      3.39      0.00
   12   12   16      7.12      0.00
    1   13   16      1.92      0.00
    3   13   16     -0.48      0.00
    5   13   16      5.84      0.00
    7   13   16     -1.04      0.00
    9   13   16     -2.03      0.00
   11   13   16     -1.77      0.00
    0   14   16      3.89      0.00
    2   14   16      4.30      0.00
    4   14   16      3.24      0.00
    6   14   16     -1.98      0.00
    8   14   16     -0.39      0.00
   10   14   16      1.77      0.00
   12   14   16      0.55      0.00
   14   14   16      0.96      0.00
    1   15   16     -5.12      0.00
    3   15   16      2.44      0.00
    5   15   16      0.16      0.00
    7   15   16      0.87      0.00
    9   15   16      1.36      0.00
   11   15   16     -1.38      0.00
   13   15   16     -6.65      0.00
    0   16   16     -0.74      0.00
    2   16   16      8.32      0.00
    4   16   16      1.06      0.00
    6   16   16      4.14      0.00
    8   16   16     -9.27      0.00
   10   16   16      0.26      0.00
   12   16   16      0.87      0.00
   14   16   16     -0.15      0.00
   16   16   16     -1.92      0.00
    1   17   16      0.85      0.00
    3   17   16      7.91      0.00
    5   17   16      5.01      0.00
    7   17   16     -1.50      0.00
    9   17   16      1.84      0.00
   11   17   16      0.72      0.00
   13   17   16     -5.77      0.00
   15   17   16      1.45      0.00
    0   18   16     -7.37      0.00
    2   18   16     -1.95      0.00
    4   18   16      5.36      0.00
    6   18   16     -3.91      0.00
    8   18   16      6.42      0.00
   10   18   16     -5.93      0.00
   12   18   16     -1.53      0.00
   14   18   16     18.39      0.00
   16   18   16      4.04      0.00
    1   19   16      1.89      0.00
    3   19   16      2.95      0.00
    5   19   16     -1.11      0.00
    7   19   16    -14.59      0.00
    9   19   16     -9.04      0.00
   11   19   16    -13.13      0.00
   13   19   16      3.30      0.00
   15   19   16     -7.84      0.00
    0   20   16     -8.73      0.00
    2   20   16     -3.85      0.00
    4   20   16     -2.69      0.00
    6   20   16     -0.32      0.00
    8   20   16     -2.65      0.00
   10   20   16     10.74      0.00
   12   20   16     -2.79      0.00
   14   20   16    -10.08      0.00
    1   21   16      2.69      0.00
    3   21   16     -4.28      0.00
    5   21   16      1.01      0.00
    7   21   16     12.43      0.00
    9   21   16    -11.55      0.00
   11   21   16      8.40      0.00
   13   21   16    -10.07      0.00
    0   22   16      2.12      0.00
    2   22   16      9.74      0.00
    4   22   16      7.37      0.00
    6   22   16      5.78      0.00
    8   22   16      8.80      0.00
   10   22   16      8.49      0.00
   12   22   16      5.83      0.00
    1   23   16     -3.94      0.00
    3   23   16      4.35      0.00
    5   23   16     -2.20      0.00
    7   23   16    -15.33      0.00
    9   23   16      5.83      0.00
    0   24   16      9.89      0.00
    2   24   16     -5.37      0.00
    4   24   16     -0.70      0.00
    6   24   16      7.78      0.00
    1   25   16      8.47      0.00
    0    1   17     53.17      0.00
    1    2   17     17.24      0.00
    0    3   17     33.51      0.00
    2    3   17     20.22      0.00
    1    4   17    -20.96      0.00
    3    4   17     -1.51      0.00
    0    5   17     11.11      0.00
    2    5   17     -6.57      0.00
    4    5   17     -2.29      0.00
    1    6   17     18.45      0.00
    3    6   17     -5.35      0.00
    5    6   17     18.78      0.00
    0    7   17     21.29      0.00
    2    7   17     13.14      0.00
    4    7   17     -3.68      0.00
    6    7   17      7.08      0.00
    1    8   17     -4.58      0.00
    3    8   17     -0.11      0.00
    5    8   17     13.30      0.00
    7    8   17     -2.41      0.00
    0    9   17     -0.85      0.00
    2    9   17     10.68      0.00
    4    9   17     -2.73      0.00
    6    9   17      1.18      0.00
    8    9   17      0.40      0.00
    1   10   17     -7.50      0.00
    3   10   17     -5.72      0.00
    5   10   17     -5.23      0.00
    7   10   17     10.68      0.00
    9   10   17     -2.46      0.00
    0   11   17     -4.89      0.00
    2   11   17      8.19      0.00
    4   11   17     -2.15      0.00
    6   11   17      2.35      0.00
    8   11   17      7.02      0.00
   10   11   17     -1.84      0.00
    1   12   17     -2.85      0.00
    3   12   17     -5.52      0.00
    5   12   17     -4.71      0.00
    7   12   17     -6.33      0.00
    9   12   17     -5.42      0.00
   11   12   17     -0.16      0.00
    0   13   17      1.97      0.00
    2   13   17     -4.33      0.00
    4   13   17      0.33      0.00
    6   13   17      1.93      0.00
    8   13   17      0.60      0.00
   10   13   17     -1.73      0.00
   12   13   17     -0.93      0.00
    1   14   17     -1.19      0.00
    3   14   17     -2.70      0.00
    5   14   17      4.42      0.00
    7   14   17      2.28      0.00
    9   14   17     -1.26      0.00
   11   14   17      0.47      0.00
   13   14   17      2.04      0.00
    0   15   17     -5.36      0.00
    2   15   17      6.78      0.00
    4   15   17     -5.78      0.00
    6   15   17      1.50      0.00
    8   15   17      0.93      0.00
   10   15   17     -0.57      0.00
   12   15   17      5.10      0.00
   14   15   17      1.50      0.00
    1   16   17     -2.64      0.00
    3   16   17     -2.81      0.00
    5   16   17     -0.14      0.00
    7   16   17     -4.74      0.00
    9   16   17      3.94      0.00
   11   16   17     -1.28      0.00
   13   16   17     -0.62      0.00
   15   16   17      0.09      0.00
    0   17   17      1.72      0.00
    2   17   17     -9.42      0.00
    4   17   17     -3.96      0.00
    6   17   17      2.27      0.00
    8   17   17     -6.04      0.00
   10   17   17      1.23      0.00
   12   17   17      0.66      0.00
   14   17   17     -3.65      0.00
   16   17   17     -1.47      0.00
    1   18   17     -0.60      0.00
    3   18   17      0.81      0.00
    5   18   17      4.35      0.00
    7   18   17      0.49      0.00
    9   18   17     -5.57      0.00
   11   18   17      3.17      0.00
   13   18   17     -4.66      0.00
   15   18   17      1.88      0.00
   17   18   17      4.00      0.00
    0   19   17      3.62      0.00
    2   19   17     -3.79      0.00
    4   19   17      1.34      0.00
    6   19   17     -3.66      0.00
    8   19   17      5.61      0.00
   10   19   17      3.45      0.00
   12   19   17     -0.29      0.00
   14   19   17     -6.01      0.00
   16   19   17      9.99      0.00
    1   20   17      3.49      0.00
    3   20   17     -1.13      0.00
    5   20   17      2.06      0.00
    7   20   17      9.08      0.00
    9   20   17      5.04      0.00
   11   20   17     11.86      0.00
   13   20   17     12.16      0.00
   15   20   17      0.49      0.00
    0   21   17      1.18      0.00
    2   21   17      1.20      0.00
    4   21   17     -5.27      0.00
    6   21   17     -4.58      0.00
    8   21   17      2.63      0.00
   10   21   17      0.23      0.00
   12   21   17     -1.44      0.00
    1   22   17     -0.10      0.00
    3   22   17     -6.90      0.00
    5   22   17     -1.94      0.00
    7   22   17     -3.16      0.00
    9   22   17      0.64      0.00
   11   22   17      1.39      0.00
    0   23   17     -2.76      0.00
    2   23   17     -7.56      0.00
    4   23   17     10.30      0.00
    6   23   17      4.83      0.00
    8   23   17     -2.71      0.00
    1   24   17      5.38      0.00
    3   24   17     -3.59      0.00
    5   24   17      2.22      0.00
    7   24   17      4.98      0.00
    0   25   17    -15.39      0.00
    1    1   18    -16.40      0.00
    0    2   18      7.63      0.00
    1    3   18      2.12      0.00
    3    3   18     -2.26      0.00
    0    4   18     -3.76      0.00
    2    4   18     22.93      0.00
    1    5   18      5.51      0.00
    3    5   18      8.88      0.00
    5    5   18     -2.38      0.00
    0    6   18    -18.45      0.00
    2    6   18      4.59      0.00
    4    6   18     -4.43      0.00
    1    7   18     12.22      0.00
    3    7   18     11.33      0.00
    5    7   18     -2.21      0.00
    7    7   18     -7.76      0.00
    0    8   18      0.54      0.00
    2    8   18      9.71      0.00
    4    8   18      0.32      0.00
    6    8   18      5.46      0.00
    1    9   18      8.16      0.00
    3    9   18     -1.97      0.00
    5    9   18      2.77      0.00
    7    9   18     -0.86      0.00
    9    9   18     -4.60      0.00
    0   10   18    -13.91      0.00
    2   10   18     15.60      0.00
    4   10   18     -1.60      0.00
    6   10   18     -0.66      0.00
    8   10   18      7.76      0.00
    1   11   18      0.01      0.00
    3   11   18      5.34      0.00
    5   11   18     -9.80      0.00
    7   11   18     -1.94      0.00
    9   11   18      1.47      0.00
   11   11   18     -7.44      0.00
    0   12   18     11.69      0.00
    2   12   18      2.75      0.00
    4   12   18      7.80      0.00
    6   12   18      2.12      0.00
    8   12   18     -1.33      0.00
   10   12   18      5.57      0.00
    1   13   18     -2.73      0.00
    3   13   18     -7.76      0.00
    5   13   18      2.55      0.00
    7   13   18     -1.64      0.00
    9   13   18     -1.95      0.00
   11   13   18     -1.81      0.00
   13   13   18     -7.30      0.00
    0   14   18     -3.90      0.00
    2   14   18      1.12      0.00
    4   14   18     -4.53      0.00
    6   14   18      0.58      0.00
    8   14   18     -2.22      0.00
   10   14   18     -2.84      0.00
   12   14   18     -1.93      0.00
    1   15   18     -4.42      0.00
    3   15   18     -0.97      0.00
    5   15   18      3.76      0.00
    7   15   18      0.66      0.00
    9   15   18      2.65      0.00
   11   15   18      0.92      0.00
   13   15   18     -3.72      0.00
   15   15   18      2.33      0.00
    0   16   18     -0.75      0.00
    2   16   18      4.03      0.00
    4   16   18      2.13      0.00
    6   16   18      2.76      0.00
    8   16   18      3.96      0.00
   10   16   18      3.60      0.00
   12   16   18     -2.40      0.00
   14   16   18      0.08      0.00
    1   17   18      5.32      0.00
    3   17   18      3.24      0.00
    5   17   18      1.43      0.00
    7   17   18      8.23      0.00
    9   17   18     -2.37      0.00
   11   17   18      3.59      0.00
   13   17   18      5.59      0.00
   15   17   18     12.33      0.00
   17   17   18     13.38      0.00
    0   18   18      5.86      0.00
    2   18   18     -2.21      0.00
    4   18   18     -1.71      0.00
    6   18   18      0.59      0.00
    8   18   18      4.61      0.00
   10   18   18      1.77      0.00
   12   18   18     -2.30      0.00
   14   18   18     12.60      0.00
   16   18   18      7.18      0.00
    1   19   18      0.17      0.00
    3   19   18      3.34      0.00
    5   19   18      0.55      0.00
    7   19   18      3.09      0.00
    9   19   18      3.67      0.00
   11   19   18      1.80      0.00
   13   19   18      3.87      0.00
   15   19   18     -4.67      0.00
    0   20   18     -3.65      0.00
    2   20   18      0.93      0.00
    4   20   18      3.94      0.00
    6   20   18     -1.61      0.00
    8   20   18      1.03      0.00
   10   20   18     -5.91      0.00
   12   20   18      7.16      0.00
   14   20   18      1.31      0.00
    1   21   18      0.70      0.00
    3   21   18    -10.85      0.00
    5   21   18      2.53      0.00
    7   21   18      4.54      0.00
    9   21   18     -7.17      0.00
   11   21   18      9.72      0.00
   13   21   18      1.30      0.00
    0   22   18     -7.38      0.00
    2   22   18     -4.08      0.00
    4   22   18     -2.54      0.00
    6   22   18     -0.80      0.00
    8   22   18     -9.09      0.00
   10   22   18     -5.83      0.00
    1   23   18    -10.96      0.00
    3   23   18     -7.40      0.00
    5   23   18    -14.23      0.00
    7   23   18     -5.16      0.00
    9   23   18     -0.58      0.00
    0   24   18     -4.52      0.00
    2   24   18      1.60      0.00
    4   24   18     -5.77      0.00
    6   24   18     -4.08      0.00
    0    1   19     44.45      0.00
    1    2   19     -6.31      0.00
    0    3   19     16.76      0.00
    2    3   19     14.31      0.00
    1    4   19      6.72      0.00
    3    4   19     18.08      0.00
    0    5   19    -33.51      0.00
    2    5   19      3.39      0.00
    4    5   19     -7.51      0.00
    1    6   19     -2.59      0.00
    3    6   19    -12.84      0.00
    5    6   19     -3.18      0.00
    0    7   19      1.83      0.00
    2    7   19    -20.97      0.00
    4    7   19     -8.60      0.00
    6    7   19      7.36      0.00
    1    8   19     -2.18      0.00
    3    8   19      7.14      0.00
    5    8   19    -10.17      0.00
    7    8   19    -11.13      0.00
    0    9   19     -7.56      0.00
    2    9   19    -12.36      0.00
    4    9   19      1.75      0.00
    6    9   19     -0.52      0.00
    8    9   19      3.09      0.00
    1   10   19     11.81      0.00
    3   10   19      1.55      0.00
    5   10   19      4.34      0.00
    7   10   19      7.59      0.00
    9   10   19      1.11      0.00
    0   11   19     -3.32      0.00
    2   11   19      0.07      0.00
    4   11   19      1.49      0.00
    6   11   19     -2.36      0.00
    8   11   19     -0.79      0.00
   10   11   19     -0.90      0.00
    1   12   19      2.76      0.00
    3   12   19      4.69      0.00
    5   12   19      1.06      0.00
    7   12   19     -0.43      0.00
    9   12   19     -3.08      0.00
   11   12   19     -0.07      0.00
    0   13   19     16.72      0.00
    2   13   19     -3.47      0.00
    4   13   19      2.28      0.00
    6   13   19     -0.61      0.00
    8   13   19      3.12      0.00
   10   13   19      1.16      0.00
   12   13   19      7.05      0.00
    1   14   19      0.19      0.00
    3   14   19      0.22      0.00
    5   14   19     -1.39      0.00
    7   14   19      0.51      0.00
    9   14   19     -1.12      0.00
   11   14   19     -4.39      0.00
   13   14   19     -2.66      0.00
    0   15   19      6.79      0.00
    2   15   19      6.27      0.00
    4   15   19      1.96      0.00
    6   15   19      0.83      0.00
    8   15   19     -4.71      0.00
   10   15   19      0.70      0.00
   12   15   19     -3.82      0.00
   14   15   19      2.66      0.00
    1   16   19     -7.53      0.00
    3   16   19     -2.78      0.00
    5   16   19     -3.90      0.00
    7   16   19      1.31      0.00
    9   16   19     -2.58      0.00
   11   16   19     -6.55      0.00
   13   16   19     -1.99      0.00
   15   16   19     -9.68      0.00
    0   17   19      1.65      0.00
    2   17   19      3.97      0.00
    4   17   19     -6.37      0.00
    6   17   19      3.37      0.00
    8   17   19     -2.96      0.00
   10   17   19     -2.31      0.00
   12   17   19     -1.41      0.00
   14   17   19     -1.78      0.00
   16   17   19      6.21      0.00
    1   18   19      0.72      0.00
    3   18   19      5.13      0.00
    5   18   19     -2.39      0.00
    7   18   19     -2.24      0.00
    9   18   19      0.81      0.00
   11   18   19      3.52      0.00
   13   18   19    -15.54      0.00
   15   18   19     -9.42      0.00
   17   18   19    -10.75      0.00
    0   19   19     -1.13      0.00
    2   19   19      4.46      0.00
    4   19   19      4.99      0.00
    6   19   19     -5.54      0.00
    8   19   19      1.40      0.00
   10   19   19     -8.89      0.00
   12   19   19      5.82      0.00
   14   19   19      9.00      0.00
   16   19   19     -8.03      0.00
    1   20   19     -1.24      0.00
    3   20   19      0.90      0.00
    5   20   19     -4.58      0.00
    7   20   19      4.67      0.00
    9   20   19      3.46      0.00
   11   20   19    -10.61      0.00
   13   20   19     12.26      0.00
    0   21   19      2.45      0.00
    2   21   19      3.28      0.00
    4   21   19     -5.81      0.00
    6   21   19      8.89      0.00
    8   21   19     -1.41      0.00
   10   21   19      0.73      0.00
   12   21   19      5.42      0.00
    1   22   19     13.58      0.00
    3   22   19     10.84      0.00
    5   22   19      5.11      0.00
    7   22   19      9.57      0.00
    9   22   19      5.73      0.00
   11   22   19     -0.88      0.00
    0   23   19    -11.65      0.00
    2   23   19      3.59      0.00
    4   23   19      3.32      0.00
    6   23   19      0.14      0.00
    8   23   19      6.45      0.00
    1   24   19     -2.84      0.00
    3   24   19     -3.21      0.00
    5   24   19     -2.36      0.00
    0    0   20     -6.56      0.00
    0    2   20     40.69      0.00
    2    2   20     38.60      0.00
    1    3   20      4.47      0.00
    0    4   20     -0.04      0.00
    2    4   20    -15.76      0.00
    4    4   20      6.74      0.00
    1    5   20    -10.32      0.00
    3    5   20      7.94      0.00
    0    6   20      7.37      0.00
    2    6   20      3.93      0.00
    4    6   20      3.89      0.00
    6    6   20      6.60      0.00
    1    7   20     -3.51      0.00
    3    7   20      0.06      0.00
    5    7   20      3.13      0.00
    0    8   20     13.38      0.00
    2    8   20    -20.80      0.00
    4    8   20     19.71      0.00
    6    8   20     -3.82      0.00
    8    8   20      0.54      0.00
    1    9   20    -13.02      0.00
    3    9   20     -5.03      0.00
    5    9   20      1.24      0.00
    7    9   20     -6.79      0.00
    0   10   20      1.57      0.00
    2   10   20     -3.05      0.00
    4   10   20     -6.97      0.00
    6   10   20      1.64      0.00
    8   10   20      1.59      0.00
   10   10   20     -1.85      0.00
    1   11   20     -7.08      0.00
    3   11   20      2.69      0.00
    5   11   20      2.15      0.00
    7   11   20     -3.63      0.00
    9   11   20      4.65      0.00
    0   12   20      2.06      0.00
    2   12   20     -6.63      0.00
    4   12   20      2.15      0.00
    6   12   20     -2.10      0.00
    8   12   20     -0.21      0.00
   10   12   20      1.60      0.00
   12   12   20      3.24      0.00
    1   13   20      1.34      0.00
    3   13   20     -0.65      0.00
    5   13   20     -2.59      0.00
    7   13   20     -2.83      0.00
    9   13   20     -2.20      0.00
   11   13   20      0.03      0.00
    0   14   20      1.38      0.00
    2   14   20      1.44      0.00
    4   14   20      1.84      0.00
    6   14   20     -2.97      0.00
    8   14   20      4.72      0.00
   10   14   20      0.16      0.00
   12   14   20      1.50      0.00
   14   14   20      0.87      0.00
    1   15   20      1.65      0.00
    3   15   20      4.06      0.00
    5   15   20      0.38      0.00
    7   15   20     -9.56      0.00
    9   15   20     -4.19      0.00
   11   15   20      1.83      0.00
   13   15   20     -0.23      0.00
    0   16   20      2.90      0.00
    2   16   20      3.11      0.00
    4   16   20     -1.86      0.00
    6   16   20     -1.73      0.00
    8   16   20      1.95      0.00
   10   16   20      5.78      0.00
   12   16   20      0.27      0.00
   14   16   20      5.38      0.00
   16   16   20     10.11      0.00
    1   17   20     -5.93      0.00
    3   17   20     -0.08      0.00
    5   17   20     -3.62      0.00
    7   17   20     -4.53      0.00
    9   17   20     -2.25      0.00
   11   17   20     -3.08      0.00
   13   17   20     -4.99      0.00
   15   17   20     -5.43      0.00
    0   18   20     -2.38      0.00
    2   18   20     -3.05      0.00
    4   18   20     -1.92      0.00
    6   18   20     -1.30      0.00
    8   18   20     -8.57      0.00
   10   18   20      2.07      0.00
   12   18   20     -1.61      0.00
   14   18   20      4.27      0.00
   16   18   20     -1.99      0.00
    1   19   20    -11.24      0.00
    3   19   20     -2.21      0.00
    5   19   20     -4.27      0.00
    7   19   20    -11.60      0.00
    9   19   20      1.33      0.00
   11   19   20     -4.67      0.00
   13   19   20     -0.51      0.00
   15   19   20     -8.94      0.00
    0   20   20     -5.35      0.00
    2   20   20     -3.83      0.00
    4   20   20      1.73      0.00
    6   20   20     -0.14      0.00
    8   20   20      2.38      0.00
   10   20   20      1.24      0.00
   12   20   20     -8.37      0.00
   14   20   20     -0.49      0.00
    1   21   20     -0.74      0.00
    3   21   20    -10.02      0.00
    5   21   20     -3.59      0.00
    7   21   20     -4.61      0.00
    9   21   20    -14.34      0.00
   11   21   20      3.04      0.00
   13   21   20     -6.29      0.00
    0   22   20     -1.91      0.00
    2   22   20     -4.52      0.00
    4   22   20     -6.20      0.00
    6   22   20     -1.37      0.00
    8   22   20     -2.55      0.00
   10   22   20     -6.15      0.00
    1   23   20      1.62      0.00
    3   23   20     -0.53      0.00
    5   23   20     -8.88      0.00
    7   23   20     -8.64      0.00
    9   23   20      5.35      0.00
    0   24   20     -0.37      0.00
    2   24   20      4.90      0.00
    4   24   20      8.47      0.00
    6   24   20      5.93      0.00
    0    1   21    -12.58      0.00
    1    2   21      7.18      0.00
    0    3   21      6.28      0.00
    2    3   21    -12.33      0.00
    1    4   21      3.99      0.00
    3    4   21      6.18      0.00
    0    5   21      8.55      0.00
    2    5   21     -5.56      0.00
    4    5   21      2.10      0.00
    1    6   21      3.75      0.00
    3    6   21      3.32      0.00
    5    6   21      9.44      0.00
    0    7   21     22.38      0.00
    2    7   21     18.65      0.00
    4    7   21     -2.40      0.00
    6    7   21      5.64      0.00
    1    8   21     -1.03      0.00
    3    8   21     -9.68      0.00
    5    8   21      2.61      0.00
    7    8   21     -1.01      0.00
    0    9   21      4.43      0.00
    2    9   21      1.10      0.00
    4    9   21      0.82      0.00
    6    9   21     10.45      0.00
    8    9   21      2.15      0.00
    1   10   21    -10.97      0.00
    3   10   21     -5.69      0.00
    5   10   21     -2.71      0.00
    7   10   21     -5.06      0.00
    9   10   21     -2.16      0.00
    0   11   21     -6.62      0.00
    2   11   21      4.13      0.00
    4   11   21     -0.04      0.00
    6   11   21     -1.56      0.00
    8   11   21      0.67      0.00
   10   11   21     -4.24      0.00
    1   12   21     -8.16      0.00
    3   12   21     -6.55      0.00
    5   12   21      0.34      0.00
    7   12   21      2.04      0.00
    9   12   21     -5.28      0.00
   11   12   21      2.06      0.00
    0   13   21     -3.43      0.00
    2   13   21     -1.93      0.00
    4   13   21     -2.35      0.00
    6   13   21      1.20      0.00
    8   13   21      0.08      0.00
   10   13   21      0.44      0.00
   12   13   21      4.28      0.00
    1   14   21      0.48      0.00
    3   14   21     -2.68      0.00
    5   14   21     -0.88      0.00
    7   14   21      0.81      0.00
    9   14   21      1.64      0.00
   11   14   21      1.68      0.00
   13   14   21      1.13      0.00
    0   15   21     -7.15      0.00
    2   15   21     -1.62      0.00
    4   15   21     -4.39      0.00
    6   15   21      1.04      0.00
    8   15   21     -5.64      0.00
   10   15   21     -4.81      0.00
   12   15   21    -11.36      0.00
   14   15   21      3.97      0.00
    1   16   21     -3.58      0.00
    3   16   21     -2.34      0.00
    5   16   21      1.25      0.00
    7   16   21     -0.73      0.00
    9   16   21     -1.77      0.00
   11   16   21     -1.86      0.00
   13   16   21      0.93      0.00
   15   16   21     -6.84      0.00
    0   17   21     -1.54      0.00
    2   17   21     -1.02      0.00
    4   17   21     -5.03      0.00
    6   17   21      2.04      0.00
    8   17   21     -3.31      0.00
   10   17   21      2.44      0.00
   12   17   21      4.67      0.00
   14   17   21     -2.84      0.00
   16   17   21     -8.98      0.00
    1   18   21      0.37      0.00
    3   18   21     -5.52      0.00
    5   18   21     -2.12      0.00
    7   18   21     -3.47      0.00
    9   18   21     -6.12      0.00
   11   18   21     -1.85      0.00
   13   18   21     -4.33      0.00
   15   18   21     -8.36      0.00
    0   19   21     -5.35      0.00
    2   19   21      0.09      0.00
    4   19   21      1.50      0.00
    6   19   21      4.62      0.00
    8   19   21      3.83      0.00
   10   19   21      1.36      0.00
   12   19   21     -2.71      0.00
   14   19   21      3.46      0.00
    1   20   21     -2.69      0.00
    3   20   21      0.03      0.00
    5   20   21      1.64      0.00
    7   20   21     -0.49      0.00
    9   20   21     -5.48      0.00
   11   20   21     -5.28      0.00
   13   20   21      1.10      0.00
    0   21   21      8.67      0.00
    2   21   21      3.49      0.00
    4   21   21      1.50      0.00
    6   21   21      7.26      0.00
    8   21   21     -1.46      0.00
   10   21   21     -0.94      0.00
   12   21   21      1.73      0.00
    1   22   21     -3.43      0.00
    3   22   21      4.41      0.00
    5   22   21      3.64      0.00
    7   22   21     -3.60      0.00
    9   22   21     -1.85      0.00
   11   22   21     11.03      0.00
    0   23   21     -5.92      0.00
    2   23   21      0.97      0.00
    4   23   21      1.50      0.00
    6   23   21      5.07      0.00
    8   23   21     -0.02      0.00
    1   24   21     -1.45      0.00
    3   24   21      0.05      0.00
    5   24   21     -3.81      0.00
    1    1   22    -23.52      0.00
    0    2   22     -3.93      0.00
    1    3   22      7.17      0.00
    3    3   22     15.48      0.00
    0    4   22     -1.40      0.00
    2    4   22      7.15      0.00
    1    5   22      9.88      0.00
    3    5   22     24.38      0.00
    5    5   22      8.22      0.00
    0    6   22     -0.01      0.00
    2    6   22     11.15      0.00
    4    6   22     -5.30      0.00
    1    7   22     -4.49      0.00
    3    7   22     -9.56      0.00
    5    7   22     -6.12      0.00
    7    7   22     -0.78      0.00
    0    8   22    -10.20      0.00
    2    8   22     10.01      0.00
    4    8   22      3.83      0.00
    6    8   22     -2.34      0.00
    1    9   22      6.99      0.00
    3    9   22     -1.84      0.00
    5    9   22     -2.35      0.00
    7    9   22     -2.40      0.00
    9    9   22      7.77      0.00
    0   10   22      0.33      0.00
    2   10   22     10.39      0.00
    4   10   22     -0.92      0.00
    6   10   22     12.74      0.00
    8   10   22     -1.92      0.00
    1   11   22      0.46      0.00
    3   11   22      0.41      0.00
    5   11   22     -4.43      0.00
    7   11   22      0.87      0.00
    9   11   22      1.82      0.00
   11   11   22     -2.58      0.00
    0   12   22     -9.00      0.00
    2   12   22      6.12      0.00
    4   12   22     -0.05      0.00
    6   12   22      1.05      0.00
    8   12   22      4.00      0.00
   10   12   22     -1.71      0.00
    1   13   22     -0.31      0.00
    3   13   22     -6.96      0.00
    5   13   22      2.09      0.00
    7   13   22      9.86      0.00
    9   13   22      2.32      0.00
   11   13   22      2.48      0.00
   13   13   22     -1.88      0.00
    0   14   22     -3.33      0.00
    2   14   22     -0.19      0.00
    4   14   22     -5.45      0.00
    6   14   22     -1.07      0.00
    8   14   22    -10.45      0.00
   10   14   22      0.01      0.00
   12   14   22      6.12      0.00
    1   15   22      0.02      0.00
    3   15   22      1.64      0.00
    5   15   22     -3.53      0.00
    7   15   22     -0.31      0.00
    9   15   22     13.08      0.00
   11   15   22      3.25      0.00
   13   15   22      2.47      0.00
   15   15   22      4.46      0.00
    0   16   22     -1.71      0.00
    2   16   22     -2.57      0.00
    4   16   22     -0.46      0.00
    6   16   22      2.29      0.00
    8   16   22      4.34      0.00
   10   16   22      1.80      0.00
   12   16   22     -6.04      0.00
   14   16   22     -2.86      0.00
    1   17   22      4.33      0.00
    3   17   22      2.68      0.00
    5   17   22      3.79      0.00
    7   17   22      4.68      0.00
    9   17   22     -0.54      0.00
   11   17   22      6.22      0.00
   13   17   22      1.56      0.00
   15   17   22      3.98      0.00
   17   17   22     -6.11      0.00
    0   18   22      3.02      0.00
    2   18   22     12.23      0.00
    4   18   22      1.82      0.00
    6   18   22     -4.98      0.00
    8   18   22     -5.09      0.00
   10   18   22     -0.62      0.00
   12   18   22     -1.64      0.00
   14   18   22     -1.14      0.00
   16   18   22     -6.95      0.00
    1   19   22      3.28      0.00
    3   19   22      8.13      0.00
    5   19   22      2.33      0.00
    7   19   22     10.06      0.00
    9   19   22     13.43      0.00
   11   19   22     -0.21      0.00
   13   19   22     -0.62      0.00
   15   19   22      3.46      0.00
    0   20   22      2.13      0.00
    2   20   22     -1.83      0.00
    4   20   22      4.47      0.00
    6   20   22     -1.39      0.00
    8   20   22     -7.60      0.00
   10   20   22     -3.01      0.00
   12   20   22     -2.74      0.00
   14   20   22     -9.70      0.00
    1   21   22     -2.74      0.00
    3   21   22     -1.77      0.00
    5   21   22     -1.14      0.00
    7   21   22     -1.73      0.00
    9   21   22    -14.34      0.00
   11   21   22      0.38      0.00
    0   22   22      9.86      0.00
    2   22   22     -0.39      0.00
    4   22   22     -4.01      0.00
    6   22   22     -4.35      0.00
    8   22   22     -8.03      0.00
   10   22   22     -4.06      0.00
    1   23   22     14.54      0.00
    3   23   22      7.79      0.00
    5   23   22      2.30      0.00
    7   23   22      6.51      0.00
    0   24   22    -11.96      0.00
    2   24   22     -4.95      0.00
    4   24   22      9.88      0.00
    0    1   23     -5.12      0.00
    1    2   23      4.85      0.00
    0    3   23      1.59      0.00
    2    3   23    -10.57      0.00
    1    4   23    -12.80      0.00
    3    4   23     -4.26      0.00
    0    5   23    -14.03      0.00
    2    5   23    -10.64      0.00
    4    5   23      0.80      0.00
    1    6   23     11.48      0.00
    3    6   23      1.58      0.00
    5    6   23     -4.42      0.00
    0    7   23     -6.31      0.00
    2    7   23      6.60      0.00
    4    7   23     -3.20      0.00
    6    7   23      4.67      0.00
    1    8   23      4.63      0.00
    3    8   23     -2.35      0.00
    5    8   23      0.52      0.00
    7    8   23      0.43      0.00
    0    9   23     -4.89      0.00
    2    9   23     -0.35      0.00
    4    9   23      2.76      0.00
    6    9   23      3.62      0.00
    8    9   23     -9.15      0.00
    1   10   23      3.57      0.00
    3   10   23      8.35      0.00
    5   10   23     -7.53      0.00
    7   10   23      3.94      0.00
    9   10   23     -1.40      0.00
    0   11   23      7.23      0.00
    2   11   23     -5.96      0.00
    4   11   23      4.77      0.00
    6   11   23     -2.13      0.00
    8   11   23      3.19      0.00
   10   11   23     -2.73      0.00
    1   12   23      0.96      0.00
    3   12   23     -2.46      0.00
    5   12   23     -2.49      0.00
    7   12   23     -3.02      0.00
    9   12   23      4.10      0.00
   11   12   23      5.09      0.00
    0   13   23      5.15      0.00
    2   13   23      1.94      0.00
    4   13   23     -5.86      0.00
    6   13   23      5.09      0.00
    8   13   23    -10.79      0.00
   10   13   23     -2.04      0.00
   12   13   23     -0.01      0.00
    1   14   23     -1.31      0.00
    3   14   23      2.18      0.00
    5   14   23     -2.02      0.00
    7   14   23     -0.09      0.00
    9   14   23      2.91      0.00
   11   14   23     -3.45      0.00
   13   14   23     -9.80      0.00
    0   15   23     -3.99      0.00
    2   15   23     -1.14      0.00
    4   15   23      3.47      0.00
    6   15   23     -4.54      0.00
    8   15   23      8.37      0.00
   10   15   23     -5.04      0.00
   12   15   23     -6.54      0.00
   14   15   23      1.66      0.00
    1   16   23      0.60      0.00
    3   16   23     -0.73      0.00
    5   16   23     -2.59      0.00
    7   16   23      0.55      0.00
    9   16   23     -2.55      0.00
   11   16   23     -3.06      0.00
   13   16   23      2.82      0.00
   15   16   23     -2.55      0.00
    0   17   23     -1.33      0.00
    2   17   23      0.55      0.00
    4   17   23    -12.65      0.00
    6   17   23      7.10      0.00
    8   17   23      3.61      0.00
   10   17   23      5.77      0.00
   12   17   23      0.01      0.00
   14   17   23     -0.50      0.00
   16   17   23      6.59      0.00
    1   18   23     -5.91      0.00
    3   18   23      0.59      0.00
    5   18   23     -1.60      0.00
    7   18   23      6.76      0.00
    9   18   23      5.75      0.00
   11   18   23     -8.87      0.00
   13   18   23      2.74      0.00
   15   18   23    -10.39      0.00
    0   19   23      1.99      0.00
    2   19   23     -5.07      0.00
    4   19   23     -2.20      0.00
    6   19   23     -1.41      0.00
    8   19   23      1.00      0.00
   10   19   23      3.70      0.00
   12   19   23      5.65      0.00
   14   19   23      3.12      0.00
    1   20   23      0.71      0.00
    3   20   23     -3.50      0.00
    5   20   23    -13.04      0.00
    7   20   23     -5.55      0.00
    9   20   23      4.70      0.00
   11   20   23     -2.47      0.00
   13   20   23      2.68      0.00
    0   21   23     -1.30      0.00
    2   21   23     10.30      0.00
    4   21   23      6.48      0.00
    6   21   23     -2.98      0.00
    8   21   23      4.71      0.00
   10   21   23      2.66      0.00
   12   21   23      0.88      0.00
    1   22   23     -0.58      0.00
    3   22   23     -1.91      0.00
    5   22   23     -2.27      0.00
    7   22   23      0.04      0.00
    9   22   23     -5.94      0.00
    0   23   23      3.29      0.00
    2   23   23      1.03      0.00
    4   23   23     -3.53      0.00
    6   23   23     -0.16      0.00
    8   23   23     -2.17      0.00
    1   24   23      7.67      0.00
    3   24   23      0.95      0.00
    0    0   24     22.02      0.00
    0    2   24     14.57      0.00
    2    2   24    -12.29      0.00
    1    3   24     -3.78      0.00
    0    4   24    -25.08      0.00
    2    4   24    -11.33      0.00
    4    4   24      5.65      0.00
    1    5   24     -3.33      0.00
    3    5   24    -10.52      0.00
    0    6   24     14.67      0.00
    2    6   24     -5.76      0.00
    4    6   24      3.53      0.00
    6    6   24      0.86      0.00
    1    7   24     -2.46      0.00
    3    7   24      5.70      0.00
    5    7   24     -0.65      0.00
    0    8   24      6.37      0.00
    2    8   24     -9.67      0.00
    4    8   24      6.04      0.00
    6    8   24     -2.16      0.00
    8    8   24     -0.56      0.00
    1    9   24      6.44      0.00
    3    9   24      1.04      0.00
    5    9   24      6.28      0.00
    7    9   24      2.29      0.00
    0   10   24      3.08      0.00
    2   10   24     -9.25      0.00
    4   10   24     -3.42      0.00
    6   10   24     -7.89      0.00
    8   10   24     -3.00      0.00
   10   10   24     -5.17      0.00
    1   11   24      1.49      0.00
    3   11   24      3.96      0.00
    5   11   24      1.26      0.00
    7   11   24     -2.57      0.00
    9   11   24      9.01      0.00
    0   12   24      6.01      0.00
    2   12   24     -2.97      0.00
    4   12   24      3.24      0.00
    6   12   24     -1.21      0.00
    8   12   24      1.97      0.00
   10   12   24     -1.44      0.00
   12   12   24     -0.41      0.00
    1   13   24     -5.21      0.00
    3   13   24      2.54      0.00
    5   13   24      4.95      0.00
    7   13   24     -2.97      0.00
    9   13   24     -5.84      0.00
   11   13   24      1.28      0.00
    0   14   24      2.48      0.00
    2   14   24     -0.08      0.00
    4   14   24      4.48      0.00
    6   14   24      2.51      0.00
    8   14   24      0.92      0.00
   10   14   24      1.71      0.00
   12   14   24      3.39      0.00
   14   14   24     -3.31      0.00
    1   15   24     -8.59      0.00
    3   15   24     -0.29      0.00
    5   15   24     -0.98      0.00
    7   15   24     -1.24      0.00
    9   15   24     -0.05      0.00
   11   15   24     -0.05      0.00
   13   15   24      7.52      0.00
    0   16   24      4.24      0.00
    2   16   24      0.31      0.00
    4   16   24      5.31      0.00
    6   16   24     -1.07      0.00
    8   16   24     -4.34      0.00
   10   16   24     -1.01      0.00
   12   16   24     -7.82      0.00
   14   16   24      1.98      0.00
   16   16   24      8.77      0.00
    1   17   24     -4.52      0.00
    3   17   24      0.45      0.00
    5   17   24      2.76      0.00
    7   17   24     -8.14      0.00
    9   17   24     -0.73      0.00
   11   17   24     -7.91      0.00
   13   17   24     -0.84      0.00
   15   17   24     -5.14      0.00
    0   18   24      2.85      0.00
    2   18   24      3.66      0.00
    4   18   24      3.32      0.00
    6   18   24     -0.83      0.00
    8   18   24      2.69      0.00
   10   18   24      4.25      0.00
   12   18   24      0.09      0.00
   14   18   24      6.40      0.00
   16   18   24      7.84      0.00
    1   19   24     -6.95      0.00
    3   19   24     -6.39      0.00
    5   19   24      0.65      0.00
    7   19   24      9.15      0.00
    9   19   24      8.02      0.00
   11   19   24      8.33      0.00
   13   19   24    -13.66      0.00
   15   19   24     -5.58      0.00
    0   20   24      6.65      0.00
    2   20   24     -9.22      0.00
    4   20   24      2.30      0.00
    6   20   24     -0.61      0.00
    8   20   24      1.31      0.00
   10   20   24      4.33      0.00
   12   20   24      1.02      0.00
    1   21   24      3.33      0.00
    3   21   24      2.62      0.00
    5   21   24     10.09      0.00
    7   21   24      0.50      0.00
    9   21   24     -2.18      0.00
   11   21   24      0.89      0.00
    0   22   24     -1.28      0.00
    2   22   24      3.49      0.00
    4   22   24    -17.09      0.00
    6   22   24      6.46      0.00
    8   22   24      6.20      0.00
   10   22   24     15.41      0.00
    1   23   24     -6.31      0.00
    3   23   24      3.17      0.00
    5   23   24      0.98      0.00
    7   23   24     -2.97      0.00
    0   24   24     -3.36      0.00
    2   24   24     -3.69      0.00
    4   24   24     -2.66      0.00
    0    1   25      8.44      0.00
    1    2   25     -0.95      0.00
    0    3   25    -13.99      0.00
    2    3   25    -19.77      0.00
    1    4   25      7.40      0.00
    3    4   25     -5.89      0.00
    0    5   25      9.56      0.00
    2    5   25      9.11      0.00
    4    5   25     -5.80      0.00
    1    6   25     -8.84      0.00
    3    6   25     -0.72      0.00
    5    6   25      0.18      0.00
    0    7   25      7.62      0.00
    2    7   25     -6.20      0.00
    4    7   25      1.11      0.00
    6    7   25     -6.15      0.00
    1    8   25     -2.72      0.00
    3    8   25     -6.21      0.00
    5    8   25      1.67      0.00
    7    8   25     -2.09      0.00
    0    9   25      6.21      0.00
    2    9   25      3.26      0.00
    4    9   25     -2.37      0.00
    6    9   25     -1.70      0.00
    8    9   25     -1.76      0.00
    1   10   25      0.03      0.00
    3   10   25      2.24      0.00
    5   10   25      4.17      0.00
    7   10   25      2.88      0.00
    9   10   25     -1.29      0.00
    0   11   25     -0.71      0.00
    2   11   25      0.01      0.00
    4   11   25     -0.18      0.00
    6   11   25     -8.77      0.00
    8   11   25     -0.36      0.00
   10   11   25      3.78      0.00
    1   12   25      0.81      0.00
    3   12   25      3.00      0.00
    5   12   25      0.61      0.00
    7   12   25     -0.02      0.00
    9   12   25     -5.10      0.00
   11   12   25     -0.29      0.00
    0   13   25      1.11      0.00
    2   13   25      1.77      0.00
    4   13   25     -3.22      0.00
    6   13   25      3.73      0.00
    8   13   25     -1.41      0.00
   10   13   25      3.40      0.00
   12   13   25      0.83      0.00
    1   14   25      0.73      0.00
    3   14   25      1.20      0.00
    5   14   25      7.26      0.00
    7   14   25      3.23      0.00
    9   14   25     -2.10      0.00
   11   14   25     -3.45      0.00
   13   14   25      0.53      0.00
    0   15   25     -0.15      0.00
    2   15   25     -1.02      0.00
    4   15   25      0.87      0.00
    6   15   25      1.04      0.00
    8   15   25     -4.93      0.00
   10   15   25      2.63      0.00
   12   15   25     -0.33      0.00
   14   15   25      7.96      0.00
    1   16   25      1.32      0.00
    3   16   25      0.50      0.00
    5   16   25     -0.19      0.00
    7   16   25      3.64      0.00
    9   16   25      0.74      0.00
   11   16   25      3.63      0.00
   13   16   25      3.55      0.00
   15   16   25      5.26      0.00
    0   17   25     -3.50      0.00
    2   17   25     -1.54      0.00
    4   17   25     -3.87      0.00
    6   17   25      7.02      0.00
    8   17   25     -5.34      0.00
   10   17   25      0.65      0.00
   12   17   25     -2.49      0.00
   14   17   25      0.09      0.00
   16   17   25     10.08      0.00
    1   18   25     -4.42      0.00
    3   18   25     -1.93      0.00
    5   18   25      2.05      0.00
    7   18   25      1.81      0.00
    9   18   25     -1.59      0.00
   11   18   25     -1.05      0.00
   13   18   25      4.58      0.00
   15   18   25     12.77      0.00
    0   19   25      6.21      0.00
    2   19   25      3.29      0.00
    4   19   25     -1.44      0.00
    6   19   25     -3.16      0.00
    8   19   25    -11.85      0.00
   10   19   25     -5.88      0.00
   12   19   25     -0.95      0.00
   14   19   25      2.34      0.00
    1   20   25      5.11      0.00
    3   20   25      1.78      0.00
    5   20   25      1.44      0.00
    7   20   25     -1.38      0.00
    9   20   25      3.47      0.00
   11   20   25     -9.69      0.00
   13   20   25      9.25      0.00
    0   21   25      0.02      0.00
    2   21   25     15.29      0.00
    4   21   25     -5.88      0.00
    6   21   25      4.50      0.00
    8   21   25      0.53      0.00
   10   21   25      4.62      0.00
   12   21   25     -4.10      0.00
    1   22   25     -4.06      0.00
    3   22   25      3.54      0.00
    5   22   25     -1.05      0.00
    7   22   25      0.25      0.00
    9   22   25     -7.87      0.00
    0   23   25      6.56      0.00
    2   23   25     -1.52      0.00
    4   23   25      6.35      0.00
    6   23   25      0.16      0.00
    1   24   25      6.63      0.00
    3   24   25     -3.77      0.00
    1    1   26     15.31      0.00
    0    2   26      8.17      0.00
    1    3   26      2.89      0.00
    3    3   26      0.59      0.00
    0    4   26    -11.46      0.00
    2    4   26      0.77      0.00
    1    5   26     -9.75      0.00
    3    5   26      2.95      0.00
    5    5   26     -8.26      0.00
    0    6   26     -2.39      0.00
    2    6   26      5.16      0.00
    4    6   26     -2.70      0.00
    1    7   26      1.19      0.00
    3    7   26     -4.86      0.00
    5    7   26      1.74      0.00
    7    7   26      0.53      0.00
    0    8   26     -6.99      0.00
    2    8   26     -1.18      0.00
    4    8   26     -0.33      0.00
    6    8   26      3.47      0.00
    1    9   26      1.30      0.00
    3    9   26      0.72      0.00
    5    9   26      4.27      0.00
    7    9   26     -0.77      0.00
    9    9   26     -9.46      0.00
    0   10   26     -6.81      0.00
    2   10   26      9.29      0.00
    4   10   26     -3.36      0.00
    6   10   26      0.63      0.00
    8   10   26      0.02      0.00
    1   11   26      2.47      0.00
    3   11   26      1.16      0.00
    5   11   26     -2.08      0.00
    7   11   26     -0.04      0.00
    9   11   26     -1.35      0.00
   11   11   26     -5.16      0.00
    0   12   26     -6.81      0.00
    2   12   26      2.71      0.00
    4   12   26     -2.85      0.00
    6   12   26      7.15      0.00
    8   12   26     -1.26      0.00
   10   12   26      0.97      0.00
    1   13   26      3.38      0.00
    3   13   26     -0.03      0.00
    5   13   26     -3.44      0.00
    7   13   26      3.23      0.00
    9   13   26      1.92      0.00
   11   13   26     -0.96      0.00
   13   13   26     -1.86      0.00
    0   14   26     -1.34      0.00
    2   14   26     -1.68      0.00
    4   14   26     -6.19      0.00
    6   14   26     -0.21      0.00
    8   14   26     -3.07      0.00
   10   14   26     -1.63      0.00
   12   14   26     -1.91      0.00
    1   15   26      1.85      0.00
    3   15   26      2.25      0.00
    5   15   26      2.05      0.00
    7   15   26     -2.37      0.00
    9   15   26      0.87      0.00
   11   15   26      5.75      0.00
   13   15   26     -3.58      0.00
   15   15   26     -7.09      0.00
    0   16   26     -0.17      0.00
    2   16   26      3.47      0.00
    4   16   26     -3.61      0.00
    6   16   26     -6.03      0.00
    8   16   26     -1.85      0.00
   10   16   26     -0.88      0.00
   12   16   26      2.36      0.00
   14   16   26      6.47      0.00
    1   17   26      8.73      0.00
    3   17   26      6.62      0.00
    5   17   26     -2.51      0.00
    7   17   26      3.02      0.00
    9   17   26     -1.51      0.00
   11   17   26     -6.38      0.00
   13   17   26      0.89      0.00
   15   17   26      8.62      0.00
   17   17   26      7.11      0.00
    0   18   26     -1.52      0.00
    2   18   26      3.52      0.00
    4   18   26     -4.25      0.00
    6   18   26     -0.51      0.00
    8   18   26      1.90      0.00
   10   18   26      4.47      0.00
   12   18   26      3.17      0.00
   14   18   26     -0.61      0.00
   16   18   26      2.50      0.00
    1   19   26     -1.07      0.00
    3   19   26      0.14      0.00
    5   19   26     -0.96      0.00
    7   19   26      0.22      0.00
    9   19   26     -1.97      0.00
   11   19   26      4.08      0.00
   13   19   26     -0.97      0.00
    0   20   26      0.85      0.00
    2   20   26     -2.25      0.00
    4   20   26      4.11      0.00
    6   20   26      0.65      0.00
    8   20   26     -2.97      0.00
   10   20   26      1.47      0.00
   12   20   26      8.62      0.00
    1   21   26     -5.62      0.00
    3   21   26    -10.21      0.00
    5   21   26     -2.26      0.00
    7   21   26      6.83      0.00
    9   21   26      3.65      0.00
   11   21   26      3.41      0.00
    0   22   26     -3.06      0.00
    2   22   26     -5.78      0.00
    4   22   26      7.13      0.00
    6   22   26      4.12      0.00
    8   22   26      3.12      0.00
    1   23   26    -16.76      0.00
    3   23   26     -4.97      0.00
    5   23   26      2.50      0.00
    7   23   26      3.14      0.00
    0   24   26      2.67      0.00
    2   24   26      3.50      0.00
    0    1   27     20.74      0.00
    1    2   27     12.98      0.00
    0    3   27     -8.36      0.00
    2    3   27     -5.98      0.00
    1    4   27     -6.31      0.00
    3    4   27      6.41      0.00
    0    5   27      0.24      0.00
    2    5   27      9.09      0.00
    4    5   27      0.73      0.00
    1    6   27     -2.55      0.00
    3    6   27     -5.05      0.00
    5    6   27     -1.48      0.00
    0    7   27     -9.59      0.00
    2    7   27      3.96      0.00
    4    7   27     11.80      0.00
    6    7   27      2.33      0.00
    1    8   27      7.08      0.00
    3    8   27      4.19      0.00
    5    8   27     -0.96      0.00
    7    8   27     -0.54      0.00
    0    9   27     -6.96      0.00
    2    9   27     -3.57      0.00
    4    9   27     -7.19      0.00
    6    9   27     10.64      0.00
    8    9   27      0.58      0.00
    1   10   27     -0.92      0.00
    3   10   27      1.89      0.00
    5   10   27     -9.83      0.00
    7   10   27     -3.06      0.00
    9   10   27     -1.85      0.00
    0   11   27     -4.37      0.00
    2   11   27      0.89      0.00
    4   11   27      0.06      0.00
    6   11   27     -2.79      0.00
    8   11   27     -1.02      0.00
   10   11   27     -1.91      0.00
    1   12   27      2.22      0.00
    3   12   27     -7.46      0.00
    5   12   27     -7.76      0.00
    7   12   27      1.18      0.00
    9   12   27     -0.57      0.00
   11   12   27      3.95      0.00
    0   13   27      6.27      0.00
    2   13   27      1.90      0.00
    4   13   27     -4.09      0.00
    6   13   27     -5.16      0.00
    8   13   27      2.57      0.00
   10   13   27     -4.70      0.00
   12   13   27      1.97      0.00
    1   14   27     -0.34      0.00
    3   14   27     -0.98      0.00
    5   14   27     -0.36      0.00
    7   14   27     -2.59      0.00
    9   14   27      1.90      0.00
   11   14   27      1.10      0.00
   13   14   27     -0.51      0.00
    0   15   27      9.58      0.00
    2   15   27     -0.87      0.00
    4   15   27     -1.68      0.00
    6   15   27      1.75      0.00
    8   15   27      1.58      0.00
   10   15   27     12.55      0.00
   12   15   27     -1.00      0.00
   14   15   27     -4.01      0.00
    1   16   27      0.23      0.00
    3   16   27      4.33      0.00
    5   16   27      4.13      0.00
    7   16   27      2.45      0.00
    9   16   27      6.15      0.00
   11   16   27      6.98      0.00
   13   16   27      8.55      0.00
   15   16   27     -0.35      0.00
    0   17   27      5.14      0.00
    2   17   27      6.89      0.00
    4   17   27     -4.45      0.00
    6   17   27     -4.12      0.00
    8   17   27     -4.09      0.00
   10   17   27     -1.69      0.00
   12   17   27     -3.39      0.00
   14   17   27      3.82      0.00
   16   17   27     -6.36      0.00
    1   18   27     -2.37      0.00
    3   18   27     -1.85      0.00
    5   18   27      1.85      0.00
    7   18   27      2.43      0.00
    9   18   27      5.19      0.00
   11   18   27     -2.13      0.00
   13   18   27      8.87      0.00
   15   18   27     -0.71      0.00
    0   19   27     -1.92      0.00
    2   19   27      2.56      0.00
    4   19   27      6.87      0.00
    6   19   27     -9.93      0.00
    8   19   27     -7.31      0.00
   10   19   27     -8.27      0.00
   12   19   27      2.05      0.00
   14   19   27      1.91      0.00
    1   20   27      1.77      0.00
    3   20   27      5.53      0.00
    5   20   27     -2.71      0.00
    7   20   27     -2.94      0.00
    9   20   27      6.35      0.00
   11   20   27     -7.44      0.00
   13   20   27      8.46      0.00
    0   21   27     26.84      0.00
    2   21   27      4.94      0.00
    4   21   27     -9.64      0.00
    6   21   27      1.46      0.00
    8   21   27      9.36      0.00
   10   21   27     -4.77      0.00
    1   22   27      2.42      0.00
    3   22   27      7.64      0.00
    5   22   27      8.17      0.00
    7   22   27     11.32      0.00
    9   22   27    -10.26      0.00
    0   23   27    -10.21      0.00
    2   23   27      5.86      0.00
    4   23   27     10.09      0.00
    6   23   27     -2.78      0.00
    1   24   27     -0.33      0.00
    0    0   28    -13.65      0.00
    0    2   28      3.49      0.00
    2    2   28    -21.17      0.00
    1    3   28     -6.12      0.00
    0    4   28      8.29      0.00
    2    4   28      3.56      0.00
    4    4   28      3.64      0.00
    1    5   28     10.59      0.00
    3    5   28      7.02      0.00
    0    6   28      1.01      0.00
    2    6   28     -0.72      0.00
    4    6   28      0.99      0.00
    6    6   28      0.81      0.00
    1    7   28     -6.41      0.00
    3    7   28     -5.50      0.00
    5    7   28      3.62      0.00
    0    8   28     -2.62      0.00
    2    8   28     -7.41      0.00
    4    8   28      0.33      0.00
    6    8   28     -0.50      0.00
    8    8   28      3.51      0.00
    1    9   28      2.54      0.00
    3    9   28      1.60      0.00
    5    9   28     -1.20      0.00
    7    9   28      0.51      0.00
    0   10   28      2.67      0.00
    2   10   28     -1.03      0.00
    4   10   28      1.15      0.00
    6   10   28     -0.97      0.00
    8   10   28      1.36      0.00
   10   10   28      5.14      0.00
    1   11   28     -0.35      0.00
    3   11   28      3.65      0.00
    5   11   28     -1.03      0.00
    7   11   28     -0.35      0.00
    9   11   28      0.45      0.00
    0   12   28      7.48      0.00
    2   12   28     -2.05      0.00
    4   12   28      2.14      0.00
    6   12   28     -2.28      0.00
    8   12   28      4.65      0.00
   10   12   28     -2.81      0.00
   12   12   28     -0.08      0.00
    1   13   28      2.93      0.00
    3   13   28      1.79      0.00
    5   13   28      2.71      0.00
    7   13   28      1.07      0.00
    9   13   28     -1.60      0.00
   11   13   28     -2.04      0.00
    0   14   28      4.11      0.00
    2   14   28     -5.48      0.00
    4   14   28      3.89      0.00
    6   14   28     -3.22      0.00
    8   14   28      0.40      0.00
   10   14   28      9.08      0.00
   12   14   28      3.51      0.00
   14   14   28      0.18      0.00
    1   15   28      5.08      0.00
    3   15   28      3.00      0.00
    5   15   28      6.36      0.00
    7   15   28     -3.57      0.00
    9   15   28      1.69      0.00
   11   15   28     -7.53      0.00
   13   15   28      8.92      0.00
    0   16   28     -1.61      0.00
    2   16   28      1.28      0.00
    4   16   28     -3.86      0.00
    6   16   28     -0.99      0.00
    8   16   28      0.15      0.00
   10   16   28      5.22      0.00
   12   16   28     -1.74      0.00
   14   16   28     -1.08      0.00
   16   16   28     -3.57      0.00
    1   17   28      2.16      0.00
    3   17   28      0.87      0.00
    5   17   28      3.41      0.00
    7   17   28      4.77      0.00
    9   17   28     -1.57      0.00
   11   17   28      7.01      0.00
   13   17   28      4.20      0.00
   15   17   28     -8.77      0.00
    0   18   28     10.19      0.00
    2   18   28     -8.83      0.00
    4   18   28      3.26      0.00
    6   18   28      0.11      0.00
    8   18   28     -9.89      0.00
   10   18   28     -1.93      0.00
   12   18   28      2.39      0.00
   14   18   28     -0.31      0.00
    1   19   28     -8.52      0.00
    3   19   28     15.56      0.00
    5   19   28      3.19      0.00
    7   19   28     -4.58      0.00
    9   19   28     -0.43      0.00
   11   19   28     -1.12      0.00
   13   19   28     -0.63      0.00
    0   20   28      4.35      0.00
    2   20   28      2.23      0.00
    4   20   28      4.20      0.00
    6   20   28      6.76      0.00
    8   20   28     -1.01      0.00
   10   20   28     -5.46      0.00
   12   20   28     -6.86      0.00
    1   21   28     -2.24      0.00
    3   21   28    -13.11      0.00
    5   21   28     11.70      0.00
    7   21   28     -4.38      0.00
    9   21   28     -9.00      0.00
   11   21   28      5.51      0.00
    0   22   28    -12.27      0.00
    2   22   28     -2.57      0.00
    4   22   28     -6.34      0.00
    6   22   28     -0.29      0.00
    8   22   28     -0.41      0.00
    1   23   28      8.23      0.00
    3   23   28      7.09      0.00
    5   23   28     -5.64      0.00
    0    1   29      9.24      0.00
    1    2   29     -6.32      0.00
    0    3   29     -0.37      0.00
    2    3   29     -2.71      0.00
    1    4   29      6.38      0.00
    3    4   29     -0.89      0.00
    0    5   29      8.49      0.00
    2    5   29      3.36      0.00
    4    5   29      3.37      0.00
    1    6   29     -3.30      0.00
    3    6   29     -5.94      0.00
    5    6   29     -0.29      0.00
    0    7   29     -6.17      0.00
    2    7   29     -8.49      0.00
    4    7   29     -3.54      0.00
    6    7   29    -12.59      0.00
    1    8   29      5.16      0.00
    3    8   29     -1.12      0.00
    5    8   29      0.20      0.00
    7    8   29     -1.54      0.00
    0    9   29      5.27      0.00
    2    9   29     -0.79      0.00
    4    9   29     -4.51      0.00
    6    9   29     -2.26      0.00
    8    9   29     -4.20      0.00
    1   10   29     -2.73      0.00
    3   10   29      3.80      0.00
    5   10   29      3.32      0.00
    7   10   29      3.74      0.00
    9   10   29     -0.81      0.00
    0   11   29      5.26      0.00
    2   11   29     -3.94      0.00
    4   11   29      7.41      0.00
    6   11   29      1.38      0.00
    8   11   29      3.07      0.00
   10   11   29      2.21      0.00
    1   12   29     -2.40      0.00
    3   12   29      3.24      0.00
    5   12   29      6.94      0.00
    7   12   29      1.16      0.00
    9   12   29     -5.02      0.00
   11   12   29     -1.65      0.00
    0   13   29     -1.31      0.00
    2   13   29     -4.19      0.00
    4   13   29     -0.74      0.00
    6   13   29      6.32      0.00
    8   13   29     -3.87      0.00
   10   13   29     -1.42      0.00
   12   13   29      4.74      0.00
    1   14   29      0.50      0.00
    3   14   29      3.23      0.00
    5   14   29     -0.31      0.00
    7   14   29      3.23      0.00
    9   14   29     -1.57      0.00
   11   14   29      0.74      0.00
   13   14   29      0.71      0.00
    0   15   29     -6.48      0.00
    2   15   29     -3.24      0.00
    4   15   29     -1.10      0.00
    6   15   29     -4.18      0.00
    8   15   29     -8.95      0.00
   10   15   29      6.57      0.00
   12   15   29     -3.52      0.00
   14   15   29     -2.86      0.00
    1   16   29      0.75      0.00
    3   16   29      5.36      0.00
    5   16   29      3.06      0.00
    7   16   29     -2.35      0.00
    9   16   29     -3.10      0.00
   11   16   29     -0.03      0.00
   13   16   29     -9.45      0.00
   15   16   29    -12.89      0.00
    0   17   29     -0.11      0.00
    2   17   29     -9.60      0.00
    4   17   29    -13.77      0.00
    6   17   29      2.44      0.00
    8   17   29     -5.21      0.00
   10   17   29      3.20      0.00
   12   17   29     -4.57      0.00
   14   17   29     16.47      0.00
   16   17   29     -1.17      0.00
    1   18   29     -0.06      0.00
    3   18   29      5.22      0.00
    5   18   29      0.72      0.00
    7   18   29      1.93      0.00
    9   18   29      1.16      0.00
   11   18   29    -10.89      0.00
   13   18   29     -2.94      0.00
   15   18   29     -2.54      0.00
    0   19   29     -4.59      0.00
    2   19   29      6.16      0.00
    4   19   29      0.03      0.00
    6   19   29     -0.40      0.00
    8   19   29      1.91      0.00
   10   19   29     -3.14      0.00
   12   19   29      0.83      0.00
   14   19   29     -0.73      0.00
    1   20   29      9.73      0.00
    3   20   29      0.51      0.00
    5   20   29     -7.36      0.00
    7   20   29      5.18      0.00
    9   20   29     -0.06      0.00
   11   20   29     -5.76      0.00
    0   21   29     -0.97      0.00
    2   21   29      3.52      0.00
    4   21   29     -4.89      0.00
    6   21   29      0.84      0.00
    8   21   29      3.97      0.00
   10   21   29     -1.22      0.00
    1   22   29     -2.00      0.00
    3   22   29     -4.73      0.00
    5   22   29     -3.14      0.00
    7   22   29    -11.62      0.00
    9   22   29     -7.25      0.00
    0   23   29     -3.97      0.00
    2   23   29      1.53      0.00
    4   23   29      1.98      0.00
    6   23   29     -3.79      0.00
    1    1   30     -0.56      0.00
    0    2   30      3.88      0.00
    1    3   30     16.88      0.00
    3    3   30      7.84      0.00
    0    4   30      3.15      0.00
    2    4   30     14.80      0.00
    1    5   30     -5.40      0.00
    3    5   30     -3.40      0.00
    5    5   30     -4.37      0.00
    0    6   30     -2.27      0.00
    2    6   30     -0.27      0.00
    4    6   30      1.46      0.00
    1    7   30      7.88      0.00
    3    7   30      2.30      0.00
    5    7   30      3.73      0.00
    7    7   30      3.29      0.00
    0    8   30     -2.75      0.00
    2    8   30      2.62      0.00
    4    8   30      0.36      0.00
    6    8   30      2.74      0.00
    1    9   30      3.18      0.00
    3    9   30     -7.60      0.00
    5    9   30     -2.49      0.00
    7    9   30     -0.89      0.00
    9    9   30     -1.34      0.00
    0   10   30     -1.44      0.00
    2   10   30     -1.86      0.00
    4   10   30     -2.33      0.00
    6   10   30     -4.33      0.00
    8   10   30     -4.94      0.00
    1   11   30     -6.49      0.00
    3   11   30     -1.10      0.00
    5   11   30      2.18      0.00
    7   11   30     -0.66      0.00
    9   11   30     -1.34      0.00
   11   11   30     -1.97      0.00
    0   12   30      4.14      0.00
    2   12   30      6.46      0.00
    4   12   30      1.14      0.00
    6   12   30      8.79      0.00
    8   12   30     -2.95      0.00
   10   12   30     -9.89      0.00
    1   13   30     -0.99      0.00
    3   13   30      0.94      0.00
    5   13   30     -1.40      0.00
    7   13   30      6.97      0.00
    9   13   30      1.16      0.00
   11   13   30      2.71      0.00
   13   13   30    -15.33      0.00
    0   14   30     -0.82      0.00
    2   14   30      0.97      0.00
    4   14   30     -0.03      0.00
    6   14   30     -0.54      0.00
    8   14   30     -2.59      0.00
   10   14   30      1.28      0.00
   12   14   30     -8.48      0.00
    1   15   30     -2.96      0.00
    3   15   30      5.62      0.00
    5   15   30     -0.17      0.00
    7   15   30      7.84      0.00
    9   15   30     -1.89      0.00
   11   15   30     -2.64      0.00
   13   15   30     -0.99      0.00
   15   15   30     -0.56      0.00
    0   16   30     -5.22      0.00
    2   16   30     -6.44      0.00
    4   16   30     -5.58      0.00
    6   16   30     -6.64      0.00
    8   16   30      3.83      0.00
   10   16   30     -0.56      0.00
   12   16   30     -0.50      0.00
   14   16   30      1.46      0.00
    1   17   30      1.98      0.00
    3   17   30      4.46      0.00
    5   17   30      1.85      0.00
    7   17   30      2.98      0.00
    9   17   30      0.90      0.00
   11   17   30      4.86      0.00
   13   17   30      6.50      0.00
   15   17   30      5.42      0.00
    0   18   30     -4.98      0.00
    2   18   30     11.04      0.00
    4   18   30     -4.12      0.00
    6   18   30      1.11      0.00
    8   18   30      5.10      0.00
   10   18   30     -3.26      0.00
   12   18   30     -8.19      0.00
   14   18   30     -2.60      0.00
    1   19   30      4.42      0.00
    3   19   30      1.15      0.00
    5   19   30     -2.42      0.00
    7   19   30      7.38      0.00
    9   19   30      8.22      0.00
   11   19   30      5.28      0.00
   13   19   30    -10.75      0.00
    0   20   30     -0.12      0.00
    2   20   30    -13.64      0.00
    4   20   30     11.28      0.00
    6   20   30      3.70      0.00
    8   20   30     -7.89      0.00
   10   20   30      5.61      0.00
   12   20   30      8.09      0.00
    1   21   30    -16.34      0.00
    3   21   30     -0.06      0.00
    5   21   30      6.93      0.00
    7   21   30    -15.49      0.00
    9   21   30    -11.21      0.00
    0   22   30      4.82      0.00
    2   22   30      4.37      0.00
    4   22   30     -1.84      0.00
    6   22   30      2.61      0.00
    8   22   30      2.74      0.00
    1   23   30      5.39      0.00
    3   23   30     -3.06      0.00
    5   23   30     -4.49      0.00
    0    1   31     -8.04      0.00
    1    2   31     -5.54      0.00
    0    3   31    -10.30      0.00
    2    3   31      2.03      0.00
    1    4   31     -2.70      0.00
    3    4   31      3.33      0.00
    0    5   31      1.81      0.00
    2    5   31      2.94      0.00
    4    5   31      2.94      0.00
    1    6   31      1.47      0.00
    3    6   31      3.18      0.00
    5    6   31      2.25      0.00
    0    7   31     -4.06      0.00
    2    7   31     -1.24      0.00
    4    7   31     -0.62      0.00
    6    7   31      0.39      0.00
    1    8   31      2.22      0.00
    3    8   31      0.31      0.00
    5    8   31      0.73      0.00
    7    8   31     -0.49      0.00
    0    9   31      2.19      0.00
    2    9   31      0.88      0.00
    4    9   31      3.17      0.00
    6    9   31     -1.39      0.00
    8    9   31      4.36      0.00
    1   10   31     -1.34      0.00
    3   10   31     -6.00      0.00
    5   10   31     -3.39      0.00
    7   10   31      2.82      0.00
    9   10   31      1.85      0.00
    0   11   31     -3.15      0.00
    2   11   31      4.45      0.00
    4   11   31      3.34      0.00
    6   11   31      7.72      0.00
    8   11   31      0.31      0.00
   10   11   31     -0.56      0.00
    1   12   31     -3.83      0.00
    3   12   31     -0.62      0.00
    5   12   31     -8.03      0.00
    7   12   31      1.71      0.00
    9   12   31     -0.87      0.00
   11   12   31      7.80      0.00
    0   13   31     -4.62      0.00
    2   13   31     -4.67      0.00
    4   13   31     -3.18      0.00
    6   13   31     -3.01      0.00
    8   13   31      0.93      0.00
   10   13   31     -3.07      0.00
   12   13   31     -2.07      0.00
    1   14   31      1.10      0.00
    3   14   31     -2.10      0.00
    5   14   31      1.26      0.00
    7   14   31      3.92      0.00
    9   14   31      0.05      0.00
   11   14   31      4.17      0.00
   13   14   31      0.54      0.00
    0   15   31     -0.72      0.00
    2   15   31     -1.63      0.00
    4   15   31      2.44      0.00
    6   15   31     -8.59      0.00
    8   15   31      5.04      0.00
   10   15   31     -3.10      0.00
   12   15   31     -5.32      0.00
   14   15   31     -1.32      0.00
    1   16   31      2.55      0.00
    3   16   31      1.17      0.00
    5   16   31      2.19      0.00
    7   16   31     -0.19      0.00
    9   16   31      1.20      0.00
   11   16   31     -8.30      0.00
   13   16   31      2.40      0.00
   15   16   31      0.24      0.00
    0   17   31     -9.00      0.00
    2   17   31     -0.44      0.00
    4   17   31     -4.30      0.00
    6   17   31      2.63      0.00
    8   17   31      5.69      0.00
   10   17   31     11.84      0.00
   12   17   31    -17.46      0.00
   14   17   31    -12.36      0.00
   16   17   31      0.73      0.00
    1   18   31     -3.95      0.00
    3   18   31     -7.40      0.00
    5   18   31     -2.37      0.00
    7   18   31      3.93      0.00
    9   18   31     14.98      0.00
   11   18   31      4.93      0.00
   13   18   31      8.68      0.00
   15   18   31    -15.55      0.00
    0   19   31     11.50      0.00
    2   19   31    -18.57      0.00
    4   19   31     -8.71      0.00
    6   19   31     -2.49      0.00
    8   19   31      3.85      0.00
   10   19   31      0.52      0.00
   12   19   31     -0.03      0.00
    1   20   31    -12.95      0.00
    3   20   31      6.80      0.00
    5   20   31     -3.95      0.00
    7   20   31     -0.94      0.00
    9   20   31      7.49      0.00
   11   20   31      3.60      0.00
    0   21   31     -5.43      0.00
    2   21   31      0.80      0.00
    4   21   31     -2.93      0.00
    6   21   31    -11.12      0.00
    8   21   31      3.00      0.00
   10   21   31     -8.45      0.00
    1   22   31      8.79      0.00
    3   22   31     -6.72      0.00
    5   22   31      3.60      0.00
    7   22   31     -2.47      0.00
    0   23   31    -11.05      0.00
    2   23   31     -1.48      0.00
    4   23   31     -1.67      0.00
    0    0   32      7.97      0.00
    0    2   32     -5.93      0.00
    2    2   32    -14.37      0.00
    1    3   32     -4.11      0.00
    0    4   32      8.43      0.00
    2    4   32      3.62      0.00
    4    4   32    -13.56      0.00
    1    5   32     -5.77      0.00
    3    5   32     -5.78      0.00
    0    6   32     -4.04      0.00
    2    6   32     -2.86      0.00
    4    6   32      6.73      0.00
    6    6   32      7.29      0.00
    1    7   32      0.80      0.00
    3    7   32      5.24      0.00
    5    7   32     -1.47      0.00
    0    8   32     -7.03      0.00
    2    8   32     -4.03      0.00
    4    8   32     -5.69      0.00
    6    8   32     -5.15      0.00
    8    8   32      3.21      0.00
    1    9   32      2.91      0.00
    3    9   32     -7.16      0.00
    5    9   32     -1.78      0.00
    7    9   32     -0.63      0.00
    0   10   32      4.97      0.00
    2   10   32      3.32      0.00
    4   10   32     10.22      0.00
    6   10   32     -0.50      0.00
    8   10   32     -0.39      0.00
   10   10   32     -1.86      0.00
    1   11   32     -2.66      0.00
    3   11   32      0.42      0.00
    5   11   32     -4.62      0.00
    7   11   32      5.76      0.00
    9   11   32      1.52      0.00
    0   12   32     -4.22      0.00
    2   12   32      3.85      0.00
    4   12   32      0.06      0.00
    6   12   32      3.79      0.00
    8   12   32     -0.61      0.00
   10   12   32      2.05      0.00
   12   12   32    -12.65      0.00
    1   13   32     -2.61      0.00
    3   13   32      0.60      0.00
    5   13   32      4.89      0.00
    7   13   32     -2.48      0.00
    9   13   32      7.10      0.00
   11   13   32     -0.70      0.00
    0   14   32      3.81      0.00
    2   14   32     -3.43      0.00
    4   14   32      4.01      0.00
    6   14   32      2.62      0.00
    8   14   32      0.89      0.00
   10   14   32      1.87      0.00
   12   14   32      1.30      0.00
   14   14   32     -0.25      0.00
    1   15   32     -3.38      0.00
    3   15   32      3.04      0.00
    5   15   32     -0.67      0.00
    7   15   32     11.72      0.00
    9   15   32     -3.78      0.00
   11   15   32     -9.04      0.00
   13   15   32     12.17      0.00
    0   16   32      1.65      0.00
    2   16   32     -3.85      0.00
    4   16   32      5.65      0.00
    6   16   32      3.29      0.00
    8   16   32     -7.61      0.00
   10   16   32      2.39      0.00
   12   16   32     -1.49      0.00
   14   16   32     -1.81      0.00
   16   16   32      8.04      0.00
    1   17   32     -1.91      0.00
    3   17   32      3.91      0.00
    5   17   32     12.25      0.00
    7   17   32     -3.90      0.00
    9   17   32     -4.15      0.00
   11   17   32     -0.10      0.00
   13   17   32     -6.44      0.00
   15   17   32    -20.42      0.00
    0   18   32     12.72      0.00
    2   18   32     -2.79      0.00
    4   18   32      4.75      0.00
    6   18   32      4.46      0.00
    8   18   32     -0.07      0.00
   10   18   32     -1.79      0.00
   12   18   32     -8.75      0.00
   14   18   32      3.12      0.00
    1   19   32      3.19      0.00
    3   19   32      0.99      0.00
    5   19   32      8.24      0.00
    7   19   32     -9.77      0.00
    9   19   32     -5.51      0.00
   11   19   32      5.89      0.00
   13   19   32      6.77      0.00
    0   20   32      3.39      0.00
    2   20   32      4.61      0.00
    4   20   32      5.30      0.00
    6   20   32      9.06      0.00
    8   20   32    -11.54      0.00
   10   20   32      5.76      0.00
   12   20   32     11.75      0.00
    1   21   32      3.46      0.00
    3   21   32      2.05      0.00
    5   21   32      3.39      0.00
    7   21   32      8.21      0.00
    9   21   32      0.50      0.00
    0   22   32      0.25      0.00
    2   22   32      5.45      0.00
    4   22   32     -2.72      0.00
    6   22   32     -0.60      0.00
    1   23   32      1.53      0.00
    3   23   32    -11.30      0.00
    0    1   33      9.31      0.00
    1    2   33      3.69      0.00
    0    3   33      3.73      0.00
    2    3   33      5.62      0.00
    1    4   33      0.91      0.00
    3    4   33     -0.19      0.00
    0    5   33     -2.65      0.00
    2    5   33     -9.26      0.00
    4    5   33      2.88      0.00
    1    6   33     -2.04      0.00
    3    6   33     -4.57      0.00
    5    6   33     -2.37      0.00
    0    7   33     -0.82      0.00
    2    7   33     -1.15      0.00
    4    7   33     -0.04      0.00
    6    7   33     -2.46      0.00
    1    8   33      3.58      0.00
    3    8   33      5.17      0.00
    5    8   33      5.15      0.00
    7    8   33      1.46      0.00
    0    9   33     -3.84      0.00
    2    9   33     -4.05      0.00
    4    9   33      6.62      0.00
    6    9   33      1.16      0.00
    8    9   33      0.58      0.00
    1   10   33     -4.24      0.00
    3   10   33     -2.13      0.00
    5   10   33     -2.55      0.00
    7   10   33      5.86      0.00
    9   10   33      6.73      0.00
    0   11   33     -5.23      0.00
    2   11   33     -1.88      0.00
    4   11   33     -5.01      0.00
    6   11   33     -5.28      0.00
    8   11   33     -7.40      0.00
   10   11   33      0.32      0.00
    1   12   33     -5.30      0.00
    3   12   33     -2.56      0.00
    5   12   33     -5.20      0.00
    7   12   33     -0.94      0.00
    9   12   33     -2.38      0.00
   11   12   33      0.89      0.00
    0   13   33      4.77      0.00
    2   13   33      2.82      0.00
    4   13   33     -0.93      0.00
    6   13   33     -0.19      0.00
    8   13   33     -1.56      0.00
   10   13   33     -6.39      0.00
   12   13   33      9.07      0.00
    1   14   33      6.10      0.00
    3   14   33      2.09      0.00
    5   14   33     -5.07      0.00
    7   14   33     -5.80      0.00
    9   14   33     -0.22      0.00
   11   14   33     -2.92      0.00
   13   14   33     -3.15      0.00
    0   15   33     16.17      0.00
    2   15   33     -1.27      0.00
    4   15   33     -2.84      0.00
    6   15   33      2.65      0.00
    8   15   33     -7.11      0.00
   10   15   33      1.60      0.00
   12   15   33     -3.48      0.00
   14   15   33      2.34      0.00
    1   16   33      3.01      0.00
    3   16   33     -1.39      0.00
    5   16   33      2.36      0.00
    7   16   33      0.51      0.00
    9   16   33     -8.93      0.00
   11   16   33      4.36      0.00
   13   16   33      0.54      0.00
   15   16   33     -1.53      0.00
    0   17   33      0.92      0.00
    2   17   33     -2.87      0.00
    4   17   33     -0.02      0.00
    6   17   33     -4.00      0.00
    8   17   33     -5.78      0.00
   10   17   33      3.70      0.00
   12   17   33     -0.20      0.00
   14   17   33      1.49      0.00
    1   18   33     -2.51      0.00
    3   18   33      0.05      0.00
    5   18   33    -13.14      0.00
    7   18   33     -8.90      0.00
    9   18   33     -7.22      0.00
   11   18   33      2.36      0.00
   13   18   33     12.66      0.00
    0   19   33     -4.75      0.00
    2   19   33      1.06      0.00
    4   19   33     -5.98      0.00
    6   19   33      4.92      0.00
    8   19   33      3.18      0.00
   10   19   33      0.68      0.00
   12   19   33     -5.47      0.00
    1   20   33      0.80      0.00
    3   20   33     -0.79      0.00
    5   20   33    -15.27      0.00
    7   20   33     -0.65      0.00
    9   20   33      4.79      0.00
   11   20   33     -7.09      0.00
    0   21   33      2.74      0.00
    2   21   33     -0.19      0.00
    4   21   33    -10.94      0.00
    6   21   33      4.16      0.00
    8   21   33     14.41      0.00
    1   22   33     -3.27      0.00
    3   22   33     -0.55      0.00
    5   22   33      0.05      0.00
    7   22   33      1.65      0.00
    0   23   33    -15.34      0.00
    2   23   33     -5.56      0.00
    1    1   34     -4.10      0.00
    0    2   34      6.13      0.00
    1    3   34      4.69      0.00
    3    3   34      5.80      0.00
    0    4   34     -1.78      0.00
    2    4   34      1.98      0.00
    1    5   34      2.10      0.00
    3    5   34     -8.41      0.00
    5    5   34     -5.43      0.00
    0    6   34     -3.12      0.00
    2    6   34     -2.66      0.00
    4    6   34      1.17      0.00
    1    7   34      3.15      0.00
    3    7   34      6.27      0.00
    5    7   34      1.65      0.00
    7    7   34     -3.19      0.00
    0    8   34     -3.68      0.00
    2    8   34      1.12      0.00
    4    8   34      4.88      0.00
    6    8   34     -0.02      0.00
    1    9   34     -3.32      0.00
    3    9   34     -6.38      0.00
    5    9   34      5.72      0.00
    7    9   34      2.04      0.00
    9    9   34      4.07      0.00
    0   10   34      2.66      0.00
    2   10   34      1.77      0.00
    4   10   34      3.49      0.00
    6   10   34      0.73      0.00
    8   10   34      4.09      0.00
    1   11   34     -3.21      0.00
    3   11   34      1.82      0.00
    5   11   34     -1.90      0.00
    7   11   34      5.49      0.00
    9   11   34     -9.03      0.00
   11   11   34     -1.67      0.00
    0   12   34     10.27      0.00
    2   12   34      1.38      0.00
    4   12   34      1.54      0.00
    6   12   34      7.53      0.00
    8   12   34      0.65      0.00
   10   12   34      1.21      0.00
    1   13   34      5.35      0.00
    3   13   34      0.96      0.00
    5   13   34     -5.68      0.00
    7   13   34    -10.37      0.00
    9   13   34      7.06      0.00
   11   13   34     13.87      0.00
   13   13   34     -0.96      0.00
    0   14   34      3.44      0.00
    2   14   34     -1.39      0.00
    4   14   34      5.86      0.00
    6   14   34      5.27      0.00
    8   14   34     -1.95      0.00
   10   14   34      1.84      0.00
   12   14   34      1.92      0.00
    1   15   34     -4.50      0.00
    3   15   34     -3.37      0.00
    5   15   34     -0.80      0.00
    7   15   34     11.03      0.00
    9   15   34     -2.34      0.00
   11   15   34      4.76      0.00
   13   15   34      1.23      0.00
   15   15   34      2.27      0.00
    0   16   34     -4.88      0.00
    2   16   34     -2.40      0.00
    4   16   34     -0.84      0.00
    6   16   34      0.09      0.00
    8   16   34      4.92      0.00
   10   16   34     -0.84      0.00
   12   16   34     -6.82      0.00
   14   16   34     11.71      0.00
    1   17   34      3.60      0.00
    3   17   34     10.16      0.00
    5   17   34     -0.25      0.00
    7   17   34     -7.86      0.00
    9   17   34    -16.60      0.00
   11   17   34      0.27      0.00
   13   17   34     -4.71      0.00
   15   17   34      3.48      0.00
    0   18   34     -2.21      0.00
    2   18   34      3.88      0.00
    4   18   34      0.49      0.00
    6   18   34      2.78      0.00
    8   18   34     13.92      0.00
   10   18   34     -2.33      0.00
   12   18   34     -5.09      0.00
   14   18   34     -5.75      0.00
    1   19   34      2.39      0.00
    3   19   34      1.86      0.00
    5   19   34     -7.33      0.00
    7   19   34      2.70      0.00
    9   19   34      2.18      0.00
   11   19   34     -4.48      0.00
   13   19   34      1.67      0.00
    0   20   34      3.61      0.00
    2   20   34     -5.20      0.00
    4   20   34     -7.13      0.00
    6   20   34      6.02      0.00
    8   20   34     -4.34      0.00
   10   20   34     -0.06      0.00
    1   21   34     -2.22      0.00
    3   21   34      1.91      0.00
    5   21   34      2.17      0.00
    7   21   34      7.78      0.00
    9   21   34      6.05      0.00
    0   22   34     -5.62      0.00
    2   22   34     -7.68      0.00
    4   22   34      9.29      0.00
    6   22   34     -6.99      0.00
    1   23   34     12.72      0.00
    0    1   35      4.12      0.00
    1    2   35     -0.37      0.00
    0    3   35     -7.93      0.00
    2    3   35     -3.31      0.00
    1    4   35     -5.49      0.00
    3    4   35     -0.22      0.00
    0    5   35      4.61      0.00
    2    5   35     -0.42      0.00
    4    5   35      0.14      0.00
    1    6   35      7.09      0.00
    3    6   35      6.19      0.00
    5    6   35      3.82      0.00
    0    7   35     -2.09      0.00
    2    7   35     -2.72      0.00
    4    7   35     -0.41      0.00
    6    7   35     -1.56      0.00
    1    8   35      0.61      0.00
    3    8   35      4.45      0.00
    5    8   35     -2.24      0.00
    7    8   35      1.76      0.00
    0    9   35      1.92      0.00
    2    9   35      0.99      0.00
    4    9   35      2.94      0.00
    6    9   35     -1.93      0.00
    8    9   35     -2.93      0.00
    1   10   35      1.53      0.00
    3   10   35      1.26      0.00
    5   10   35     -0.14      0.00
    7   10   35      1.89      0.00
    9   10   35      1.21      0.00
    0   11   35      8.51      0.00
    2   11   35      4.07      0.00
    4   11   35      1.68      0.00
    6   11   35     -0.85      0.00
    8   11   35      3.80      0.00
   10   11   35     -5.32      0.00
    1   12   35     10.19      0.00
    3   12   35     -2.84      0.00
    5   12   35     -1.91      0.00
    7   12   35      3.24      0.00
    9   12   35      1.29      0.00
   11   12   35      6.80      0.00
    0   13   35      2.91      0.00
    2   13   35     -4.46      0.00
    4   13   35      1.39      0.00
    6   13   35      2.33      0.00
    8   13   35      0.03      0.00
   10   13   35      4.76      0.00
   12   13   35     -1.21      0.00
    1   14   35      0.31      0.00
    3   14   35      0.59      0.00
    5   14   35      4.31      0.00
    7   14   35     -2.70      0.00
    9   14   35      1.20      0.00
   11   14   35      4.32      0.00
   13   14   35      1.07      0.00
    0   15   35     -2.63      0.00
    2   15   35      3.97      0.00
    4   15   35     -3.97      0.00
    6   15   35     -5.59      0.00
    8   15   35      3.13      0.00
   10   15   35      3.77      0.00
   12   15   35      1.12      0.00
   14   15   35      8.70      0.00
    1   16   35      2.98      0.00
    3   16   35      4.74      0.00
    5   16   35      0.34      0.00
    7   16   35      0.76      0.00
    9   16   35     -1.03      0.00
   11   16   35      0.84      0.00
   13   16   35     10.92      0.00
   15   16   35     -0.43      0.00
    0   17   35      2.06      0.00
    2   17   35     -2.09      0.00
    4   17   35      2.06      0.00
    6   17   35     -0.93      0.00
    8   17   35      7.66      0.00
   10   17   35      7.32      0.00
   12   17   35      5.53      0.00
   14   17   35      4.39      0.00
    1   18   35    -12.24      0.00
    3   18   35      4.06      0.00
    5   18   35     -3.20      0.00
    7   18   35      1.14      0.00
    9   18   35      2.45      0.00
   11   18   35      4.04      0.00
   13   18   35      2.32      0.00
    0   19   35      3.40      0.00
    2   19   35     -5.43      0.00
    4   19   35      6.93      0.00
    6   19   35      2.35      0.00
    8   19   35      3.00      0.00
   10   19   35      0.49      0.00
   12   19   35    -10.94      0.00
    1   20   35      5.33      0.00
    3   20   35     -7.37      0.00
    5   20   35      1.23      0.00
    7   20   35     -5.23      0.00
    9   20   35     -3.17      0.00
   11   20   35     -2.44      0.00
    0   21   35      1.91      0.00
    2   21   35      4.92      0.00
    4   21   35      2.19      0.00
    6   21   35     -6.73      0.00
    8   21   35      0.81      0.00
    1   22   35      5.44      0.00
    3   22   35      0.22      0.00
    5   22   35      2.64      0.00
    0    0   36    -22.43      0.00
    0    2   36      9.36      0.00
    2    2   36     -0.43      0.00
    1    3   36     -2.43      0.00
    0    4   36      1.15      0.00
    2    4   36     -1.69      0.00
    4    4   36     -5.15      0.00
    1    5   36     -5.21      0.00
    3    5   36      1.26      0.00
    0    6   36      0.38      0.00
    2    6   36     -5.27      0.00
    4    6   36     -5.26      0.00
    6    6   36     -6.21      0.00
    1    7   36      2.47      0.00
    3    7   36      8.37      0.00
    5    7   36      2.01      0.00
    0    8   36      1.47      0.00
    2    8   36     -0.35      0.00
    4    8   36     -0.82      0.00
    6    8   36     -4.64      0.00
    8    8   36     -1.82      0.00
    1    9   36      2.51      0.00
    3    9   36      0.85      0.00
    5    9   36      2.41      0.00
    7    9   36      2.31      0.00
    0   10   36     -1.84      0.00
    2   10   36      3.86      0.00
    4   10   36      3.99      0.00
    6   10   36      6.61      0.00
    8   10   36     -6.01      0.00
   10   10   36     -8.16      0.00
    1   11   36      3.29      0.00
    3   11   36     -0.09      0.00
    5   11   36     -6.43      0.00
    7   11   36      7.58      0.00
    9   11   36     -0.54      0.00
    0   12   36      0.68      0.00
    2   12   36     -7.75      0.00
    4   12   36     -1.70      0.00
    6   12   36     -4.19      0.00
    8   12   36     -5.98      0.00
   10   12   36      6.71      0.00
   12   12   36      7.99      0.00
    1   13   36      4.21      0.00
    3   13   36      0.70      0.00
    5   13   36      4.27      0.00
    7   13   36     -2.94      0.00
    9   13   36      0.49      0.00
   11   13   36     -0.84      0.00
    0   14   36    -13.62      0.00
    2   14   36     -1.52      0.00
    4   14   36      3.44      0.00
    6   14   36      3.25      0.00
    8   14   36      0.78      0.00
   10   14   36      1.53      0.00
   12   14   36     -5.35      0.00
   14   14   36      2.92      0.00
    1   15   36     -5.44      0.00
    3   15   36      5.46      0.00
    5   15   36     -1.46      0.00
    7   15   36     -3.18      0.00
    9   15   36      2.21      0.00
   11   15   36     -5.28      0.00
   13   15   36      3.40      0.00
    0   16   36      3.49      0.00
    2   16   36     -3.05      0.00
    4   16   36     -1.79      0.00
    6   16   36     -3.93      0.00
    8   16   36      0.95      0.00
   10   16   36      1.57      0.00
   12   16   36     -9.71      0.00
   14   16   36     -0.67      0.00
   16   16   36    -12.24      0.00
    1   17   36     -1.56      0.00
    3   17   36     -2.66      0.00
    5   17   36      5.57      0.00
    7   17   36      4.93      0.00
    9   17   36      0.87      0.00
   11   17   36      2.98      0.00
   13   17   36      3.31      0.00
   15   17   36    -12.55      0.00
    0   18   36     -2.51      0.00
    2   18   36     -3.30      0.00
    4   18   36     -0.46      0.00
    6   18   36      0.40      0.00
    8   18   36      2.57      0.00
   10   18   36     -1.21      0.00
   12   18   36     -3.29      0.00
    1   19   36      0.91      0.00
    3   19   36      1.26      0.00
    5   19   36      7.56      0.00
    7   19   36     -8.63      0.00
    9   19   36    -16.40      0.00
   11   19   36     -1.38      0.00
    0   20   36     11.70      0.00
    2   20   36     -5.67      0.00
    4   20   36      3.07      0.00
    6   20   36      4.39      0.00
    8   20   36    -11.28      0.00
   10   20   36      1.29      0.00
    1   21   36     -6.05      0.00
    3   21   36      7.44      0.00
    5   21   36      4.53      0.00
    7   21   36     -7.58      0.00
    0   22   36     -3.62      0.00
    2   22   36      5.46      0.00
    4   22   36     -1.07      0.00
    0    1   37      0.88      0.00
    1    2   37      4.38      0.00
    0    3   37      6.11      0.00
    2    3   37      0.29      0.00
    1    4   37     -3.23      0.00
    3    4   37     -0.83      0.00
    0    5   37      1.91      0.00
    2    5   37      1.08      0.00
    4    5   37      3.74      0.00
    1    6   37      1.36      0.00
    3    6   37      2.74      0.00
    5    6   37     -2.61      0.00
    0    7   37      1.33      0.00
    2    7   37     -4.92      0.00
    4    7   37     -9.30      0.00
    6    7   37     -0.17      0.00
    1    8   37      9.11      0.00
    3    8   37     -1.49      0.00
    5    8   37      0.60      0.00
    7    8   37     -3.72      0.00
    0    9   37     -2.33      0.00
    2    9   37      1.12      0.00
    4    9   37      5.97      0.00
    6    9   37      5.34      0.00
    8    9   37     -2.39      0.00
    1   10   37     -2.93      0.00
    3   10   37     -2.22      0.00
    5   10   37     -8.46      0.00
    7   10   37     -0.23      0.00
    9   10   37     -3.80      0.00
    0   11   37     -1.41      0.00
    2   11   37      1.14      0.00
    4   11   37      1.07      0.00
    6   11   37      0.13      0.00
    8   11   37      3.62      0.00
   10   11   37     -3.97      0.00
    1   12   37     -2.12      0.00
    3   12   37      1.66      0.00
    5   12   37      1.33      0.00
    7   12   37     -2.24      0.00
    9   12   37     -2.30      0.00
   11   12   37     -3.81      0.00
    0   13   37     -0.56      0.00
    2   13   37      0.71      0.00
    4   13   37     -1.52      0.00
    6   13   37      4.01      0.00
    8   13   37      2.07      0.00
   10   13   37     -4.39      0.00
   12   13   37     -9.25      0.00
    1   14   37      1.58      0.00
    3   14   37     -0.77      0.00
    5   14   37    -17.01      0.00
    7   14   37     -6.77      0.00
    9   14   37      2.57      0.00
   11   14   37     -5.02      0.00
   13   14   37      4.75      0.00
    0   15   37      2.00      0.00
    2   15   37      6.62      0.00
    4   15   37     -3.13      0.00
    6   15   37     -6.21      0.00
    8   15   37    -12.91      0.00
   10   15   37     -3.72      0.00
   12   15   37      1.69      0.00
   14   15   37     -9.70      0.00
    1   16   37      4.24      0.00
    3   16   37     -3.93      0.00
    5   16   37      1.48      0.00
    7   16   37      1.86      0.00
    9   16   37      5.67      0.00
   11   16   37      5.44      0.00
   13   16   37     -6.98      0.00
   15   16   37    -10.63      0.00
    0   17   37      3.66      0.00
    2   17   37     -8.59      0.00
    4   17   37     -4.75      0.00
    6   17   37     -2.03      0.00
    8   17   37      3.41      0.00
   10   17   37      4.50      0.00
   12   17   37      0.64      0.00
   14   17   37      9.01      0.00
    1   18   37      2.93      0.00
    3   18   37     10.39      0.00
    5   18   37     -5.79      0.00
    7   18   37     -9.56      0.00
    9   18   37    -16.98      0.00
   11   18   37      5.60      0.00
   13   18   37     -5.78      0.00
    0   19   37      9.33      0.00
    2   19   37      3.13      0.00
    4   19   37     -7.04      0.00
    6   19   37      6.50      0.00
    8   19   37     -1.25      0.00
   10   19   37      6.96      0.00
   12   19   37      5.80      0.00
    1   20   37      2.92      0.00
    3   20   37     -3.76      0.00
    5   20   37     -1.99      0.00
    7   20   37      6.86      0.00
    9   20   37      9.08      0.00
    0   21   37     -4.88      0.00
    2   21   37     -2.95      0.00
    4   21   37     -3.48      0.00
    6   21   37    -10.89      0.00
    8   21   37     -0.48      0.00
    1   22   37      1.43      0.00
    3   22   37     -0.27      0.00
    1    1   38      7.33      0.00
    0    2   38      4.62      0.00
    1    3   38     -1.24      0.00
    3    3   38     -0.72      0.00
    0    4   38     -3.38      0.00
    2    4   38     -6.58      0.00
    1    5   38      3.88      0.00
    3    5   38      2.60      0.00
    5    5   38     -1.82      0.00
    0    6   38      2.80      0.00
    2    6   38      5.11      0.00
    4    6   38      2.51      0.00
    1    7   38      2.56      0.00
    3    7   38      0.05      0.00
    5    7   38      6.59      0.00
    7    7   38      4.61      0.00
    0    8   38     -1.52      0.00
    2    8   38     -5.31      0.00
    4    8   38      3.90      0.00
    6    8   38      2.41      0.00
    1    9   38      0.72      0.00
    3    9   38     -0.74      0.00
    5    9   38     -1.29      0.00
    7    9   38     -1.58      0.00
    9    9   38     -2.25      0.00
    0   10   38      1.79      0.00
    2   10   38     -2.99      0.00
    4   10   38     -1.32      0.00
    6   10   38      0.79      0.00
    8   10   38     -2.91      0.00
    1   11   38      0.01      0.00
    3   11   38      6.27      0.00
    5   11   38     -1.91      0.00
    7   11   38      3.16      0.00
    9   11   38     -0.27      0.00
   11   11   38      1.76      0.00
    0   12   38     -2.65      0.00
    2   12   38     -3.63      0.00
    4   12   38      4.00      0.00
    6   12   38     -1.28      0.00
    8   12   38      0.95      0.00
   10   12   38      0.42      0.00
    1   13   38     -1.11      0.00
    3   13   38      4.12      0.00
    5   13   38     -0.69      0.00
    7   13   38      0.83      0.00
    9   13   38      1.74      0.00
   11   13   38     -6.92      0.00
   13   13   38     -6.22      0.00
    0   14   38     -0.07      0.00
    2   14   38     -9.42      0.00
    4   14   38     -3.98      0.00
    6   14   38      4.80      0.00
    8   14   38     -4.84      0.00
   10   14   38      0.69      0.00
   12   14   38      1.21      0.00
    1   15   38     -4.79      0.00
    3   15   38      0.79      0.00
    5   15   38     -4.92      0.00
    7   15   38      2.06      0.00
    9   15   38      1.32      0.00
   11   15   38      6.66      0.00
   13   15   38    -12.40      0.00
   15   15   38     -2.94      0.00
    0   16   38      3.62      0.00
    2   16   38      3.75      0.00
    4   16   38     -6.18      0.00
    6   16   38     -9.09      0.00
    8   16   38      1.47      0.00
   10   16   38     -3.61      0.00
   12   16   38     -7.23      0.00
   14   16   38      3.94      0.00
    1   17   38      3.26      0.00
    3   17   38     -6.73      0.00
    5   17   38     -5.07      0.00
    7   17   38     -0.94      0.00
    9   17   38      2.17      0.00
   11   17   38     -0.01      0.00
   13   17   38     -9.57      0.00
    0   18   38      5.09      0.00
    2   18   38      6.92      0.00
    4   18   38      0.89      0.00
    6   18   38      4.42      0.00
    8   18   38      6.31      0.00
   10   18   38     -3.96      0.00
   12   18   38     -2.02      0.00
    1   19   38     -3.28      0.00
    3   19   38      1.19      0.00
    5   19   38     -0.75      0.00
    7   19   38      1.52      0.00
    9   19   38     -2.56      0.00
   11   19   38      2.05      0.00
    0   20   38     -6.65      0.00
    2   20   38     -5.62      0.00
    4   20   38      7.57      0.00
    6   20   38      5.14      0.00
    8   20   38     -0.19      0.00
   10   20   38     -0.23      0.00
    1   21   38     -3.14      0.00
    3   21   38      4.46      0.00
    5   21   38      1.61      0.00
    7   21   38     14.28      0.00
    0   22   38    -20.16      0.00
    2   22   38     -3.17      0.00
    4   22   38      3.60      0.00
    0    1   39      1.24      0.00
    1    2   39     -5.78      0.00
    0    3   39     -5.58      0.00
    2    3   39     -1.79      0.00
    1    4   39      3.65      0.00
    3    4   39     -0.09      0.00
    0    5   39     -0.38      0.00
    2    5   39     -0.45      0.00
    4    5   39      4.88      0.00
    1    6   39     -4.04      0.00
    3    6   39      5.84      0.00
    5    6   39      2.14      0.00
    0    7   39     12.42      0.00
    2    7   39     -2.93      0.00
    4    7   39     -3.28      0.00
    6    7   39     -5.35      0.00
    1    8   39     -1.22      0.00
    3    8   39     -5.69      0.00
    5    8   39      0.97      0.00
    7    8   39     -2.08      0.00
    0    9   39      3.88      0.00
    2    9   39      0.82      0.00
    4    9   39     -4.03      0.00
    6    9   39    -10.42      0.00
    8    9   39    -10.43      0.00
    1   10   39    -11.34      0.00
    3   10   39      1.45      0.00
    5   10   39     -3.57      0.00
    7   10   39     -8.06      0.00
    9   10   39      5.24      0.00
    0   11   39      2.09      0.00
    2   11   39     -1.05      0.00
    4   11   39      0.69      0.00
    6   11   39     -0.94      0.00
    8   11   39      1.17      0.00
   10   11   39     -2.17      0.00
    1   12   39     -4.21      0.00
    3   12   39     -5.43      0.00
    5   12   39     -7.66      0.00
    7   12   39      6.05      0.00
    9   12   39      4.90      0.00
   11   12   39      1.46      0.00
    0   13   39     -8.49      0.00
    2   13   39     -3.32      0.00
    4   13   39    -12.56      0.00
    6   13   39      7.26      0.00
    8   13   39     -1.82      0.00
   10   13   39     -6.87      0.00
   12   13   39      1.00      0.00
    1   14   39     -6.55      0.00
    3   14   39    -10.23      0.00
    5   14   39      4.08      0.00
    7   14   39      1.35      0.00
    9   14   39      0.92      0.00
   11   14   39     -0.61      0.00
   13   14   39      1.45      0.00
    0   15   39     -1.61      0.00
    2   15   39     -0.88      0.00
    4   15   39      7.69      0.00
    6   15   39      3.56      0.00
    8   15   39     -0.68      0.00
   10   15   39     -3.71      0.00
   12   15   39     -4.84      0.00
   14   15   39     -1.07      0.00
    1   16   39     -4.27      0.00
    3   16   39     -3.43      0.00
    5   16   39     12.00      0.00
    7   16   39      4.40      0.00
    9   16   39     -7.83      0.00
   11   16   39      6.88      0.00
   13   16   39      7.20      0.00
   15   16   39      1.03      0.00
    0   17   39      3.99      0.00
    2   17   39     -1.86      0.00
    4   17   39      0.76      0.00
    6   17   39     -5.37      0.00
    8   17   39      4.80      0.00
   10   17   39      3.30      0.00
   12   17   39     -6.51      0.00
   14   17   39      6.91      0.00
    1   18   39     -2.38      0.00
    3   18   39      3.96      0.00
    5   18   39     -0.53      0.00
    7   18   39     -5.74      0.00
    9   18   39      0.39      0.00
   11   18   39      6.82      0.00
    0   19   39      0.93      0.00
    2   19   39     -1.28      0.00
    4   19   39     -1.84      0.00
    6   19   39     -0.59      0.00
    8   19   39      3.47      0.00
   10   19   39     11.23      0.00
    1   20   39     -1.47      0.00
    3   20   39     -0.01      0.00
    5   20   39      0.34      0.00
    7   20   39      5.55      0.00
    9   20   39      3.60      0.00
    0   21   39     12.00      0.00
    2   21   39     -2.95      0.00
    4   21   39     -6.24      0.00
    6   21   39     -9.00      0.00
    1   22   39     10.99      0.00
    0    0   40     15.76      0.00
    0    2   40     -8.96      0.00
    2    2   40     -6.65      0.00
    1    3   40      1.11      0.00
    0    4   40     -1.26      0.00
    2    4   40     -1.55      0.00
    4    4   40      3.04      0.00
    1    5   40     -1.95      0.00
    3    5   40     -1.98      0.00
    0    6   40      5.36      0.00
    2    6   40     -4.46      0.00
    4    6   40     -0.90      0.00
    6    6   40     -6.79      0.00
    1    7   40     -3.45      0.00
    3    7   40     -0.05      0.00
    5    7   40      2.43      0.00
    0    8   40      0.12      0.00
    2    8   40      0.66      0.00
    4    8   40     -3.21      0.00
    6    8   40     -5.69      0.00
    8    8   40     -6.15      0.00
    1    9   40     -2.85      0.00
    3    9   40      3.36      0.00
    5    9   40     -2.48      0.00
    7    9   40     -6.70      0.00
    0   10   40     -3.48      0.00
    2   10   40      0.88      0.00
    4   10   40     -4.00      0.00
    6   10   40     -0.57      0.00
    8   10   40      3.54      0.00
   10   10   40     -2.37      0.00
    1   11   40      1.87      0.00
    3   11   40     -3.90      0.00
    5   11   40     -5.06      0.00
    7   11   40      3.25      0.00
    9   11   40     -1.70      0.00
    0   12   40     -3.10      0.00
    2   12   40     -8.11      0.00
    4   12   40     -2.27      0.00
    6   12   40      2.42      0.00
    8   12   40    -12.88      0.00
   10   12   40     -1.38      0.00
   12   12   40     -1.87      0.00
    1   13   40      0.54      0.00
    3   13   40     -1.00      0.00
    5   13   40      1.61      0.00
    7   13   40     -5.36      0.00
    9   13   40     -1.68      0.00
   11   13   40      4.25      0.00
    0   14   40      3.26      0.00
    2   14   40      0.40      0.00
    4   14   40      9.18      0.00
    6   14   40      1.38      0.00
    8   14   40     -3.23      0.00
   10   14   40     -2.88      0.00
   12   14   40     -1.37      0.00
   14   14   40      0.85      0.00
    1   15   40      4.72      0.00
    3   15   40      0.52      0.00
    5   15   40     -4.67      0.00
    7   15   40      0.55      0.00
    9   15   40     -4.34      0.00
   11   15   40      1.27      0.00
   13   15   40     14.02      0.00
    0   16   40      1.37      0.00
    2   16   40      2.76      0.00
    4   16   40      3.18      0.00
    6   16   40     -2.24      0.00
    8   16   40     -4.84      0.00
   10   16   40      4.49      0.00
   12   16   40     -1.09      0.00
   14   16   40      3.05      0.00
    1   17   40     -4.72      0.00
    3   17   40      0.49      0.00
    5   17   40     10.26      0.00
    7   17   40     -0.90      0.00
    9   17   40      3.13      0.00
   11   17   40     -2.71      0.00
   13   17   40     -1.77      0.00
    0   18   40      5.03      0.00
    2   18   40     -1.57      0.00
    4   18   40     10.08      0.00
    6   18   40     -1.51      0.00
    8   18   40      7.93      0.00
   10   18   40     -1.57      0.00
   12   18   40      0.97      0.00
    1   19   40     -4.90      0.00
    3   19   40      7.18      0.00
    5   19   40     -2.73      0.00
    7   19   40     -3.65      0.00
    9   19   40    -13.30      0.00
   11   19   40     -3.54      0.00
    0   20   40      2.65      0.00
    2   20   40      3.54      0.00
    4   20   40      1.98      0.00
    6   20   40      6.62      0.00
    8   20   40     -3.32      0.00
    1   21   40      6.38      0.00
    3   21   40      1.56      0.00
    5   21   40      6.53      0.00
    0   22   40     -3.98      0.00
    0    1   41      1.15      0.00
    1    2   41     -2.30      0.00
    0    3   41     -3.32      0.00
    2    3   41      1.57      0.00
    1    4   41      3.37      0.00
    3    4   41     -2.01      0.00
    0    5   41      1.34      0.00
    2    5   41    -10.67      0.00
    4    5   41     -2.44      0.00
    1    6   41     -2.61      0.00
    3    6   41      1.07      0.00
    5    6   41      1.80      0.00
    0    7   41      2.90      0.00
    2    7   41      4.90      0.00
    4    7   41     -6.07      0.00
    6    7   41     -2.61      0.00
    1    8   41     -4.50      0.00
    3    8   41     -3.20      0.00
    5    8   41     -0.25      0.00
    7    8   41      2.76      0.00
    0    9   41     -9.31      0.00
    2    9   41     -1.27      0.00
    4    9   41     -2.60      0.00
    6    9   41     -1.39      0.00
    8    9   41     -0.63      0.00
    1   10   41      5.72      0.00
    3   10   41      5.70      0.00
    5   10   41     -3.58      0.00
    7   10   41     -3.06      0.00
    9   10   41     -0.18      0.00
    0   11   41      0.56      0.00
    2   11   41      0.94      0.00
    4   11   41     -6.22      0.00
    6   11   41      2.56      0.00
    8   11   41     -1.85      0.00
   10   11   41      3.45      0.00
    1   12   41     10.84      0.00
    3   12   41      4.04      0.00
    5   12   41      0.86      0.00
    7   12   41      5.36      0.00
    9   12   41     -1.74      0.00
   11   12   41    -13.65      0.00
    0   13   41      1.13      0.00
    2   13   41     -0.87      0.00
    4   13   41      1.31      0.00
    6   13   41      3.34      0.00
    8   13   41      0.38      0.00
   10   13   41      2.17      0.00
   12   13   41      0.94      0.00
    1   14   41      4.38      0.00
    3   14   41      6.13      0.00
    5   14   41      3.86      0.00
    7   14   41      1.19      0.00
    9   14   41      3.62      0.00
   11   14   41     -1.19      0.00
   13   14   41      0.76      0.00
    0   15   41     -2.07      0.00
    2   15   41      0.17      0.00
    4   15   41      6.70      0.00
    6   15   41      7.37      0.00
    8   15   41     -2.34      0.00
   10   15   41     -3.12      0.00
   12   15   41     -0.49      0.00
   14   15   41      3.19      0.00
    1   16   41     -3.10      0.00
    3   16   41     -4.45      0.00
    5   16   41     -5.41      0.00
    7   16   41      5.42      0.00
    9   16   41      5.59      0.00
   11   16   41     -0.34      0.00
   13   16   41      1.58      0.00
    0   17   41     -6.01      0.00
    2   17   41      1.86      0.00
    4   17   41     -0.46      0.00
    6   17   41     -2.40      0.00
    8   17   41     -0.81      0.00
   10   17   41     -1.39      0.00
   12   17   41      3.72      0.00
    1   18   41     -4.08      0.00
    3   18   41     -6.48      0.00
    5   18   41     -8.81      0.00
    7   18   41     -1.53      0.00
    9   18   41     -2.90      0.00
   11   18   41     -5.65      0.00
    0   19   41      3.35      0.00
    2   19   41      0.95      0.00
    4   19   41      3.29      0.00
    6   19   41      6.69      0.00
    8   19   41      5.81      0.00
   10   19   41      7.95      0.00
    1   20   41     -1.36      0.00
    3   20   41     -7.95      0.00
    5   20   41     -0.20      0.00
    7   20   41     -1.19      0.00
    0   21   41      8.62      0.00
    2   21   41      8.39      0.00
    4   21   41      5.57      0.00
    1    1   42     -2.01      0.00
    0    2   42      6.99      0.00
    1    3   42      3.39      0.00
    3    3   42      0.31      0.00
    0    4   42      0.43      0.00
    2    4   42      1.46      0.00
    1    5   42      5.61      0.00
    3    5   42      2.46      0.00
    5    5   42      1.60      0.00
    0    6   42      7.42      0.00
    2    6   42     -0.75      0.00
    4    6   42     -1.90      0.00
    1    7   42     -2.08      0.00
    3    7   42     -0.43      0.00
    5    7   42      4.29      0.00
    7    7   42      7.11      0.00
    0    8   42     -2.63      0.00
    2    8   42      1.65      0.00
    4    8   42      2.70      0.00
    6    8   42      4.55      0.00
    1    9   42     -4.18      0.00
    3    9   42      0.70      0.00
    5    9   42      2.07      0.00
    7    9   42      8.89      0.00
    9    9   42      3.07      0.00
    0   10   42      9.94      0.00
    2   10   42      3.83      0.00
    4   10   42     11.29      0.00
    6   10   42      2.12      0.00
    8   10   42     -3.78      0.00
    1   11   42     -3.01      0.00
    3   11   42      0.16      0.00
    5   11   42      5.93      0.00
    7   11   42     -4.68      0.00
    9   11   42     -1.78      0.00
   11   11   42      1.97      0.00
    0   12   42     19.00      0.00
    2   12   42     -3.24      0.00
    4   12   42     -0.26      0.00
    6   12   42      0.43      0.00
    8   12   42     -1.69      0.00
   10   12   42     -0.01      0.00
    1   13   42      3.26      0.00
    3   13   42     10.64      0.00
    5   13   42     -1.45      0.00
    7   13   42     -1.96      0.00
    9   13   42     10.05      0.00
   11   13   42      9.69      0.00
   13   13   42     -7.58      0.00
    0   14   42      1.55      0.00
    2   14   42      7.40      0.00
    4   14   42     -2.38      0.00
    6   14   42      0.42      0.00
    8   14   42     -8.79      0.00
   10   14   42     -3.46      0.00
   12   14   42     -7.40      0.00
    1   15   42      0.80      0.00
    3   15   42     -1.03      0.00
    5   15   42     -4.47      0.00
    7   15   42      3.16      0.00
    9   15   42     18.70      0.00
   11   15   42      0.10      0.00
   13   15   42      1.80      0.00
   15   15   42     -1.05      0.00
    0   16   42     -4.45      0.00
    2   16   42      3.86      0.00
    4   16   42     -4.64      0.00
    6   16   42     -1.05      0.00
    8   16   42      8.13      0.00
   10   16   42    -10.17      0.00
   12   16   42     -4.42      0.00
   14   16   42    -18.44      0.00
    1   17   42      0.48      0.00
    3   17   42      2.75      0.00
    5   17   42     -2.75      0.00
    7   17   42      6.21      0.00
    9   17   42     -9.33      0.00
   11   17   42      3.02      0.00
   13   17   42     -9.32      0.00
    0   18   42     -2.31      0.00
    2   18   42     -1.16      0.00
    4   18   42      1.72      0.00
    6   18   42     -6.02      0.00
    8   18   42     10.77      0.00
   10   18   42     -3.16      0.00
    1   19   42      3.31      0.00
    3   19   42    -12.53      0.00
    5   19   42     -2.63      0.00
    7   19   42     -4.08      0.00
    9   19   42     -9.15      0.00
    0   20   42      4.12      0.00
    2   20   42      0.57      0.00
    4   20   42     -5.92      0.00
    6   20   42      3.65      0.00
    8   20   42     -7.50      0.00
    1   21   42     -5.98      0.00
    3   21   42      4.85      0.00
    5   21   42    -21.34      0.00
    0    1   43      2.79      0.00
    1    2   43      1.63      0.00
    0    3   43      1.96      0.00
    2    3   43      0.07      0.00
    1    4   43      5.65      0.00
    3    4   43      4.23      0.00
    0    5   43     -2.05      0.00
    2    5   43      3.01      0.00
    4    5   43      3.71      0.00
    1    6   43     -2.01      0.00
    3    6   43      2.65      0.00
    5    6   43     -0.29      0.00
    0    7   43      2.77      0.00
    2    7   43      2.05      0.00
    4    7   43      3.88      0.00
    6    7   43     -0.34      0.00
    1    8   43     -0.92      0.00
    3    8   43     -5.73      0.00
    5    8   43      0.52      0.00
    7    8   43     -4.96      0.00
    0    9   43      5.91      0.00
    2    9   43      1.73      0.00
    4    9   43      1.10      0.00
    6    9   43     -1.24      0.00
    8    9   43     -2.64      0.00
    1   10   43      0.07      0.00
    3   10   43      1.84      0.00
    5   10   43      4.50      0.00
    7   10   43     -0.22      0.00
    9   10   43     -1.40      0.00
    0   11   43     -7.99      0.00
    2   11   43      3.64      0.00
    4   11   43     -5.83      0.00
    6   11   43      3.60      0.00
    8   11   43      2.55      0.00
   10   11   43    -10.46      0.00
    1   12   43     -1.60      0.00
    3   12   43      1.87      0.00
    5   12   43      2.43      0.00
    7   12   43     -2.61      0.00
    9   12   43      8.13      0.00
   11   12   43     -7.79      0.00
    0   13   43     -0.89      0.00
    2   13   43     -0.23      0.00
    4   13   43     -3.45      0.00
    6   13   43      8.72      0.00
    8   13   43     -0.78      0.00
   10   13   43      4.99      0.00
   12   13   43     -4.93      0.00
    1   14   43      1.24      0.00
    3   14   43     -1.34      0.00
    5   14   43     -2.77      0.00
    7   14   43      1.59      0.00
    9   14   43      1.30      0.00
   11   14   43      0.75      0.00
   13   14   43      4.44      0.00
    0   15   43     -4.68      0.00
    2   15   43      5.18      0.00
    4   15   43     -0.42      0.00
    6   15   43     -0.27      0.00
    8   15   43      7.62      0.00
   10   15   43     -9.75      0.00
   12   15   43      3.03      0.00
   14   15   43      1.95      0.00
    1   16   43      4.09      0.00
    3   16   43     -0.87      0.00
    5   16   43     -1.65      0.00
    7   16   43      0.55      0.00
    9   16   43      2.44      0.00
   11   16   43      7.14      0.00
   13   16   43      2.01      0.00
    0   17   43      1.48      0.00
    2   17   43     -4.81      0.00
    4   17   43      5.24      0.00
    6   17   43      1.45      0.00
    8   17   43     -7.90      0.00
   10   17   43      5.82      0.00
   12   17   43      0.46      0.00
    1   18   43      1.09      0.00
    3   18   43     -0.99      0.00
    5   18   43      9.95      0.00
    7   18   43     -4.80      0.00
    9   18   43     -0.65      0.00
   11   18   43      3.29      0.00
    0   19   43      6.46      0.00
    2   19   43     -3.61      0.00
    4   19   43      0.79      0.00
    6   19   43      3.68      0.00
    8   19   43      0.29      0.00
    1   20   43      0.65      0.00
    3   20   43     -1.79      0.00
    5   20   43     -5.32      0.00
    7   20   43     -2.29      0.00
    0   21   43     -1.50      0.00
    2   21   43    -10.16      0.00
    4   21   43      6.46      0.00
    0    0   44      0.04      0.00
    0    2   44      6.12      0.00
    2    2   44      3.52      0.00
    1    3   44     -3.24      0.00
    0    4   44    -13.99      0.00
    2    4   44     -1.38      0.00
    4    4   44      1.30      0.00
    1    5   44      1.73      0.00
    3    5   44      1.82      0.00
    0    6   44      2.00      0.00
    2    6   44    -11.90      0.00
    4    6   44     -2.85      0.00
    6    6   44     -5.45      0.00
    1    7   44     -3.02      0.00
    3    7   44     -1.81      0.00
    5    7   44      5.50      0.00
    0    8   44     -1.83      0.00
    2    8   44      0.23      0.00
    4    8   44     -2.92      0.00
    6    8   44     -0.54      0.00
    8    8   44     -4.72      0.00
    1    9   44     -0.58      0.00
    3    9   44      4.65      0.00
    5    9   44      9.16      0.00
    7    9   44      4.42      0.00
    0   10   44     -2.00      0.00
    2   10   44     -3.04      0.00
    4   10   44      1.17      0.00
    6   10   44      3.78      0.00
    8   10   44      3.99      0.00
   10   10   44      1.38      0.00
    1   11   44      3.27      0.00
    3   11   44      0.68      0.00
    5   11   44     -1.99      0.00
    7   11   44     -0.68      0.00
    9   11   44      0.09      0.00
    0   12   44      0.37      0.00
    2   12   44     -0.38      0.00
    4   12   44      5.66      0.00
    6   12   44     -0.08      0.00
    8   12   44      2.94      0.00
   10   12   44     11.80      0.00
   12   12   44      3.20      0.00
    1   13   44     -2.04      0.00
    3   13   44     -1.42      0.00
    5   13   44     -1.67      0.00
    7   13   44     -1.19      0.00
    9   13   44     -5.57      0.00
   11   13   44     -3.51      0.00
    0   14   44      4.40      0.00
    2   14   44      2.88      0.00
    4   14   44      1.31      0.00
    6   14   44      0.82      0.00
    8   14   44      3.77      0.00
   10   14   44      0.17      0.00
   12   14   44      7.49      0.00
   14   14   44      3.10      0.00
    1   15   44     -3.62      0.00
    3   15   44     -2.19      0.00
    5   15   44     -1.88      0.00
    7   15   44     -4.85      0.00
    9   15   44      3.50      0.00
   11   15   44     -4.69      0.00
   13   15   44     -1.20      0.00
    0   16   44     -3.59      0.00
    2   16   44      0.49      0.00
    4   16   44     15.76      0.00
    6   16   44      3.18      0.00
    8   16   44      2.18      0.00
   10   16   44      0.14      0.00
   12   16   44      5.73      0.00
    1   17   44      7.54      0.00
    3   17   44     -0.13      0.00
    5   17   44     -5.63      0.00
    7   17   44     -3.31      0.00
    9   17   44    -13.73      0.00
   11   17   44     -2.22      0.00
    0   18   44     -0.27      0.00
    2   18   44      1.28      0.00
    4   18   44      5.51      0.00
    6   18   44     -2.52      0.00
    8   18   44      2.68      0.00
   10   18   44      5.95      0.00
    1   19   44      5.30      0.00
    3   19   44     -5.75      0.00
    5   19   44     -3.39      0.00
    7   19   44      3.24      0.00
    9   19   44    -14.59      0.00
    0   20   44      4.01      0.00
    2   20   44      0.90      0.00
    4   20   44     -4.99      0.00
    6   20   44     -3.58      0.00
    1   21   44     -3.44      0.00
    0    1   45     -3.91      0.00
    1    2   45      1.98      0.00
    0    3   45     -1.14      0.00
    2    3   45     -0.75      0.00
    1    4   45     -2.47      0.00
    3    4   45      0.32      0.00
    0    5   45      1.58      0.00
    2    5   45      0.63      0.00
    4    5   45     -1.47      0.00
    1    6   45      3.84      0.00
    3    6   45      4.40      0.00
    5    6   45      5.48      0.00
    0    7   45      3.30      0.00
    2    7   45      1.94      0.00
    4    7   45     -5.43      0.00
    6    7   45     -0.18      0.00
    1    8   45      1.31      0.00
    3    8   45      3.33      0.00
    5    8   45      2.05      0.00
    7    8   45      0.21      0.00
    0    9   45     -3.53      0.00
    2    9   45      2.91      0.00
    4    9   45     -3.63      0.00
    6    9   45      6.42      0.00
    8    9   45     11.41      0.00
    1   10   45      2.52      0.00
    3   10   45      4.09      0.00
    5   10   45     -0.30      0.00
    7   10   45      9.04      0.00
    9   10   45      0.85      0.00
    0   11   45     -8.53      0.00
    2   11   45     -0.17      0.00
    4   11   45      3.48      0.00
    6   11   45     -7.97      0.00
    8   11   45     -1.39      0.00
   10   11   45     -0.10      0.00
    1   12   45      0.88      0.00
    3   12   45      8.56      0.00
    5   12   45     -1.29      0.00
    7   12   45     -2.87      0.00
    9   12   45     -1.97      0.00
   11   12   45     -3.01      0.00
    0   13   45      4.59      0.00
    2   13   45     -2.34      0.00
    4   13   45     -7.85      0.00
    6   13   45      0.43      0.00
    8   13   45     -4.43      0.00
   10   13   45     -3.41      0.00
   12   13   45     -2.48      0.00
    1   14   45      2.57      0.00
    3   14   45     -6.30      0.00
    5   14   45      0.03      0.00
    7   14   45     -6.85      0.00
    9   14   45     -4.16      0.00
   11   14   45      2.37      0.00
   13   14   45     -2.44      0.00
    0   15   45     -0.03      0.00
    2   15   45      4.30      0.00
    4   15   45      2.70      0.00
    6   15   45     -1.62      0.00
    8   15   45     -6.19      0.00
   10   15   45      2.64      0.00
   12   15   45     -1.05      0.00
   14   15   45      0.54      0.00
    1   16   45      0.89      0.00
    3   16   45     -6.67      0.00
    5   16   45     -5.37      0.00
    7   16   45     -6.66      0.00
    9   16   45      0.26      0.00
   11   16   45      1.84      0.00
   13   16   45     -0.69      0.00
    0   17   45     -1.33      0.00
    2   17   45     -1.89      0.00
    4   17   45      1.88      0.00
    6   17   45      8.38      0.00
    8   17   45      2.15      0.00
   10   17   45      1.43      0.00
   12   17   45     -2.11      0.00
    1   18   45      1.50      0.00
    3   18   45      2.26      0.00
    5   18   45     -0.99      0.00
    7   18   45     -2.28      0.00
    9   18   45      0.68      0.00
    0   19   45    -13.39      0.00
    2   19   45     -5.98      0.00
    4   19   45      6.23      0.00
    6   19   45      3.73      0.00
    8   19   45      6.56      0.00
    1   20   45      3.65      0.00
    3   20   45     -3.40      0.00
    5   20   45      4.41      0.00
    1    1   46      6.82      0.00
    0    2   46     -0.35      0.00
    1    3   46     -2.26      0.00
    3    3   46     -1.48      0.00
    0    4   46     -3.20      0.00
    2    4   46     -0.19      0.00
    1    5   46      0.59      0.00
    3    5   46     -6.52      0.00
    5    5   46     -0.06      0.00
    0    6   46     12.26      0.00
    2    6   46      2.59      0.00
    4    6   46      0.08      0.00
    1    7   46    -10.12      0.00
    3    7   46     -5.51      0.00
    5    7   46     -5.69      0.00
    7    7   46     -2.19      0.00
    0    8   46     -0.39      0.00
    2    8   46      4.10      0.00
    4    8   46      4.41      0.00
    6    8   46      4.95      0.00
    1    9   46      4.53      0.00
    3    9   46     -1.37      0.00
    5    9   46     -0.52      0.00
    7    9   46     -3.59      0.00
    9    9   46      3.38      0.00
    0   10   46      2.11      0.00
    2   10   46     -3.81      0.00
    4   10   46      3.52      0.00
    6   10   46      0.64      0.00
    8   10   46      4.82      0.00
    1   11   46      0.16      0.00
    3   11   46     -0.42      0.00
    5   11   46     -1.80      0.00
    7   11   46     -1.94      0.00
    9   11   46      1.49      0.00
   11   11   46      1.79      0.00
    0   12   46     -5.67      0.00
    2   12   46     -4.35      0.00
    4   12   46     -1.30      0.00
    6   12   46      3.05      0.00
    8   12   46      0.84      0.00
   10   12   46      9.92      0.00
    1   13   46     -2.18      0.00
    3   13   46     -2.85      0.00
    5   13   46      3.96      0.00
    7   13   46     -0.23      0.00
    9   13   46     -5.99      0.00
   11   13   46      1.74      0.00
   13   13   46     -1.57      0.00
    0   14   46      0.95      0.00
    2   14   46     -5.38      0.00
    4   14   46     -3.37      0.00
    6   14   46      5.10      0.00
    8   14   46      2.82      0.00
   10   14   46      0.39      0.00
   12   14   46     -1.70      0.00
    1   15   46     -7.28      0.00
    3   15   46      3.89      0.00
    5   15   46     -2.02      0.00
    7   15   46      0.93      0.00
    9   15   46      1.38      0.00
   11   15   46     -1.02      0.00
   13   15   46      2.09      0.00
    0   16   46     -2.12      0.00
    2   16   46     -1.92      0.00
    4   16   46     -9.92      0.00
    6   16   46      1.21      0.00
    8   16   46     -0.56      0.00
   10   16   46    -15.70      0.00
   12   16   46      3.26      0.00
    1   17   46      1.29      0.00
    3   17   46     -1.97      0.00
    5   17   46     -7.23      0.00
    7   17   46      1.63      0.00
    9   17   46      9.38      0.00
   11   17   46      5.22      0.00
    0   18   46    -10.69      0.00
    2   18   46     -3.63      0.00
    4   18   46      4.33      0.00
    6   18   46     -5.93      0.00
    8   18   46     -3.13      0.00
   10   18   46     -9.10      0.00
    1   19   46      1.20      0.00
    3   19   46      3.41      0.00
    5   19   46     -0.32      0.00
    7   19   46      4.94      0.00
    0   20   46      4.12      0.00
    2   20   46      0.55      0.00
    4   20   46     -1.80      0.00
    0    1   47      1.92      0.00
    1    2   47      2.88      0.00
    0    3   47      3.06      0.00
    2    3   47      3.92      0.00
    1    4   47      0.21      0.00
    3    4   47      1.55      0.00
    0    5   47      4.15      0.00
    2    5   47      7.23      0.00
    4    5   47      3.72      0.00
    1    6   47     -3.34      0.00
    3    6   47      0.44      0.00
    5    6   47     -1.19      0.00
    0    7   47     -2.32      0.00
    2    7   47      1.09      0.00
    4    7   47      1.02      0.00
    6    7   47      5.65      0.00
    1    8   47     -2.62      0.00
    3    8   47      1.96      0.00
    5    8   47     -3.29      0.00
    7    8   47     -1.19      0.00
    0    9   47      2.24      0.00
    2    9   47      5.37      0.00
    4    9   47      2.81      0.00
    6    9   47      1.59      0.00
    8    9   47     -1.83      0.00
    1   10   47     -2.35      0.00
    3   10   47    -12.76      0.00
    5   10   47     -6.31      0.00
    7   10   47     -8.87      0.00
    9   10   47     -4.29      0.00
    0   11   47      0.19      0.00
    2   11   47      6.50      0.00
    4   11   47      2.74      0.00
    6   11   47      4.83      0.00
    8   11   47      0.10      0.00
   10   11   47     -1.68      0.00
    1   12   47     -1.90      0.00
    3   12   47      1.64      0.00
    5   12   47     -2.31      0.00
    7   12   47      0.24      0.00
    9   12   47     -9.86      0.00
   11   12   47     -4.02      0.00
    0   13   47      6.79      0.00
    2   13   47      4.02      0.00
    4   13   47     -1.19      0.00
    6   13   47      8.54      0.00
    8   13   47     -0.10      0.00
   10   13   47      8.24      0.00
   12   13   47     -3.67      0.00
    1   14   47      3.37      0.00
    3   14   47     -2.42      0.00
    5   14   47      5.64      0.00
    7   14   47      0.37      0.00
    9   14   47     -5.25      0.00
   11   14   47      5.56      0.00
   13   14   47      3.70      0.00
    0   15   47     11.19      0.00
    2   15   47      3.91      0.00
    4   15   47     -6.06      0.00
    6   15   47     -7.77      0.00
    8   15   47      0.41      0.00
   10   15   47     -0.14      0.00
   12   15   47      7.76      0.00
    1   16   47     -5.42      0.00
    3   16   47      0.69      0.00
    5   16   47      6.83      0.00
    7   16   47     -2.45      0.00
    9   16   47     11.07      0.00
   11   16   47     -5.13      0.00
    0   17   47     -5.48      0.00
    2   17   47      1.76      0.00
    4   17   47      3.43      0.00
    6   17   47     -3.95      0.00
    8   17   47      1.07      0.00
   10   17   47      3.82      0.00
    1   18   47      3.21      0.00
    3   18   47      3.34      0.00
    5   18   47      3.51      0.00
    7   18   47     -0.43      0.00
    9   18   47      4.52      0.00
    0   19   47     14.22      0.00
    2   19   47     -5.29      0.00
    4   19   47      6.29      0.00
    6   19   47     -8.47      0.00
    1   20   47      3.12      0.00
    3   20   47      3.80      0.00
    0    0   48      0.34      0.00
    0    2   48     -5.96      0.00
    2    2   48     -7.46      0.00
    1    3   48     -2.17      0.00
    0    4   48      0.06      0.00
    2    4   48      2.68      0.00
    4    4   48     -1.94      0.00
    1    5   48      0.76      0.00
    3    5   48      0.16      0.00
    0    6   48      4.51      0.00
    2    6   48     -0.04      0.00
    4    6   48      2.52      0.00
    6    6   48      0.57      0.00
    1    7   48      1.58      0.00
    3    7   48     -0.28      0.00
    5    7   48     -6.33      0.00
    0    8   48      7.53      0.00
    2    8   48      4.25      0.00
    4    8   48     -0.19      0.00
    6    8   48      6.01      0.00
    8    8   48     -2.81      0.00
    1    9   48     -2.74      0.00
    3    9   48     -9.84      0.00
    5    9   48      0.38      0.00
    7    9   48     -3.92      0.00
    0   10   48     -2.53      0.00
    2   10   48     -5.81      0.00
    4   10   48      2.05      0.00
    6   10   48     -6.13      0.00
    8   10   48      2.02      0.00
   10   10   48    -11.88      0.00
    1   11   48     -7.32      0.00
    3   11   48      0.21      0.00
    5   11   48      2.25      0.00
    7   11   48      1.29      0.00
    9   11   48      5.22      0.00
    0   12   48      1.12      0.00
    2   12   48     -2.60      0.00
    4   12   48      0.83      0.00
    6   12   48      6.96      0.00
    8   12   48     -3.04      0.00
   10   12   48      3.32      0.00
   12   12   48     -1.02      0.00
    1   13   48      1.77      0.00
    3   13   48     -4.32      0.00
    5   13   48     -0.96      0.00
    7   13   48     -0.84      0.00
    9   13   48     -0.60      0.00
   11   13   48      0.60      0.00
    0   14   48      2.11      0.00
    2   14   48     -3.99      0.00
    4   14   48      3.87      0.00
    6   14   48     -4.66      0.00
    8   14   48      2.72      0.00
   10   14   48     -9.05      0.00
   12   14   48     -1.64      0.00
   14   14   48      1.58      0.00
    1   15   48     -3.25      0.00
    3   15   48      4.79      0.00
    5   15   48      3.73      0.00
    7   15   48      1.38      0.00
    9   15   48     -3.78      0.00
   11   15   48     -4.18      0.00
   13   15   48      4.57      0.00
    0   16   48     -2.01      0.00
    2   16   48      6.83      0.00
    4   16   48      1.28      0.00
    6   16   48     -2.28      0.00
    8   16   48      6.02      0.00
   10   16   48     -0.25      0.00
   12   16   48      2.71      0.00
    1   17   48      8.64      0.00
    3   17   48      2.18      0.00
    5   17   48     -0.70      0.00
    7   17   48      3.02      0.00
    9   17   48     -9.68      0.00
    0   18   48      7.47      0.00
    2   18   48      7.12      0.00
    4   18   48      5.28      0.00
    6   18   48     -3.31      0.00
    8   18   48      7.95      0.00
    1   19   48      2.37      0.00
    3   19   48      0.22      0.00
    5   19   48     -2.16      0.00
    0   20   48     -8.73      0.00
    2   20   48      2.20      0.00
    0    1   49      0.77      0.00
    1    2   49      4.04      0.00
    0    3   49    -11.21      0.00
    2    3   49     -3.96      0.00
    1    4   49      5.84      0.00
    3    4   49      8.92      0.00
    0    5   49    -11.90      0.00
    2    5   49     -3.96      0.00
    4    5   49     -2.87      0.00
    1    6   49     -8.42      0.00
    3    6   49     -2.31      0.00
    5    6   49      2.21      0.00
    0    7   49      7.13      0.00
    2    7   49      0.06      0.00
    4    7   49      1.46      0.00
    6    7   49     -0.86      0.00
    1    8   49     -7.20      0.00
    3    8   49     -0.57      0.00
    5    8   49     -2.59      0.00
    7    8   49     -1.57      0.00
    0    9   49     -2.63      0.00
    2    9   49      1.37      0.00
    4    9   49     -8.79      0.00
    6    9   49     -0.75      0.00
    8    9   49     -0.09      0.00
    1   10   49      0.01      0.00
    3   10   49      2.78      0.00
    5   10   49      1.30      0.00
    7   10   49     -5.36      0.00
    9   10   49      0.85      0.00
    0   11   49      0.16      0.00
    2   11   49     -1.66      0.00
    4   11   49     -0.24      0.00
    6   11   49      4.26      0.00
    8   11   49     -4.58      0.00
   10   11   49      0.13      0.00
    1   12   49     -2.81      0.00
    3   12   49     -0.22      0.00
    5   12   49     -3.13      0.00
    7   12   49      0.37      0.00
    9   12   49     11.64      0.00
   11   12   49     -0.58      0.00
    0   13   49     -2.75      0.00
    2   13   49      1.44      0.00
    4   13   49      3.02      0.00
    6   13   49     -8.41      0.00
    8   13   49     -1.81      0.00
   10   13   49      5.98      0.00
   12   13   49     -2.38      0.00
    1   14   49     -2.55      0.00
    3   14   49     -2.77      0.00
    5   14   49      0.63      0.00
    7   14   49     -2.05      0.00
    9   14   49     -9.37      0.00
   11   14   49      5.34      0.00
   13   14   49     -6.70      0.00
    0   15   49    -10.49      0.00
    2   15   49     -4.30      0.00
    4   15   49     -5.75      0.00
    6   15   49      0.10      0.00
    8   15   49      4.95      0.00
   10   15   49      1.46      0.00
   12   15   49     -6.34      0.00
    1   16   49     -5.67      0.00
    3   16   49     -1.44      0.00
    5   16   49     -4.09      0.00
    7   16   49     -1.33      0.00
    9   16   49     -3.41      0.00
   11   16   49     -3.95      0.00
    0   17   49     -5.82      0.00
    2   17   49     -0.19      0.00
    4   17   49     -3.90      0.00
    6   17   49      1.10      0.00
    8   17   49      3.01      0.00
   10   17   49     -3.25      0.00
    1   18   49     -3.04      0.00
    3   18   49     -4.39      0.00
    5   18   49     -5.11      0.00
    7   18   49     -7.35      0.00
    0   19   49     10.04      0.00
    2   19   49     -5.02      0.00
    4   19   49      6.15      0.00
    6   19   49      4.67      0.00
    1    1   50     -0.30      0.00
    0    2   50     -7.56      0.00
    1    3   50      4.50      0.00
    3    3   50      1.74      0.00
    0    4   50      1.01      0.00
    2    4   50     -3.41      0.00
    1    5   50      0.50      0.00
    3    5   50      0.65      0.00
    5    5   50      2.08      0.00
    0    6   50      4.72      0.00
    2    6   50     -2.76      0.00
    4    6   50     -5.05      0.00
    1    7   50     -0.03      0.00
    3    7   50     -1.13      0.00
    5    7   50      0.47      0.00
    7    7   50     -6.08      0.00
    0    8   50     -7.15      0.00
    2    8   50      0.09      0.00
    4    8   50     -8.03      0.00
    6    8   50     10.32      0.00
    1    9   50     -8.23      0.00
    3    9   50      0.04      0.00
    5    9   50     -5.61      0.00
    7    9   50     -5.86      0.00
    9    9   50     -1.19      0.00
    0   10   50      1.47      0.00
    2   10   50     -2.47      0.00
    4   10   50      5.61      0.00
    6   10   50     -5.17      0.00
    8   10   50      6.60      0.00
    1   11   50      1.01      0.00
    3   11   50     -7.09      0.00
    5   11   50     -1.44      0.00
    7   11   50      0.59      0.00
    9   11   50      1.87      0.00
   11   11   50      3.12      0.00
    0   12   50      0.41      0.00
    2   12   50     -0.60      0.00
    4   12   50     -2.66      0.00
    6   12   50     -3.84      0.00
    8   12   50     -0.57      0.00
   10   12   50      3.42      0.00
    1   13   50     -0.17      0.00
    3   13   50     -0.99      0.00
    5   13   50     -1.43      0.00
    7   13   50     -0.71      0.00
    9   13   50     -2.70      0.00
   11   13   50      2.68      0.00
   13   13   50     -8.08      0.00
    0   14   50      1.48      0.00
    2   14   50     -1.02      0.00
    4   14   50     -7.03      0.00
    6   14   50      7.41      0.00
    8   14   50      8.57      0.00
   10   14   50     10.50      0.00
   12   14   50     -4.75      0.00
    1   15   50     -4.11      0.00
    3   15   50      9.80      0.00
    5   15   50      5.78      0.00
    7   15   50      6.70      0.00
    9   15   50      8.98      0.00
   11   15   50      0.09      0.00
    0   16   50      7.37      0.00
    2   16   50      2.30      0.00
    4   16   50     -7.65      0.00
    6   16   50      2.90      0.00
    8   16   50      6.77      0.00
   10   16   50     -3.03      0.00
    1   17   50     -0.09      0.00
    3   17   50      6.07      0.00
    5   17   50      5.80      0.00
    7   17   50      4.99      0.00
    9   17   50     -4.79      0.00
    0   18   50     11.32      0.00
    2   18   50     -7.44      0.00
    4   18   50     -2.53      0.00
    6   18   50     -1.86      0.00
    1   19   50    -19.49      0.00
    3   19   50     -5.73      0.00
    5   19   50     -1.51      0.00
    0    1   51     -0.66      0.00
    1    2   51     -4.58      0.00
    0    3   51     -3.57      0.00
    2    3   51     -3.67      0.00
    1    4   51      2.04      0.00
    3    4   51      4.44      0.00
    0    5   51     -8.87      0.00
    2    5   51      0.35      0.00
    4    5   51     -1.02      0.00
    1    6   51     -0.29      0.00
    3    6   51      1.00      0.00
    5    6   51      6.43      0.00
    0    7   51      0.15      0.00
    2    7   51     -2.28      0.00
    4    7   51      5.89      0.00
    6    7   51      2.59      0.00
    1    8   51      6.02      0.00
    3    8   51     -0.29      0.00
    5    8   51     -4.50      0.00
    7    8   51     -2.71      0.00
    0    9   51      0.63      0.00
    2    9   51      5.85      0.00
    4    9   51      1.64      0.00
    6    9   51      1.76      0.00
    8    9   51      1.71      0.00
    1   10   51      2.50      0.00
    3   10   51     -5.07      0.00
    5   10   51     -8.84      0.00
    7   10   51      2.70      0.00
    9   10   51     -7.47      0.00
    0   11   51     -0.49      0.00
    2   11   51     -0.64      0.00
    4   11   51     -6.14      0.00
    6   11   51     -4.23      0.00
    8   11   51      3.00      0.00
   10   11   51     -1.39      0.00
    1   12   51     -3.99      0.00
    3   12   51      2.50      0.00
    5   12   51     -0.52      0.00
    7   12   51      0.42      0.00
    9   12   51      1.43      0.00
   11   12   51     -2.79      0.00
    0   13   51     -2.06      0.00
    2   13   51     -2.16      0.00
    4   13   51      4.13      0.00
    6   13   51     -4.65      0.00
    8   13   51      0.95      0.00
   10   13   51     -2.13      0.00
   12   13   51     -2.89      0.00
    1   14   51     -6.72      0.00
    3   14   51     -0.37      0.00
    5   14   51     -0.59      0.00
    7   14   51     -8.69      0.00
    9   14   51     11.95      0.00
   11   14   51      3.28      0.00
   13   14   51      3.76      0.00
    0   15   51      4.58      0.00
    2   15   51      0.21      0.00
    4   15   51     -9.26      0.00
    6   15   51      2.93      0.00
    8   15   51      2.05      0.00
   10   15   51      0.93      0.00
   12   15   51      0.19      0.00
    1   16   51      1.35      0.00
    3   16   51      6.71      0.00
    5   16   51      2.92      0.00
    7   16   51      2.36      0.00
    9   16   51     -0.42      0.00
    0   17   51     14.45      0.00
    2   17   51     -5.00      0.00
    4   17   51      9.55      0.00
    6   17   51     -3.25      0.00
    8   17   51      4.41      0.00
    1   18   51     -2.37      0.00
    3   18   51     -3.17      0.00
    5   18   51     16.36      0.00
    7   18   51      6.74      0.00
    0   19   51      9.62      0.00
    2   19   51      3.66      0.00
    0    0   52      0.40      0.00
    0    2   52      1.33      0.00
    2    2   52      2.82      0.00
    1    3   52      3.35      0.00
    0    4   52      0.98      0.00
    2    4   52     -0.44      0.00
    4    4   52     -0.99      0.00
    1    5   52      3.89      0.00
    3    5   52      0.85      0.00
    0    6   52     -1.96      0.00
    2    6   52     -2.15      0.00
    4    6   52     -3.36      0.00
    6    6   52      4.03      0.00
    1    7   52      2.55      0.00
    3    7   52      3.75      0.00
    5    7   52     -1.77      0.00
    0    8   52     -0.38      0.00
    2    8   52     -0.90      0.00
    4    8   52      0.27      0.00
    6    8   52     -2.62      0.00
    8    8   52     -1.11      0.00
    1    9   52      2.25      0.00
    3    9   52      6.82      0.00
    5    9   52      2.72      0.00
    7    9   52      0.13      0.00
    0   10   52      9.96      0.00
    2   10   52      0.20      0.00
    4   10   52      2.51      0.00
    6   10   52     -4.82      0.00
    8   10   52      0.11      0.00
   10   10   52    -11.75      0.00
    1   11   52      5.71      0.00
    3   11   52      0.74      0.00
    5   11   52      4.92      0.00
    7   11   52     -0.30      0.00
    9   11   52     -1.67      0.00
    0   12   52      7.84      0.00
    2   12   52     -1.49      0.00
    4   12   52      1.93      0.00
    6   12   52     -6.20      0.00
    8   12   52     -6.06      0.00
   10   12   52     -5.49      0.00
   12   12   52      0.79      0.00
    1   13   52     -0.59      0.00
    3   13   52     -7.44      0.00
    5   13   52      1.37      0.00
    7   13   52     -0.81      0.00
    9   13   52     10.32      0.00
   11   13   52      6.07      0.00
    0   14   52      6.15      0.00
    2   14   52      0.33      0.00
    4   14   52      7.42      0.00
    6   14   52      3.27      0.00
    8   14   52      2.06      0.00
   10   14   52      3.16      0.00
   12   14   52     -1.59      0.00
    1   15   52      1.91      0.00
    3   15   52      0.20      0.00
    5   15   52     -1.84      0.00
    7   15   52      3.27      0.00
    9   15   52     -1.13      0.00
   11   15   52     -1.51      0.00
    0   16   52      4.14      0.00
    2   16   52      8.41      0.00
    4   16   52     -3.34      0.00
    6   16   52      0.79      0.00
    8   16   52      4.03      0.00
   10   16   52     -7.84      0.00
    1   17   52     13.90      0.00
    3   17   52     -3.12      0.00
    5   17   52     -0.17      0.00
    7   17   52      2.37      0.00
    0   18   52    -23.26      0.00
    2   18   52     -0.33      0.00
    4   18   52     -6.47      0.00
    6   18   52     -7.07      0.00
    1   19   52     -7.56      0.00
    0    1   53     -4.11      0.00
    1    2   53      1.97      0.00
    0    3   53      9.75      0.00
    2    3   53     -3.29      0.00
    1    4   53     -5.32      0.00
    3    4   53      0.94      0.00
    0    5   53     -6.57      0.00
    2    5   53      5.86      0.00
    4    5   53     -4.41      0.00
    1    6   53     -0.48      0.00
    3    6   53     -2.45      0.00
    5    6   53     -3.91      0.00
    0    7   53      5.81      0.00
    2    7   53     -5.55      0.00
    4    7   53     -4.79      0.00
    6    7   53      0.52      0.00
    1    8   53      6.50      0.00
    3    8   53      7.67      0.00
    5    8   53      3.05      0.00
    7    8   53     -8.64      0.00
    0    9   53      1.81      0.00
    2    9   53      1.57      0.00
    4    9   53      0.43      0.00
    6    9   53     -2.35      0.00
    8    9   53     -6.14      0.00
    1   10   53     -0.75      0.00
    3   10   53      9.08      0.00
    5   10   53      0.43      0.00
    7   10   53      1.49      0.00
    9   10   53      0.41      0.00
    0   11   53      2.20      0.00
    2   11   53      1.26      0.00
    4   11   53     -0.57      0.00
    6   11   53     -2.22      0.00
    8   11   53      4.28      0.00
   10   11   53     -0.48      0.00
    1   12   53      0.68      0.00
    3   12   53      0.85      0.00
    5   12   53      6.54      0.00
    7   12   53      4.40      0.00
    9   12   53     -0.07      0.00
   11   12   53      4.02      0.00
    0   13   53     -2.12      0.00
    2   13   53      1.55      0.00
    4   13   53      5.11      0.00
    6   13   53     -3.64      0.00
    8   13   53     -9.19      0.00
   10   13   53     -8.86      0.00
   12   13   53     -0.48      0.00
    1   14   53      3.28      0.00
    3   14   53      3.61      0.00
    5   14   53      5.96      0.00
    7   14   53      0.52      0.00
    9   14   53     -8.11      0.00
   11   14   53      9.08      0.00
    0   15   53      5.56      0.00
    2   15   53     10.22      0.00
    4   15   53     -8.86      0.00
    6   15   53      9.40      0.00
    8   15   53     -4.83      0.00
   10   15   53     -1.75      0.00
    1   16   53     -0.37      0.00
    3   16   53      3.29      0.00
    5   16   53      2.31      0.00
    7   16   53     -6.54      0.00
    9   16   53     -6.45      0.00
    0   17   53    -15.17      0.00
    2   17   53     -9.63      0.00
    4   17   53     -1.50      0.00
    6   17   53      4.27      0.00
    8   17   53      8.64      0.00
    1   18   53    -10.33      0.00
    3   18   53     -1.59      0.00
    5   18   53     -8.94      0.00
    1    1   54     -2.54      0.00
    0    2   54      0.53      0.00
    1    3   54      1.14      0.00
    3    3   54      8.86      0.00
    0    4   54     -4.31      0.00
    2    4   54     -1.96      0.00
    1    5   54     -0.49      0.00
    3    5   54     -1.30      0.00
    5    5   54     -4.86      0.00
    0    6   54      0.83      0.00
    2    6   54      1.52      0.00
    4    6   54      6.17      0.00
    1    7   54     -2.32      0.00
    3    7   54      2.94      0.00
    5    7   54      0.34      0.00
    7    7   54      1.37      0.00
    0    8   54     -3.64      0.00
    2    8   54      5.47      0.00
    4    8   54      2.36      0.00
    6    8   54      1.84      0.00
    1    9   54      3.34      0.00
    3    9   54      0.48      0.00
    5    9   54      6.95      0.00
    7    9   54     -1.97      0.00
    9    9   54     -0.63      0.00
    0   10   54     -0.33      0.00
    2   10   54     -2.97      0.00
    4   10   54      6.62      0.00
    6   10   54     -0.24      0.00
    8   10   54      1.78      0.00
    1   11   54      7.88      0.00
    3   11   54      8.72      0.00
    5   11   54     -0.52      0.00
    7   11   54      3.56      0.00
    9   11   54      0.39      0.00
   11   11   54      3.92      0.00
    0   12   54     -1.10      0.00
    2   12   54      3.55      0.00
    4   12   54     -9.85      0.00
    6   12   54      5.14      0.00
    8   12   54     -3.48      0.00
   10   12   54      7.86      0.00
    1   13   54      0.49      0.00
    3   13   54     -1.83      0.00
    5   13   54     15.32      0.00
    7   13   54      2.59      0.00
    9   13   54    -12.04      0.00
   11   13   54      4.63      0.00
   13   13   54      2.77      0.00
    0   14   54      3.42      0.00
    2   14   54     -6.47      0.00
    4   14   54     -3.87      0.00
    6   14   54      7.57      0.00
    8   14   54      1.91      0.00
   10   14   54     -1.07      0.00
   12   14   54     -1.26      0.00
    1   15   54     -9.89      0.00
    3   15   54      8.54      0.00
    5   15   54    -13.87      0.00
    7   15   54    -13.58      0.00
    9   15   54      5.13      0.00
    0   16   54      5.34      0.00
    2   16   54      5.19      0.00
    4   16   54     -2.15      0.00
    6   16   54     -1.58      0.00
    8   16   54     -2.22      0.00
    1   17   54     -7.84      0.00
    3   17   54      1.21      0.00
    5   17   54    -11.11      0.00
    7   17   54    -14.55      0.00
    0   18   54      9.09      0.00
    2   18   54     -0.86      0.00
    4   18   54      8.60      0.00
    0    1   55      9.89      0.00
    1    2   55      4.45      0.00
    0    3   55      3.36      0.00
    2    3   55      0.76      0.00
    1    4   55      0.98      0.00
    3    4   55      5.88      0.00
    0    5   55      0.72      0.00
    2    5   55      0.47      0.00
    4    5   55     -0.44      0.00
    1    6   55     -1.27      0.00
    3    6   55     -1.47      0.00
    5    6   55     -1.20      0.00
    0    7   55      4.13      0.00
    2    7   55      3.84      0.00
    4    7   55      4.85      0.00
    6    7   55      2.31      0.00
    1    8   55     -2.53      0.00
    3    8   55     -1.72      0.00
    5    8   55     -3.48      0.00
    7    8   55      2.64      0.00
    0    9   55     -1.74      0.00
    2    9   55     -2.12      0.00
    4    9   55      5.60      0.00
    6    9   55     -0.89      0.00
    8    9   55     -1.30      0.00
    1   10   55     -6.24      0.00
    3   10   55      2.97      0.00
    5   10   55      1.30      0.00
    7   10   55     15.31      0.00
    9   10   55      1.80      0.00
    0   11   55     -6.73      0.00
    2   11   55     -2.48      0.00
    4   11   55     -2.62      0.00
    6   11   55      3.59      0.00
    8   11   55      1.40      0.00
   10   11   55     -0.94      0.00
    1   12   55      7.51      0.00
    3   12   55     -0.71      0.00
    5   12   55      5.70      0.00
    7   12   55      1.82      0.00
    9   12   55     -6.26      0.00
   11   12   55     -7.20      0.00
    0   13   55      1.05      0.00
    2   13   55      4.31      0.00
    4   13   55     11.62      0.00
    6   13   55     -5.96      0.00
    8   13   55      3.77      0.00
   10   13   55     -4.77      0.00
   12   13   55      3.40      0.00
    1   14   55      5.75      0.00
    3   14   55     10.40      0.00
    5   14   55     -2.87      0.00
    7   14   55     -2.89      0.00
    9   14   55     -5.83      0.00
   11   14   55     -5.74      0.00
    0   15   55      9.25      0.00
    2   15   55      1.81      0.00
    4   15   55     10.59      0.00
    6   15   55      0.64      0.00
    8   15   55     -5.48      0.00
   10   15   55     -9.29      0.00
    1   16   55     -2.59      0.00
    3   16   55     -9.28      0.00
    5   16   55      6.08      0.00
    7   16   55    -10.43      0.00
    0   17   55     -1.39      0.00
    2   17   55      0.82      0.00
    4   17   55     -2.80      0.00
    6   17   55     -7.74      0.00
    1   18   55     10.99      0.00
    0    0   56      0.01      0.00
    0    2   56     -0.73      0.00
    2    2   56     11.38      0.00
    1    3   56      2.99      0.00
    0    4   56      5.31      0.00
    2    4   56     -4.19      0.00
    4    4   56     -2.55      0.00
    1    5   56     -5.04      0.00
    3    5   56     -0.84      0.00
    0    6   56      3.05      0.00
    2    6   56      2.04      0.00
    4    6   56      5.82      0.00
    6    6   56     -7.02      0.00
    1    7   56      1.48      0.00
    3    7   56     -4.06      0.00
    5    7   56      4.52      0.00
    0    8   56     -4.16      0.00
    2    8   56     -0.07      0.00
    4    8   56    -10.26      0.00
    6    8   56      8.22      0.00
    8    8   56     16.75      0.00
    1    9   56     -0.69      0.00
    3    9   56     -4.43      0.00
    5    9   56     -0.38      0.00
    7    9   56     11.68      0.00
    0   10   56      6.37      0.00
    2   10   56     -7.09      0.00
    4   10   56     12.10      0.00
    6   10   56     -1.74      0.00
    8   10   56     -6.62      0.00
   10   10   56      0.61      0.00
    1   11   56      1.70      0.00
    3   11   56      0.41      0.00
    5   11   56      4.91      0.00
    7   11   56     -2.18      0.00
    9   11   56      7.34      0.00
    0   12   56     -1.46      0.00
    2   12   56     -4.11      0.00
    4   12   56     -1.83      0.00
    6   12   56    -18.09      0.00
    8   12   56     -0.06      0.00
   10   12   56     -6.86      0.00
   12   12   56     -0.75      0.00
    1   13   56     -8.02      0.00
    3   13   56    -14.12      0.00
    5   13   56     -1.81      0.00
    7   13   56     -0.11      0.00
    9   13   56     -1.94      0.00
   11   13   56      2.41      0.00
    0   14   56      1.86      0.00
    2   14   56     -2.39      0.00
    4   14   56     -3.79      0.00
    6   14   56    -13.06      0.00
    8   14   56     -1.89      0.00
   10   14   56     -3.51      0.00
    1   15   56     -8.43      0.00
    3   15   56     -3.29      0.00
    5   15   56     -8.03      0.00
    7   15   56     -7.15      0.00
    9   15   56      3.08      0.00
    0   16   56      2.06      0.00
    2   16   56      7.62      0.00
    4   16   56    -10.88      0.00
    6   16   56      4.40      0.00
    1   17   56     -8.22      0.00
    3   17   56      2.75      0.00
    5   17   56     -0.87      0.00
    0    1   57     18.29      0.00
    1    2   57      1.89      0.00
    0    3   57     -7.61      0.00
    2    3   57      1.87      0.00
    1    4   57     -6.96      0.00
    3    4   57     -6.33      0.00
    0    5   57      2.86      0.00
    2    5   57     -0.54      0.00
    4    5   57     -4.38      0.00
    1    6   57      3.01      0.00
    3    6   57      0.24      0.00
    5    6   57     -4.85      0.00
    0    7   57      1.63      0.00
    2    7   57      7.16      0.00
    4    7   57     -1.61      0.00
    6    7   57     -6.26      0.00
    1    8   57      1.96      0.00
    3    8   57     -0.25      0.00
    5    8   57     -4.33      0.00
    7    8   57     -0.30      0.00
    0    9   57     12.08      0.00
    2    9   57     -2.10      0.00
    4    9   57      3.01      0.00
    6    9   57     -0.02      0.00
    8    9   57     -6.10      0.00
    1   10   57     -6.01      0.00
    3   10   57     -3.92      0.00
    5   10   57     -2.59      0.00
    7   10   57      3.47      0.00
    9   10   57      7.61      0.00
    0   11   57     -1.97      0.00
    2   11   57      3.67      0.00
    4   11   57     -2.36      0.00
    6   11   57     -3.14      0.00
    8   11   57      1.11      0.00
   10   11   57      1.46      0.00
    1   12   57      4.06      0.00
    3   12   57      1.72      0.00
    5   12   57     -2.74      0.00
    7   12   57      6.50      0.00
    9   12   57     10.08      0.00
   11   12   57      0.99      0.00
    0   13   57     20.58      0.00
    2   13   57      9.23      0.00
    4   13   57     -1.50      0.00
    6   13   57      6.85      0.00
    8   13   57     11.12      0.00
   10   13   57     11.44      0.00
    1   14   57     -1.40      0.00
    3   14   57      9.36      0.00
    5   14   57      5.19      0.00
    7   14   57     -3.55      0.00
    9   14   57     -5.32      0.00
    0   15   57      1.70      0.00
    2   15   57     -0.17      0.00
    4   15   57    -13.65      0.00
    6   15   57     17.20      0.00
    8   15   57      1.02      0.00
    1   16   57      0.24      0.00
    3   16   57      2.84      0.00
    5   16   57     -0.70      0.00
    7   16   57      2.05      0.00
    0   17   57     -1.81      0.00
    2   17   57     -9.78      0.00
    4   17   57      4.50      0.00
    1    1   58      1.39      0.00
    0    2   58      4.08      0.00
    1    3   58     -4.61      0.00
    3    3   58      2.00      0.00
    0    4   58      2.84      0.00
    2    4   58      2.21      0.00
    1    5   58      5.50      0.00
    3    5   58     -0.40      0.00
    5    5   58      5.31      0.00
    0    6   58      0.68      0.00
    2    6   58      2.12      0.00
    4    6   58      4.64      0.00
    1    7   58     -3.99      0.00
    3    7   58     -4.60      0.00
    5    7   58      1.84      0.00
    7    7   58      3.92      0.00
    0    8   58     -0.04      0.00
    2    8   58      1.77      0.00
    4    8   58      0.27      0.00
    6    8   58      2.06      0.00
    1    9   58    -13.95      0.00
    3    9   58     -3.48      0.00
    5    9   58     -6.47      0.00
    7    9   58     -2.10      0.00
    9    9   58      0.41      0.00
    0   10   58     -1.00      0.00
    2   10   58      4.34      0.00
    4   10   58     -0.16      0.00
    6   10   58    -10.23      0.00
    8   10   58     -7.40      0.00
    1   11   58     -4.61      0.00
    3   11   58     -3.87      0.00
    5   11   58     -6.11      0.00
    7   11   58     -0.15      0.00
    9   11   58      6.07      0.00
   11   11   58     -6.71      0.00
    0   12   58      0.69      0.00
    2   12   58     -6.58      0.00
    4   12   58     -4.22      0.00
    6   12   58      1.55      0.00
    8   12   58     -4.08      0.00
   10   12   58    -11.03      0.00
    1   13   58      5.60      0.00
    3   13   58     -0.72      0.00
    5   13   58      1.99      0.00
    7   13   58     -0.38      0.00
    9   13   58     -2.31      0.00
   11   13   58      4.99      0.00
    0   14   58    -10.25      0.00
    2   14   58      0.83      0.00
    4   14   58      0.89      0.00
    6   14   58      3.61      0.00
    8   14   58      5.11      0.00
    1   15   58     -5.83      0.00
    3   15   58      4.62      0.00
    5   15   58     -4.22      0.00
    7   15   58      7.53      0.00
    0   16   58     -7.86      0.00
    2   16   58     -1.14      0.00
    4   16   58     -1.50      0.00
    6   16   58     17.73      0.00
    1   17   58     -4.27      0.00
    0    1   59      6.64      0.00
    1    2   59     -7.42      0.00
    0    3   59     -8.96      0.00
    2    3   59     -4.79      0.00
    1    4   59     -0.03      0.00
    3    4   59     -2.94      0.00
    0    5   59     -1.86      0.00
    2    5   59      1.08      0.00
    4    5   59     -0.89      0.00
    1    6   59     -3.04      0.00
    3    6   59      2.54      0.00
    5    6   59     -1.04      0.00
    0    7   59     -9.71      0.00
    2    7   59      4.53      0.00
    4    7   59      6.29      0.00
    6    7   59    -16.15      0.00
    1    8   59     -3.79      0.00
    3    8   59      0.70      0.00
    5    8   59      4.05      0.00
    7    8   59     -0.20      0.00
    0    9   59     -2.36      0.00
    2    9   59     -6.29      0.00
    4    9   59     -2.37      0.00
    6    9   59     -8.85      0.00
    8    9   59      6.95      0.00
    1   10   59     -6.77      0.00
    3   10   59     -5.34      0.00
    5   10   59     -5.31      0.00
    7   10   59     10.98      0.00
    9   10   59      1.55      0.00
    0   11   59     -9.52      0.00
    2   11   59     -3.95      0.00
    4   11   59      2.72      0.00
    6   11   59      0.16      0.00
    8   11   59     -6.67      0.00
   10   11   59     -5.60      0.00
    1   12   59      3.74      0.00
    3   12   59     -2.17      0.00
    5   12   59      5.82      0.00
    7   12   59      9.00      0.00
    9   12   59      6.76      0.00
   11   12   59      9.43      0.00
    0   13   59     -5.99      0.00
    2   13   59      0.44      0.00
    4   13   59     -1.76      0.00
    6   13   59     -4.48      0.00
    8   13   59      4.61      0.00
   10   13   59     10.98      0.00
    1   14   59     -3.97      0.00
    3   14   59     -2.52      0.00
    5   14   59     -1.36      0.00
    7   14   59     -3.87      0.00
    9   14   59     -0.34      0.00
    0   15   59      6.79      0.00
    2   15   59     14.93      0.00
    4   15   59      5.73      0.00
    6   15   59     -1.00      0.00
    1   16   59     -3.67      0.00
    3   16   59     -7.51      0.00
    5   16   59      5.21      0.00
    0    0   60    -10.50      0.00
    0    2   60      4.55      0.00
    2    2   60     -8.07      0.00
    1    3   60      1.99      0.00
    0    4   60     -7.61      0.00
    2    4   60      6.41      0.00
    4    4   60     -1.61      0.00
    1    5   60      4.86      0.00
    3    5   60     -0.01      0.00
    0    6   60     -0.23      0.00
    2    6   60      0.07      0.00
    4    6   60      5.38      0.00
    6    6   60      3.46      0.00
    1    7   60     -4.38      0.00
    3    7   60      0.74      0.00
    5    7   60      9.39      0.00
    0    8   60      2.80      0.00
    2    8   60     -0.25      0.00
    4    8   60      2.64      0.00
    6    8   60     -4.71      0.00
    8    8   60     -2.82      0.00
    1    9   60      2.15      0.00
    3    9   60      0.52      0.00
    5    9   60      4.03      0.00
    7    9   60     -2.08      0.00
    0   10   60      7.57      0.00
    2   10   60      2.88      0.00
    4   10   60      6.23      0.00
    6   10   60      0.41      0.00
    8   10   60      2.60      0.00
   10   10   60     -6.43      0.00
    1   11   60      2.34      0.00
    3   11   60      0.42      0.00
    5   11   60      8.89      0.00
    7   11   60     -2.54      0.00
    9   11   60     -4.66      0.00
    0   12   60     -4.22      0.00
    2   12   60      0.75      0.00
    4   12   60     11.33      0.00
    6   12   60     -3.35      0.00
    8   12   60     -6.48      0.00
   10   12   60     -8.29      0.00
    1   13   60     -2.35      0.00
    3   13   60     -3.25      0.00
    5   13   60     -0.67      0.00
    7   13   60     -0.90      0.00
    9   13   60     -5.38      0.00
    0   14   60     -3.48      0.00
    2   14   60    -10.09      0.00
    4   14   60     -3.03      0.00
    6   14   60      6.85      0.00
    8   14   60      4.92      0.00
    1   15   60    -13.12      0.00
    3   15   60      5.64      0.00
    5   15   60     -2.04      0.00
    0   16   60     -3.49      0.00
    2   16   60    -10.41      0.00
    0    1   61      3.18      0.00
    1    2   61     -3.83      0.00
    0    3   61     -7.54      0.00
    2    3   61     -1.63      0.00
    1    4   61      1.97      0.00
    3    4   61      2.53      0.00
    0    5   61      4.42      0.00
    2    5   61      6.22      0.00
    4    5   61     -4.74      0.00
    1    6   61      2.77      0.00
    3    6   61     -3.70      0.00
    5    6   61      1.88      0.00
    0    7   61      4.71      0.00
    2    7   61      7.75      0.00
    4    7   61     -7.23      0.00
    6    7   61     -6.05      0.00
    1    8   61      2.30      0.00
    3    8   61     -4.01      0.00
    5    8   61    -11.72      0.00
    7    8   61      1.23      0.00
    0    9   61      9.02      0.00
    2    9   61     -2.78      0.00
    4    9   61      0.28      0.00
    6    9   61     -0.55      0.00
    8    9   61     -5.18      0.00
    1   10   61      2.73      0.00
    3   10   61      0.70      0.00
    5   10   61      5.37      0.00
    7   10   61     -6.88      0.00
    9   10   61     -0.99      0.00
    0   11   61      4.40      0.00
    2   11   61      3.31      0.00
    4   11   61     -5.06      0.00
    6   11   61     -5.54      0.00
    8   11   61     -0.81      0.00
   10   11   61     11.28      0.00
    1   12   61     -6.86      0.00
    3   12   61      2.11      0.00
    5   12   61     -4.22      0.00
    7   12   61      1.84      0.00
    9   12   61     13.57      0.00
    0   13   61     -1.57      0.00
    2   13   61     -1.41      0.00
    4   13   61     -5.03      0.00
    6   13   61      5.84      0.00
    8   13   61     -5.20      0.00
    1   14   61      6.16      0.00
    3   14   61      1.86      0.00
    5   14   61     -7.90      0.00
    7   14   61     -9.60      0.00
    0   15   61      1.16      0.00
    2   15   61     -3.00      0.00
    4   15   61      2.27      0.00
    1    1   62     -1.83      0.00
    0    2   62     -3.15      0.00
    1    3   62     -0.98      0.00
    3    3   62     -3.51      0.00
    0    4   62      5.66      0.00
    2    4   62      7.42      0.00
    1    5   62      2.20      0.00
    3    5   62     -2.09      0.00
    5    5   62      1.24      0.00
    0    6   62     -0.56      0.00
    2    6   62     -5.09      0.00
    4    6   62     -1.78      0.00
    1    7   62      0.26      0.00
    3    7   62    -10.32      0.00
    5    7   62      1.98      0.00
    7    7   62     -7.81      0.00
    0    8   62     -4.64      0.00
    2    8   62      0.32      0.00
    4    8   62      0.51      0.00
    6    8   62     -6.19      0.00
    1    9   62      2.62      0.00
    3    9   62     -0.08      0.00
    5    9   62      3.05      0.00
    7    9   62      5.88      0.00
    9    9   62      7.92      0.00
    0   10   62      3.47      0.00
    2   10   62      9.94      0.00
    4   10   62      7.38      0.00
    6   10   62     -5.46      0.00
    8   10   62      7.89      0.00
    1   11   62      1.77      0.00
    3   11   62      0.67      0.00
    5   11   62      4.02      0.00
    7   11   62      1.48      0.00
    9   11   62     -0.03      0.00
   11   11   62    -10.20      0.00
    0   12   62      0.49      0.00
    2   12   62     -0.72      0.00
    4   12   62      7.64      0.00
    6   12   62     -1.69      0.00
    8   12   62     -0.97      0.00
    1   13   62     -5.02      0.00
    3   13   62     -3.63      0.00
    5   13   62      1.12      0.00
    7   13   62      4.79      0.00
    0   14   62    -14.43      0.00
    2   14   62     -9.05      0.00
    4   14   62     -8.62      0.00
    6   14   62     10.87      0.00
    1   15   62     -1.45      0.00
    3   15   62     -2.48      0.00
    0    1   63     -9.30      0.00
    1    2   63    -10.13      0.00
    0    3   63      3.54      0.00
    2    3   63      3.09      0.00
    1    4   63     -0.53      0.00
    3    4   63     -4.13      0.00
    0    5   63    -10.87      0.00
    2    5   63     -5.20      0.00
    4    5   63     -1.61      0.00
    1    6   63     -0.17      0.00
    3    6   63     -6.28      0.00
    5    6   63     -0.65      0.00
    0    7   63     -4.26      0.00
    2    7   63     -3.75      0.00
    4    7   63     -2.09      0.00
    6    7   63     -5.51      0.00
    1    8   63    -12.21      0.00
    3    8   63      0.81      0.00
    5    8   63     -8.52      0.00
    7    8   63     14.61      0.00
    0    9   63     -2.74      0.00
    2    9   63      8.09      0.00
    4    9   63      3.81      0.00
    6    9   63     -3.51      0.00
    8    9   63      8.19      0.00
    1   10   63      3.11      0.00
    3   10   63     -3.03      0.00
    5   10   63     -2.69      0.00
    7   10   63    -12.67      0.00
    9   10   63     -4.27      0.00
    0   11   63     -5.04      0.00
    2   11   63     -6.83      0.00
    4   11   63     -1.42      0.00
    6   11   63     -6.65      0.00
    8   11   63      5.67      0.00
   10   11   63      7.69      0.00
    1   12   63      3.16      0.00
    3   12   63      0.47      0.00
    5   12   63     -0.78      0.00
    7   12   63     -1.87      0.00
    9   12   63    -14.94      0.00
    0   13   63    -12.87      0.00
    2   13   63      3.21      0.00
    4   13   63     -5.76      0.00
    6   13   63     -0.78      0.00
    1   14   63     10.65      0.00
    3   14   63      0.09      0.00
    5   14   63     -9.52      0.00
    0   15   63      7.46      0.00
    2   15   63      8.72      0.00
    0    0   64     11.89      0.00
    0    2   64     -1.34      0.00
    2    2   64     -1.38      0.00
    1    3   64     -9.34      0.00
    0    4   64     -8.63      0.00
    2    4   64     -1.99      0.00
    4    4   64      0.74      0.00
    1    5   64     -5.15      0.00
    3    5   64      1.07      0.00
    0    6   64     -2.73      0.00
    2    6   64     -2.45      0.00
    4    6   64      4.91      0.00
    6    6   64     -7.32      0.00
    1    7   64     -1.92      0.00
    3    7   64      0.08      0.00
    5    7   64      3.35      0.00
    0    8   64      3.64      0.00
    2    8   64      7.13      0.00
    4    8   64     -2.84      0.00
    6    8   64      8.00      0.00
    8    8   64     -2.09      0.00
    1    9   64     -1.93      0.00
    3    9   64      7.21      0.00
    5    9   64      5.70      0.00
    7    9   64     -0.03      0.00
    0   10   64      1.71      0.00
    2   10   64     -2.59      0.00
    4   10   64     -1.53      0.00
    6   10   64     -1.47      0.00
    8   10   64      4.59      0.00
   10   10   64     -2.78      0.00
    1   11   64      7.95      0.00
    3   11   64     -2.32      0.00
    5   11   64      4.61      0.00
    7   11   64      0.02      0.00
    9   11   64     -7.19      0.00
    0   12   64      8.48      0.00
    2   12   64     -7.82      0.00
    4   12   64     -3.76      0.00
    6   12   64     -2.89      0.00
    8   12   64      9.83      0.00
    1   13   64      2.45      0.00
    3   13   64      4.86      0.00
    5   13   64      4.57      0.00
    0   14   64      3.82      0.00
    2   14   64      3.71      0.00
    4   14   64     -1.40      0.00
    0    1   65      2.21      0.00
    1    2   65     10.06      0.00
    0    3   65     -4.09      0.00
    2    3   65     16.36      0.00
    1    4   65      5.85      0.00
    3    4   65      1.23      0.00
    0    5   65      4.58      0.00
    2    5   65      3.02      0.00
    4    5   65      5.58      0.00
    1    6   65     -2.71      0.00
    3    6   65      0.24      0.00
    5    6   65     -1.01      0.00
    0    7   65     -0.70      0.00
    2    7   65      7.49      0.00
    4    7   65     -8.86      0.00
    6    7   65     11.52      0.00
    1    8   65     -1.09      0.00
    3    8   65      7.16      0.00
    5    8   65     -4.41      0.00
    7    8   65     -0.37      0.00
    0    9   65      3.95      0.00
    2    9   65     -6.79      0.00
    4    9   65     -0.24      0.00
    6    9   65     -2.25      0.00
    8    9   65      5.42      0.00
    1   10   65     -2.69      0.00
    3   10   65    -18.69      0.00
    5   10   65     -4.71      0.00
    7   10   65     -2.00      0.00
    9   10   65      6.29      0.00
    0   11   65     -0.20      0.00
    2   11   65      0.62      0.00
    4   11   65     -2.15      0.00
    6   11   65      1.41      0.00
    8   11   65     -1.70      0.00
    1   12   65     -5.08      0.00
    3   12   65     -6.98      0.00
    5   12   65      2.45      0.00
    7   12   65     -3.02      0.00
    0   13   65      0.21      0.00
    2   13   65      8.80      0.00
    4   13   65      1.41      0.00
    1   14   65      4.90      0.00
    1    1   66      2.42      0.00
    0    2   66     -3.01      0.00
    1    3   66      5.65      0.00
    3    3   66     -4.91      0.00
    0    4   66      6.19      0.00
    2    4   66      6.57      0.00
    1    5   66     -1.57      0.00
    3    5   66     -3.70      0.00
    5    5   66      8.28      0.00
    0    6   66     -7.90      0.00
    2    6   66     11.04      0.00
    4    6   66     -4.05      0.00
    1    7   66      0.02      0.00
    3    7   66     -2.23      0.00
    5    7   66      1.27      0.00
    7    7   66     -1.41      0.00
    0    8   66     13.98      0.00
    2    8   66    -10.68      0.00
    4    8   66     17.35      0.00
    6    8   66      5.06      0.00
    1    9   66      1.38      0.00
    3    9   66     -9.14      0.00
    5    9   66      9.92      0.00
    7    9   66      1.72      0.00
    9    9   66      8.62      0.00
    0   10   66    -14.60      0.00
    2   10   66     13.85      0.00
    4   10   66      2.28      0.00
    6   10   66      4.78      0.00
    8   10   66     12.87      0.00
    1   11   66      3.75      0.00
    3   11   66      2.80      0.00
    5   11   66     -2.57      0.00
    7   11   66      2.13      0.00
    0   12   66      9.59      0.00
    2   12   66     -2.19      0.00
    4   12   66     12.73      0.00
    6   12   66     -7.08      0.00
    1   13   66      4.18      0.00
    3   13   66     -1.96      0.00
    0    1   67     10.81      0.00
    1    2   67      1.00      0.00
    0    3   67     -7.83      0.00
    2    3   67      7.54      0.00
    1    4   67     -0.26      0.00
    3    4   67     -8.92      0.00
    0    5   67      4.20      0.00
    2    5   67     -2.15      0.00
    4    5   67     -5.08      0.00
    1    6   67      2.36      0.00
    3    6   67      5.53      0.00
    5    6   67     -0.44      0.00
    0    7   67      5.11      0.00
    2    7   67      3.02      0.00
    4    7   67      8.57      0.00
    6    7   67     -2.37      0.00
    1    8   67      7.34      0.00
    3    8   67      7.78      0.00
    5    8   67     -3.49      0.00
    7    8   67      2.55      0.00
    0    9   67     -2.98      0.00
    2    9   67     -1.71      0.00
    4    9   67      0.50      0.00
    6    9   67     -7.15      0.00
    8    9   67     -3.73      0.00
    1   10   67      0.59      0.00
    3   10   67      7.92      0.00
    5   10   67      8.31      0.00
    7   10   67      2.20      0.00
    0   11   67     -6.32      0.00
    2   11   67     -2.97      0.00
    4   11   67     -3.07      0.00
    6   11   67      0.48      0.00
    1   12   67      0.61      0.00
    3   12   67      7.64      0.00
    5   12   67      1.54      0.00
    0   13   67    -14.01      0.00
    2   13   67     -0.13      0.00
    0    0   68      6.01      0.00
    0    2   68      7.82      0.00
    2    2   68      3.84      0.00
    1    3   68      4.26      0.00
    0    4   68      2.02      0.00
    2    4   68     -6.57      0.00
    4    4   68     -7.13      0.00
    1    5   68     -5.35      0.00
    3    5   68      1.36      0.00
    0    6   68     -6.12      0.00
    2    6   68      0.11      0.00
    4    6   68     -5.55      0.00
    6    6   68     -7.32      0.00
    1    7   68    -14.57      0.00
    3    7   68      4.15      0.00
    5    7   68      1.23      0.00
    0    8   68      5.79      0.00
    2    8   68     -5.19      0.00
    4    8   68     -1.45      0.00
    6    8   68      3.97      0.00
    8    8   68    -11.29      0.00
    1    9   68     -1.96      0.00
    3    9   68      7.06      0.00
    5    9   68     -2.39      0.00
    7    9   68    -12.78      0.00
    0   10   68     -2.49      0.00
    2   10   68      4.85      0.00
    4   10   68     -0.46      0.00
    6   10   68     -0.58      0.00
    1   11   68      4.60      0.00
    3   11   68      0.59      0.00
    5   11   68     -6.81      0.00
    0   12   68      8.09      0.00
    2   12   68     -4.53      0.00
    0    1   69     -8.25      0.00
    1    2   69    -17.53      0.00
    0    3   69     -2.06      0.00
    2    3   69     -2.43      0.00
    1    4   69      6.32      0.00
    3    4   69     -0.90      0.00
    0    5   69     -2.03      0.00
    2    5   69      7.29      0.00
    4    5   69      1.55      0.00
    1    6   69     -0.78      0.00
    3    6   69      2.35      0.00
    5    6   69      0.76      0.00
    0    7   69      9.13      0.00
    2    7   69      9.67      0.00
    4    7   69     -3.32      0.00
    6    7   69     -0.58      0.00
    1    8   69     -4.64      0.00
    3    8   69     -7.99      0.00
    5    8   69     -7.65      0.00
    7    8   69      0.03      0.00
    0    9   69      4.73      0.00
    2    9   69     -1.31      0.00
    4    9   69     -0.90      0.00
    6    9   69      4.26      0.00
    1   10   69     -6.01      0.00
    3   10   69    -16.64      0.00
    5   10   69     -4.76      0.00
    0   11   69     -4.88      0.00
    2   11   69     -3.78      0.00
    4   11   69      3.78      0.00
    1    1   70     12.62      0.00
    0    2   70     15.16      0.00
    1    3   70      9.38      0.00
    3    3   70      0.45      0.00
    0    4   70    -18.29      0.00
    2    4   70      3.03      0.00
    1    5   70     -0.42      0.00
    3    5   70     -5.51      0.00
    5    5   70      5.84      0.00
    0    6   70      2.05      0.00
    2    6   70      0.34      0.00
    4    6   70     -2.01      0.00
    1    7   70     -1.15      0.00
    3    7   70     -2.50      0.00
    5    7   70     -0.30      0.00
    7    7   70     -0.52      0.00
    0    8   70     -8.17      0.00
    2    8   70      0.30      0.00
    4    8   70     -6.83      0.00
    6    8   70      4.83      0.00
    1    9   70     13.66      0.00
    3    9   70      4.49      0.00
    5    9   70     -3.98      0.00
    0   10   70      0.39      0.00
    2   10   70     -6.70      0.00
    4   10   70     10.23      0.00
    1   11   70      1.26      0.00
    0    1   71     -9.12      0.00
    1    2   71    -10.28      0.00
    0    3   71     -9.85      0.00
    2    3   71      2.06      0.00
    1    4   71      5.86      0.00
    3    4   71      9.42      0.00
    0    5   71     14.04      0.00
    2    5   71      0.41      0.00
    4    5   71     -8.39      0.00
    1    6   71      5.97      0.00
    3    6   71      2.94      0.00
    5    6   71     -0.07      0.00
    0    7   71     22.39      0.00
    2    7   71      8.70      0.00
    4    7   71     -3.69      0.00
    6    7   71      1.67      0.00
    1    8   71     -0.21      0.00
    3    8   71      5.24      0.00
    5    8   71     12.29      0.00
    7    8   71      3.42      0.00
    0    9   71      0.19      0.00
    2    9   71     -4.26      0.00
    4    9   71      1.27      0.00
    1   10   71      3.86      0.00
    3   10   71      9.72      0.00
    0    0   72     31.66      0.00
    0    2   72     13.48      0.00
    2    2   72     10.42      0.00
    1    3   72     -1.61      0.00
    0    4   72     -2.86      0.00
    2    4   72     -6.07      0.00
    4    4   72     -4.33      0.00
    1    5   72     -9.95      0.00
    3    5   72      2.86      0.00
    0    6   72     -5.28      0.00
    2    6   72     -3.79      0.00
    4    6   72     -2.18      0.00
    6    6   72      0.94      0.00
    1    7   72    -18.45      0.00
    3    7   72     -4.78      0.00
    5    7   72     -5.21      0.00
    0    8   72     -1.58      0.00
    2    8   72      4.29      0.00
    4    8   72      1.01      0.00
    1    9   72     -6.38      0.00
    3    9   72     -0.37      0.00
    0    1   73    -16.52      0.00
    1    2   73     -3.76      0.00
    0    3   73     -0.84      0.00
    2    3   73     -2.87      0.00
    1    4   73      2.07      0.00
    3    4   73     -5.01      0.00
    0    5   73     -3.24      0.00
    2    5   73      3.39      0.00
    4    5   73     -9.22      0.00
    1    6   73      5.65      0.00
    3    6   73     -3.57      0.00
    5    6   73      2.73      0.00
    0    7   73     14.34      0.00
    2    7   73     -1.47      0.00
    4    7   73      7.29      0.00
    1    8   73     -6.33      0.00
    3    8   73     -4.62      0.00
    0    9   73    -12.94      0.00
    1    1   74      5.23      0.00
    0    2   74     -3.80      0.00
    1    3   74      5.50      0.00
    3    3   74      1.05      0.00
    0    4   74    -19.69      0.00
    2    4   74     -8.38      0.00
    1    5   74      5.45      0.00
    3    5   74      7.91      0.00
    5    5   74      3.64      0.00
    0    6   74      4.55      0.00
    2    6   74      0.57      0.00
    4    6   74      3.72      0.00
    1    7   74     -7.33      0.00
    3    7   74      0.01      0.00
    0    8   74      4.94      0.00
    0    1   75     -3.95      0.00
    1    2   75     -4.80      0.00
    0    3   75     -1.47      0.00
    2    3   75    -11.44      0.00
    1    4   75      7.90      0.00
    3    4   75    -13.34      0.00
    0    5   75      9.70      0.00
    2    5   75      2.40      0.00
    4    5   75     -2.21      0.00
    1    6   75     -2.37      0.00
    3    6   75      5.14      0.00
    0    7   75      2.07      0.00
    0    0   76     14.00      0.00
    0    2   76      5.73      0.00
    2    2   76      9.03      0.00
    1    3   76      0.54      0.00
    0    4   76      2.33      0.00
    2    4   76     -5.44      0.00
    4    4   76      8.48      0.00
    1    5   76     -8.93      0.00
    3    5   76     10.91      0.00
    0    1   77      1.08      0.00
    1    2   77      3.43      0.00
    0    3   77     -0.53      0.00
    2    3   77     -7.30      0.00
    9   24    1      2.40      0.00
    6   25    1      0.15      0.00
   15   21    2     -5.02      0.00
    9   24    3      2.55      0.00
    6   25    3     -8.46      0.00
   16   20    4     -9.99      0.00
    9   24    5     12.62      0.00
    6   25    5      0.76      0.00
   16   20    6    -12.85      0.00
   13   22    7    -10.08      0.00
    9   24    7      0.58      0.00
    6   25    7    -16.53      0.00
   17   19    8      9.88      0.00
   16   20    8      3.10      0.00
    5   25    8    -10.30      0.00
   13   22    9     -3.92      0.00
    9   24    9      0.91      0.00
   17   19   10     -4.37      0.00
   16   20   10     -9.94      0.00
   11   23   10      0.85      0.00
    5   25   10      5.63      0.00
   13   22   11    -11.19      0.00
   18   18   12     16.50      0.00
   17   19   12      4.51      0.00
   11   23   12      6.32      0.00
    5   25   12      5.20      0.00
    4   25   13     -3.14      0.00
    8   24   14     -1.37      0.00
   14   21   15     -2.17      0.00
    4   25   15     -4.25      0.00
    3   25   16      9.49      0.00
   10   23   17      2.44      0.00
    2   25   17     -2.07      0.00
   12   22   18     -0.19      0.00
    1   25   18     -4.85      0.00
   15   20   19     -5.55      0.00
    7   24   19      3.25      0.00
    0   25   19     -3.16      0.00
   17   18   21      4.35      0.00
   16   19   21      1.01      0.00
   13   21   22     -3.73      0.00
    9   23   22      7.74      0.00
    6   24   22      1.31      0.00
   11   22   23     -2.81      0.00
    5   24   23    -12.11      0.00
   14   20   24     -4.96      0.00
    8   23   25     -2.37      0.00
   15   19   26      0.42      0.00
   10   22   26      9.39      0.00
    4   24   26      5.30      0.00
   12   21   27      0.92      0.00
    3   24   27     -0.37      0.00
   16   18   28      1.10      0.00
    7   23   28     -4.84      0.00
    0   24   28     -7.94      0.00
    2   24   28      1.28      0.00
   13   20   29     -7.65      0.00
   11   21   30      5.65      0.00
   14   19   31      2.03      0.00
    8   22   32     16.22      0.00
    5   23   32     -7.00      0.00
   16   17   33     12.62      0.00
   15   18   33     15.08      0.00
   10   21   33     -0.60      0.00
    4   23   33     12.24      0.00
    3   23   34      2.89      0.00
    7   22   35     -6.40      0.00
    0   23   35      3.89      0.00
    2   23   35      4.89      0.00
   14   18   36     -5.60      0.00
    9   21   36     -5.59      0.00
    6   22   36      2.41      0.00
    5   22   37    -10.47      0.00
   13   18   39     15.14      0.00
    3   22   39      8.19      0.00
    7   21   40      8.58      0.00
    2   22   40     -2.90      0.00
   15   16   41     11.30      0.00
   14   17   41      0.44      0.00
    9   20   41      0.06      0.00
    6   21   41      0.52      0.00
    1   22   41      2.19      0.00
   12   18   42    -11.33      0.00
   10   19   43     13.92      0.00
   14   16   44     -1.48      0.00
   13   17   44     -0.31      0.00
    3   21   44      7.12      0.00
   11   18   45     -0.41      0.00
    7   20   45      2.53      0.00
    0   21   45     -6.21      0.00
    2   21   45     -9.40      0.00
    6   20   46      5.89      0.00
   14   15   47     -4.49      0.00
   13   16   47      1.23      0.00
    8   19   47     -5.30      0.00
    5   20   47      5.34      0.00
   11   17   48      0.74      0.00
    7   19   48      1.58      0.00
    4   20   48     -3.28      0.00
    9   18   49      5.19      0.00
    1   20   49     -2.64      0.00
   13   15   50      4.11      0.00
    8   18   50     -3.11      0.00
   11   16   51      4.84      0.00
    4   19   51     -3.84      0.00
    9   17   52    -13.13      0.00
    3   19   52      6.89      0.00
    0   19   53     29.38      0.00
   11   15   54     -0.55      0.00
    9   16   55      5.36      0.00
    3   18   55      2.33      0.00
    8   16   56     -0.65      0.00
    0   18   56     -4.39      0.00
    2   18   56      1.23      0.00
   12   13   57     -6.21      0.00
   10   14   58     11.59      0.00
    3   17   58     -6.72      0.00
    8   15   59      3.44      0.00
    0   17   59     25.63      0.00
    7   15   60     -4.49      0.00
    4   16   60    -14.50      0.00
   11   12   61      8.04      0.00
    6   15   61     -1.96      0.00
    1   16   61      6.63      0.00
    3   16   61      4.84      0.00
   10   12   62    -10.55      0.00
    9   13   62     -5.68      0.00
    5   15   62     -7.10      0.00
    8   13   63     -3.03      0.00
    7   13   64     -4.63      0.00
    6   13   65     -4.39      0.00
    3   14   65     11.62      0.00
    5   13   66     -0.35      0.00
    0   14   66    -10.31      0.00
    9   10   67    -10.79      0.00
    8   10   68      1.57      0.00
    4   12   68      0.94      0.00
    8    9   69     -0.95      0.00
    7   10   69     -2.47      0.00
    1   12   69     -7.11      0.00
    3   12   69     -4.32      0.00
    7    9   70     -2.78      0.00
    6   10   70    -10.18      0.00
    3   11   70     -1.47      0.00
    6    9   71     -3.25      0.00
    0   11   71      0.33      0.00
    6    8   72     -6.32      0.00
    5    9   72      0.99      0.00
    0   10   72      1.37      0.00
    2   10   72      0.38      0.00
    6    7   73      4.77      0.00
    5    8   73      0.65      0.00
    2    9   73     -0.46      0.00
    5    7   74     -2.85      0.00
    2    8   74     11.31      0.00
    2    7   75     -0.90      0.00
    0    6   76    -13.54      0.00
    2    6   76     -3.65      0.00
    1    4   77      9.13      0.00
    3    4   77      6.01      0.00
    0    5   77    -10.36      0.00
    0    0    0      0.00      0.00
# SQUEEZE RESULTS (Version =  30715)
# Note: Data are Listed for all Voids in the P1 Unit Cell
# i.e. Centre of Gravity, Solvent Accessible Volume,
# Recovered number of Electrons in the Void and
# Details about the Squeezed Material
loop_
  _platon_squeeze_void_nr
  _platon_squeeze_void_average_x
  _platon_squeeze_void_average_y
  _platon_squeeze_void_average_z
  _platon_squeeze_void_volume
  _platon_squeeze_void_count_electrons
  _platon_squeeze_void_content
   1 -0.090  0.162  0.075     16609      3634 ' '
_platon_squeeze_void_probe_radius                  1.20
_platon_squeeze_details
)
TITL wpp       I 41/a m d   R = 0.08
CELL   19.7300   19.7300   60.0600     90.00     90.00     90.00
SPGR I41/amd
# Solvent Accessible Volume =   16765.7
# Electrons Found in S.A.V. =    3621.2
# Note: Atoms in Void as Cxxx and Qxxx all others
C101 1.000 0.941 0.246 !       1.67 eA-3
Q102 0.500 0.249 0.102 !       1.56 eA-3
Q103 1.000 0.953 0.002 !       1.54 eA-3
C104 0.500 0.941 0.221 !       1.44 eA-3
C105 1.000 0.567 0.233 !       1.38 eA-3
C106 0.833 0.247 0.016 !       1.28 eA-3
C107 0.500 0.752 0.172 !       1.23 eA-3
C108 0.314 0.256 0.043 !       1.16 eA-3
C109 0.500 0.563 0.116 !       1.16 eA-3
C110 0.796 0.751 0.137 !       1.15 eA-3
C111 0.718 0.746 0.148 !       1.13 eA-3
C112 1.000 0.987 0.094 !       1.10 eA-3
C113 0.943 0.558 0.244 !       1.07 eA-3
C114 0.500 1.006 0.203 !       1.07 eA-3
C115 0.500 0.550 0.129 !       1.06 eA-3
C116 0.500 0.421 0.190 !       1.05 eA-3
C117 0.762 0.013 0.250 !       1.01 eA-3
C118 0.218 0.245 0.055 !       0.98 eA-3
C119 0.500 0.518 0.218 !       0.97 eA-3
C120 0.626 0.247 0.234 !       0.96 eA-3
C121 0.134 0.255 0.102 !       0.96 eA-3
C122 0.755 0.231 0.152 !       0.95 eA-3
C123 0.270 0.045 0.234 !       0.95 eA-3
C124 0.691 0.465 0.025 !       0.93 eA-3
C125 0.029 0.266 0.063 !       0.92 eA-3
C126 0.531 0.500 0.231 !       0.92 eA-3
C127 0.732 0.253 0.031 !       0.90 eA-3
C128 0.202 0.749 0.031 !       0.90 eA-3
C129 0.807 0.251 0.148 !       0.89 eA-3
C130 0.225 0.297 0.007 !       0.89 eA-3
C131 1.000 0.543 0.193 !       0.88 eA-3
C132 1.000 0.424 0.094 !       0.88 eA-3
C133 0.296 0.526 0.015 !       0.87 eA-3
C134 0.500 0.752 0.148 !       0.86 eA-3
C135 0.178 0.706 0.126 !       0.85 eA-3
C136 0.219 0.746 0.078 !       0.83 eA-3
C137 0.242 0.439 0.224 !       0.81 eA-3
C138 0.500 0.613 0.107 !       0.81 eA-3
C139 0.144 0.265 0.125 !       0.80 eA-3
C140 1.000 0.020 0.167 !       0.80 eA-3
C141 0.372 0.184 0.047 !       0.78 eA-3
C142 0.186 0.748 0.074 !       0.78 eA-3
C143 1.000 0.972 0.141 !       0.77 eA-3
C144 0.500 0.563 0.205 !       0.77 eA-3
C145 0.576 0.759 0.164 !       0.76 eA-3
C146 0.844 0.754 0.121 !       0.76 eA-3
C147 0.515 0.797 0.152 !       0.75 eA-3
C148 0.808 0.016 0.243 !       0.75 eA-3
C149 0.294 0.246 0.180 !       0.75 eA-3
C150 0.691 0.417 0.238 !       0.74 eA-3
C151 0.500 0.071 0.053 !       0.74 eA-3
C152 0.816 0.250 0.242 !       0.73 eA-3
C153 1.000 0.252 0.141 !       0.73 eA-3
C154 0.666 0.201 0.039 !       0.72 eA-3
C155 1.000 0.269 0.208 !       0.72 eA-3
Q156 0.310 0.074 0.105 !       0.71 eA-3
C157 0.652 0.227 0.223 !       0.71 eA-3
C158 1.000 0.091 0.165 !       0.71 eA-3
C159 0.125 0.454 0.238 !       0.71 eA-3
C160 0.797 0.753 0.090 !       0.71 eA-3
C161 0.739 0.142 0.008 !       0.71 eA-3
C162 0.197 0.716 0.037 !       0.70 eA-3
C163 0.348 0.016 0.036 !       0.70 eA-3
C164 0.142 0.207 0.250 !       0.70 eA-3
C165 0.892 0.375 0.162 !       0.70 eA-3
C166 0.500 0.749 0.094 !       0.70 eA-3
C167 0.500 0.195 0.026 !       0.69 eA-3
C168 0.517 0.360 0.215 !       0.69 eA-3
Q169 0.342 0.403 0.133 !       0.68 eA-3
C170 0.558 0.049 0.221 !       0.68 eA-3
C171 0.482 0.654 0.154 !       0.68 eA-3
C172 0.327 0.281 0.205 !       0.68 eA-3
C173 0.312 0.217 0.224 !       0.67 eA-3
C174 0.517 0.373 0.202 !       0.67 eA-3
C175 0.576 0.061 0.044 !       0.67 eA-3
Q176 0.746 0.028 0.120 !       0.67 eA-3
C177 0.128 0.255 0.250 !       0.67 eA-3
C178 0.311 0.938 0.029 !       0.66 eA-3
C179 0.189 0.562 0.471 !       0.66 eA-3
C180 0.641 0.876 0.078 !       0.66 eA-3
C181 0.904 0.750 0.121 !       0.65 eA-3
C182 0.172 0.439 0.239 !       0.65 eA-3
C183 0.612 0.456 0.039 !       0.65 eA-3
C184 1.000 0.188 0.099 !       0.65 eA-3
C185 0.140 0.250 0.238 !       0.65 eA-3
C186 0.679 0.189 0.222 !       0.65 eA-3
C187 0.427 0.248 0.242 !       0.64 eA-3
C188 0.559 0.470 0.046 !       0.64 eA-3
Q189 0.420 0.247 0.062 !       0.64 eA-3
C190 0.709 0.780 0.093 !       0.64 eA-3
C191 0.217 0.798 0.114 !       0.64 eA-3
C192 0.500 0.360 0.030 !       0.64 eA-3
C193 0.160 0.509 0.234 !       0.64 eA-3
C194 0.936 0.109 0.157 !       0.64 eA-3
C195 0.430 0.942 0.091 !       0.63 eA-3
C196 0.382 0.753 0.094 !       0.63 eA-3
C197 0.708 0.581 0.717 !       0.63 eA-3
Q198 0.724 0.453 0.105 !       0.62 eA-3
C199 0.335 0.755 0.102 !       0.62 eA-3
)
;
_shelx_fab_checksum              32665
loop_
_space_group_symop_operation_xyz
'x, y, z'
'-x+1/2, -y, z+1/2'
'-y+1/4, x+3/4, z+1/4'
'y+1/4, -x+1/4, z+3/4'
'-x+1/2, y, -z+1/2'
'x, -y, -z'
'y+1/4, x+3/4, -z+1/4'
'-y+1/4, -x+1/4, -z+3/4'
'x+1/2, y+1/2, z+1/2'
'-x+1, -y+1/2, z+1'
'-y+3/4, x+5/4, z+3/4'
'y+3/4, -x+3/4, z+5/4'
'-x+1, y+1/2, -z+1'
'x+1/2, -y+1/2, -z+1/2'
'y+3/4, x+5/4, -z+3/4'
'-y+3/4, -x+3/4, -z+5/4'
'-x, -y, -z'
'x-1/2, y, -z-1/2'
'y-1/4, -x-3/4, -z-1/4'
'-y-1/4, x-1/4, -z-3/4'
'x-1/2, -y, z-1/2'
'-x, y, z'
'-y-1/4, -x-3/4, z-1/4'
'y-1/4, x-1/4, z-3/4'
'-x+1/2, -y+1/2, -z+1/2'
'x, y+1/2, -z'
'y+1/4, -x-1/4, -z+1/4'
'-y+1/4, x+1/4, -z-1/4'
'x, -y+1/2, z'
'-x+1/2, y+1/2, z+1/2'
'-y+1/4, -x-1/4, z+1/4'
'y+1/4, x+1/4, z-1/4'
loop_
_atom_site_label
_atom_site_type_symbol
_atom_site_fract_x
_atom_site_fract_y
_atom_site_fract_z
_atom_site_U_iso_or_equiv
_atom_site_adp_type
_atom_site_occupancy
_atom_site_site_symmetry_order
_atom_site_calc_flag
_atom_site_refinement_flags_posn
_atom_site_refinement_flags_adp
_atom_site_refinement_flags_occupancy
Cu1 Cu 0.5000 0.56611(2) 0.49679(2) 0.03062(16) Uani 1 2 d S T P
Cu2 Cu 1.0000 0.7500 0.60305(2) 0.0305(2) Uani 1 4 d S T P
O1 O 0.56887(11) 0.56744(11) 0.52051(4) 0.0482(6) Uani 1 1 d . . .
O2 O 0.56903(11) 0.45535(11) 0.52552(4) 0.0480(6) Uani 1 1 d . . .
O3 O 0.92988(11) 0.68036(11) 0.60656(4) 0.0481(6) Uani 1 1 d . . .
O4 O 1.0000 0.7500 0.56634(9) 0.105(2) Uani 1 4 d S T P
H4A H 1.0290 0.7788 0.5586 0.126 Uiso 0.25 1 calc R U P
H4B H 0.9710 0.7212 0.5586 0.126 Uiso 0.25 1 calc R U P
N1 N 0.5000 0.67810(17) 0.49240(6) 0.0397(9) Uani 1 2 d S T P
C1 C 0.58831(17) 0.51523(18) 0.53028(5) 0.0415(8) Uani 1 1 d . . .
C2 C 0.63620(17) 0.52291(17) 0.54919(5) 0.0447(9) Uani 1 1 d . . .
C3 C 0.6568(2) 0.46645(19) 0.56095(6) 0.0649(12) Uani 1 1 d . . .
H3 H 0.6427 0.4235 0.5566 0.078 Uiso 1 1 calc R U .
C4 C 0.6987(2) 0.47417(19) 0.57933(7) 0.0709(13) Uani 1 1 d . . .
H4 H 0.7117 0.4360 0.5873 0.085 Uiso 1 1 calc R U .
C5 C 0.72191(19) 0.53805(19) 0.58620(6) 0.0567(10) Uani 1 1 d . . .
C6 C 0.7020(2) 0.59294(19) 0.57321(7) 0.0703(13) Uani 1 1 d . . .
H6 H 0.7175 0.6360 0.5769 0.084 Uiso 1 1 calc R U .
C7 C 0.6600(2) 0.58535(18) 0.55499(6) 0.0632(12) Uani 1 1 d . . .
H7 H 0.6478 0.6231 0.5466 0.076 Uiso 1 1 calc R U .
C8 C 0.76511(18) 0.54696(18) 0.60661(6) 0.0546(10) Uani 1 1 d . . .
C9 C 0.75702(17) 0.50702(17) 0.6250 0.0577(15) Uani 1 2 d S T P
H9 H 0.7237 0.4737 0.6250 0.069 Uiso 1 2 calc R U P
C10 C 0.81700(18) 0.59555(18) 0.60667(6) 0.0530(10) Uani 1 1 d . . .
H10 H 0.8248 0.6211 0.5939 0.064 Uiso 1 1 calc R U .
C11 C 0.85611(16) 0.60611(16) 0.6250 0.0437(12) Uani 1 2 d S T P
C12 C 0.90968(16) 0.65968(16) 0.6250 0.0395(11) Uani 1 2 d S T P
C13 C 0.5000 0.7133(2) 0.51097(9) 0.0613(16) Uani 1 2 d S T P
H13 H 0.5000 0.6904 0.5245 0.074 Uiso 1 2 calc R U P
C14 C 0.5000 0.7139(2) 0.47266(8) 0.0492(13) Uani 1 2 d S T P
C15 C 0.5000 0.6786(3) 0.45238(9) 0.086(2) Uani 1 2 d S T P
H15 H 0.5000 0.6314 0.4520 0.103 Uiso 1 2 calc R U P
C16 C 0.5000 0.7147(3) 0.43366(10) 0.155(4) Uani 1 2 d S T P
H16 H 0.5000 0.6920 0.4201 0.186 Uiso 1 2 calc R U P
loop_
_atom_site_aniso_label
_atom_site_aniso_U_11
_atom_site_aniso_U_22
_atom_site_aniso_U_33
_atom_site_aniso_U_23
_atom_site_aniso_U_13
_atom_site_aniso_U_12
Cu1 0.0402(3) 0.0233(3) 0.0284(3) -0.0018(2) 0.000 0.000
Cu2 0.0338(4) 0.0317(4) 0.0259(4) 0.000 0.000 0.000
O1 0.0632(16) 0.0370(14) 0.0444(14) 0.0036(11) -0.0183(12) -0.0047(12)
O2 0.0601(16) 0.0387(14) 0.0453(15) 0.0009(11) -0.0165(12) -0.0061(11)
O3 0.0541(15) 0.0506(15) 0.0394(14) 0.0066(12) -0.0058(12) -0.0187(11)
O4 0.152(6) 0.115(5) 0.047(4) 0.000 0.000 0.000
N1 0.058(3) 0.028(2) 0.034(2) -0.0011(17) 0.000 0.000
C1 0.049(2) 0.043(2) 0.0324(19) 0.0024(16) -0.0034(16) -0.0051(16)
C2 0.054(2) 0.041(2) 0.039(2) 0.0074(16) -0.0156(17) -0.0105(17)
C3 0.085(3) 0.047(2) 0.062(3) 0.008(2) -0.039(2) -0.017(2)
C4 0.086(3) 0.048(2) 0.078(3) 0.023(2) -0.043(3) -0.017(2)
C5 0.060(2) 0.052(2) 0.058(3) 0.017(2) -0.021(2) -0.0227(19)
C6 0.094(3) 0.047(2) 0.070(3) 0.021(2) -0.041(2) -0.029(2)
C7 0.090(3) 0.046(2) 0.054(2) 0.0159(18) -0.037(2) -0.022(2)
C8 0.062(2) 0.056(2) 0.046(2) 0.0135(18) -0.0227(19) -0.0234(19)
C9 0.064(2) 0.064(2) 0.046(3) 0.022(2) -0.022(2) -0.028(3)
C10 0.059(2) 0.055(2) 0.045(2) 0.0179(18) -0.0113(18) -0.0183(19)
C11 0.0464(18) 0.0464(18) 0.038(3) 0.0146(18) -0.0146(18) -0.014(2)
C12 0.0407(17) 0.0407(17) 0.037(3) 0.0102(16) -0.0102(16) -0.007(2)
C13 0.108(5) 0.031(3) 0.045(3) 0.006(2) 0.000 0.000
C14 0.075(4) 0.032(3) 0.040(3) 0.001(2) 0.000 0.000
C15 0.184(7) 0.036(3) 0.037(3) -0.011(3) 0.000 0.000
C16 0.390(14) 0.045(4) 0.029(4) 0.003(3) 0.000 0.000
loop_
_atom_type_symbol
_atom_type_description
_atom_type_scat_dispersion_real
_atom_type_scat_dispersion_imag
_atom_type_scat_source
C C 0.0033 0.0016 'International Tables Vol C Tables 4.2.6.8 and 6.1.1.4'
H H 0.0000 0.0000 'International Tables Vol C Tables 4.2.6.8 and 6.1.1.4'
N N 0.0061 0.0033 'International Tables Vol C Tables 4.2.6.8 and 6.1.1.4'
O O 0.0106 0.0060 'International Tables Vol C Tables 4.2.6.8 and 6.1.1.4'
Cu Cu 0.3201 1.2651 'International Tables Vol C Tables 4.2.6.8 and 6.1.1.4'
loop_
_geom_angle_atom_site_label_1
_geom_angle_atom_site_label_2
_geom_angle_atom_site_label_3
_geom_angle
_geom_angle_site_symmetry_1
_geom_angle_site_symmetry_3
O2 Cu1 O2 88.20(14) 17_666 6_566
O2 Cu1 O1 168.13(9) 17_666 .
O2 Cu1 O1 91.04(10) 6_566 .
O2 Cu1 O1 91.04(10) 17_666 22_655
O2 Cu1 O1 168.13(9) 6_566 22_655
O1 Cu1 O1 87.28(14) . 22_655
O2 Cu1 N1 97.68(10) 17_666 .
O2 Cu1 N1 97.68(10) 6_566 .
O1 Cu1 N1 94.16(9) . .
O1 Cu1 N1 94.16(9) 22_655 .
O2 Cu1 Cu1 83.45(7) 17_666 17_666
O2 Cu1 Cu1 83.45(7) 6_566 17_666
O1 Cu1 Cu1 84.69(7) . 17_666
O1 Cu1 Cu1 84.70(7) 22_655 17_666
N1 Cu1 Cu1 178.42(10) . 17_666
O3 Cu2 O3 167.65(13) 10_664 .
O3 Cu2 O3 88.95(14) 10_664 22_755
O3 Cu2 O3 89.72(14) . 22_755
O3 Cu2 O3 89.72(14) 10_664 29_565
O3 Cu2 O3 88.95(14) . 29_565
O3 Cu2 O3 167.65(13) 22_755 29_565
O3 Cu2 O4 96.18(6) 10_664 .
O3 Cu2 O4 96.17(6) . .
O3 Cu2 O4 96.18(6) 22_755 .
O3 Cu2 O4 96.18(6) 29_565 .
O3 Cu2 Cu2 83.82(6) 10_664 27_576
O3 Cu2 Cu2 83.83(6) . 27_576
O3 Cu2 Cu2 83.82(6) 22_755 27_576
O3 Cu2 Cu2 83.82(6) 29_565 27_576
O4 Cu2 Cu2 180.0 . 27_576
C1 O1 Cu1 122.8(2) . .
C1 O2 Cu1 124.2(2) . 17_666
C12 O3 Cu2 123.4(2) . .
Cu2 O4 H4A 120.0 . .
Cu2 O4 H4B 120.0 . .
H4A O4 H4B 120.0 . .
C13 N1 C14 117.3(4) . .
C13 N1 Cu1 115.1(3) . .
C14 N1 Cu1 127.6(3) . .
O1 C1 O2 124.7(3) . .
O1 C1 C2 118.1(3) . .
O2 C1 C2 117.1(3) . .
C7 C2 C3 119.8(3) . .
C7 C2 C1 120.4(3) . .
C3 C2 C1 119.8(3) . .
C2 C3 C4 119.6(3) . .
C2 C3 H3 120.2 . .
C4 C3 H3 120.2 . .
C3 C4 C5 121.8(3) . .
C3 C4 H4 119.1 . .
C5 C4 H4 119.1 . .
C6 C5 C4 116.3(3) . .
C6 C5 C8 121.7(3) . .
C4 C5 C8 122.0(3) . .
C7 C6 C5 122.0(3) . .
C7 C6 H6 119.0 . .
C5 C6 H6 119.0 . .
C2 C7 C6 120.5(3) . .
C2 C7 H7 119.8 . .
C6 C7 H7 119.8 . .
C9 C8 C10 118.5(3) . .
C9 C8 C5 121.7(3) . .
C10 C8 C5 119.7(3) . .
C8 C9 C8 121.2(5) . 7_546
C8 C9 H9 119.4 . .
C8 C9 H9 119.4 7_546 .
C11 C10 C8 121.4(3) . .
C11 C10 H10 119.3 . .
C8 C10 H10 119.3 . .
C10 C11 C10 118.8(4) . 7_546
C10 C11 C12 120.6(2) . .
C10 C11 C12 120.6(2) 7_546 .
O3 C12 O3 125.5(4) 7_546 .
O3 C12 C11 117.3(2) 7_546 .
O3 C12 C11 117.2(2) . .
N1 C13 C13 121.9(3) . 10_564
N1 C13 H13 119.0 . .
C13 C13 H13 119.0 10_564 .
N1 C14 C15 119.4(4) . .
N1 C14 C14 120.8(2) . 10_564
C15 C14 C14 119.8(3) . 10_564
C16 C15 C14 117.8(5) . .
C16 C15 H15 121.1 . .
C14 C15 H15 121.1 . .
C15 C16 C16 122.4(4) . 10_564
C15 C16 H16 118.8 . .
C16 C16 H16 118.8 10_564 .
loop_
_geom_bond_atom_site_label_1
_geom_bond_atom_site_label_2
_geom_bond_distance
_geom_bond_site_symmetry_2
Cu1 O2 1.957(2) 17_666
Cu1 O2 1.957(2) 6_566
Cu1 O1 1.969(2) .
Cu1 O1 1.969(2) 22_655
Cu1 N1 2.225(3) .
Cu1 Cu1 2.6372(11) 17_666
Cu2 O3 1.961(2) 10_664
Cu2 O3 1.961(2) .
Cu2 O3 1.961(2) 22_755
Cu2 O3 1.961(2) 29_565
Cu2 O4 2.205(5) .
Cu2 Cu2 2.6368(15) 27_576
O1 C1 1.246(4) .
O2 C1 1.273(4) .
O2 Cu1 1.957(2) 17_666
O3 C12 1.246(3) .
O4 H4A 0.9300 .
O4 H4B 0.9300 .
N1 C13 1.314(6) .
N1 C14 1.380(6) .
C1 C2 1.485(4) .
C2 C7 1.363(4) .
C2 C3 1.380(5) .
C3 C4 1.387(5) .
C3 H3 0.9300 .
C4 C5 1.403(5) .
C4 H4 0.9300 .
C5 C6 1.391(5) .
C5 C8 1.504(4) .
C6 C7 1.381(5) .
C6 H6 0.9300 .
C7 H7 0.9300 .
C8 C9 1.366(4) .
C8 C10 1.403(5) .
C9 C8 1.366(4) 7_546
C9 H9 0.9300 .
C10 C11 1.360(4) .
C10 H10 0.9300 .
C11 C10 1.361(4) 7_546
C11 C12 1.495(6) .
C12 O3 1.246(3) 7_546
C13 C13 1.448(9) 10_564
C13 H13 0.9300 .
C14 C15 1.403(6) .
C14 C14 1.424(9) 10_564
C15 C16 1.332(7) .
C15 H15 0.9300 .
C16 C16 1.392(12) 10_564
C16 H16 0.9300 .
