#------------------------------------------------------------------------------
#$Date: 2017-08-01 05:30:52 +0300 (Tue, 01 Aug 2017) $
#$Revision: 199421 $
#$URL: file:///home/coder/svn-repositories/cod/cif/7/04/38/7043855.cif $
#------------------------------------------------------------------------------
#
# This file is available in the Crystallography Open Database (COD),
# http://www.crystallography.net/
#
# All data on this site have been placed in the public domain by the
# contributors.
#
data_7043855
loop_
_publ_author_name
'Xu, Yuangang'
'Liu, wei'
'li, dongxue'
'Chen, Houhe'
'Lu, Ming'
_publ_section_title
;
 In situ synthesized 3D metal-organic frameworks (MOFs) constructed from
 transition metal cations and tetrazole derivatives : a family of
 insensitive energetic materials
;
_journal_name_full               'Dalton Trans.'
_journal_paper_doi               10.1039/C7DT02582C
_journal_year                    2017
_chemical_formula_moiety         '0.5(C36 H54 Cd10 N72)'
_chemical_formula_sum            'C18 H27 Cd5 N36'
_chemical_formula_weight         1309.75
_space_group_crystal_system      hexagonal
_space_group_IT_number           194
_space_group_name_Hall           '-P 6c 2c'
_space_group_name_H-M_alt        'P 63/m m c'
_symmetry_space_group_name_Hall  '-P 6c 2c'
_symmetry_space_group_name_H-M   'P 63/m m c'
_atom_sites_solution_hydrogens   mixed
_atom_sites_solution_primary     dual
_audit_creation_date             2016-12-27
_audit_creation_method
;
Olex2 1.2-alpha
(compiled 2016.12.12 svn.r3370 for OlexSys, GUI svn.r5282)
;
_audit_update_record
;
2017-02-24 deposited with the CCDC.
2017-07-31 downloaded from the CCDC.
;
_cell_angle_alpha                90
_cell_angle_beta                 90
_cell_angle_gamma                120
_cell_formula_units_Z            2
_cell_length_a                   13.149(2)
_cell_length_b                   13.149(2)
_cell_length_c                   13.596(3)
_cell_measurement_reflns_used    692
_cell_measurement_temperature    205
_cell_measurement_theta_max      25.62
_cell_measurement_theta_min      2.33
_cell_volume                     2035.8(6)
_computing_cell_refinement       'SAINT v8.34A (Bruker, 2013)'
_computing_data_reduction        'SAINT v8.34A (Bruker, 2013)'
_computing_molecular_graphics    'Olex2 (Dolomanov et al., 2009)'
_computing_publication_material  'Olex2 (Dolomanov et al., 2009)'
_computing_structure_refinement  'ShelXL (Sheldrick, 2015)'
_computing_structure_solution    'ShelXT (Sheldrick, 2015)'
_diffrn_ambient_temperature      205
_diffrn_measured_fraction_theta_full 0.965
_diffrn_measured_fraction_theta_max 0.966
_diffrn_measurement_device_type  'Bruker APEX-II CCD'
_diffrn_measurement_method       '\f and \w scans'
_diffrn_radiation_type           MoK\a
_diffrn_radiation_wavelength     0.71073
_diffrn_reflns_av_R_equivalents  0.0762
_diffrn_reflns_av_unetI/netI     0.0410
_diffrn_reflns_Laue_measured_fraction_full 0.965
_diffrn_reflns_Laue_measured_fraction_max 0.966
_diffrn_reflns_limit_h_max       15
_diffrn_reflns_limit_h_min       -17
_diffrn_reflns_limit_k_max       16
_diffrn_reflns_limit_k_min       -17
_diffrn_reflns_limit_l_max       16
_diffrn_reflns_limit_l_min       -17
_diffrn_reflns_number            7105
_diffrn_reflns_point_group_measured_fraction_full 0.965
_diffrn_reflns_point_group_measured_fraction_max 0.966
_diffrn_reflns_theta_full        25.242
_diffrn_reflns_theta_max         27.473
_diffrn_reflns_theta_min         1.788
_diffrn_standards_number         0
_exptl_absorpt_coefficient_mu    2.636
_exptl_absorpt_correction_T_max  0.2616
_exptl_absorpt_correction_T_min  0.2210
_exptl_absorpt_correction_type   multi-scan
_exptl_absorpt_process_details
'SADABS-2014/5 (Bruker,2014/5) was used for absorption correction. wR2(int) was 0.0633 before and 0.0534 after correction. The Ratio of minimum to maximum transmission is 0.8448. The \l/2 correction factor is 0.00150.'
_exptl_crystal_colour            colourless
_exptl_crystal_colour_primary    colourless
_exptl_crystal_density_diffrn    2.137
_exptl_crystal_description       needle
_exptl_crystal_F_000             1254
_exptl_crystal_size_max          0.12
_exptl_crystal_size_mid          0.06
_exptl_crystal_size_min          0.03
_refine_diff_density_max         2.089
_refine_diff_density_min         -3.522
_refine_diff_density_rms         0.278
_refine_ls_extinction_method     none
_refine_ls_goodness_of_fit_ref   1.054
_refine_ls_hydrogen_treatment    constr
_refine_ls_matrix_type           full
_refine_ls_number_parameters     61
_refine_ls_number_reflns         892
_refine_ls_number_restraints     19
_refine_ls_restrained_S_all      1.047
_refine_ls_R_factor_all          0.0768
_refine_ls_R_factor_gt           0.0624
_refine_ls_shift/su_max          0.000
_refine_ls_shift/su_mean         0.000
_refine_ls_structure_factor_coef Fsqd
_refine_ls_weighting_details
'w=1/[\s^2^(Fo^2^)+(0.1270P)^2^+23.4220P] where P=(Fo^2^+2Fc^2^)/3'
_refine_ls_weighting_scheme      calc
_refine_ls_wR_factor_gt          0.1915
_refine_ls_wR_factor_ref         0.2023
_reflns_Friedel_coverage         0.000
_reflns_number_gt                715
_reflns_number_total             892
_reflns_threshold_expression     'I > 2\s(I)'
_iucr_refine_instructions_details
;

    tt_sq_s.res created by SHELXL-2014/7

TITL tt_a.res in P6(3)/mmc
REM Old TITL tt in P6(3)/mmc
REM SHELXT solution in P6(3)/mmc
REM R1 0.118, Rweak 0.004, Alpha 0.031, Orientation as input
REM Formula found by SHELXT: C48 Cd5
CELL 0.71073 13.1488 13.1488 13.5964 90 90 120
ZERR 2 0.0023 0.0023 0.0025 0 0 0
LATT 1
SYMM -Y,+X-Y,+Z
SYMM +Y-X,-X,+Z
SYMM -X,-Y,0.5+Z
SYMM +Y,-X+Y,0.5+Z
SYMM -Y+X,+X,0.5+Z
SYMM +Y,+X,-Z
SYMM -Y+X,-Y,-Z
SYMM -X,-X+Y,-Z
SYMM -Y,-X,0.5-Z
SYMM +Y-X,+Y,0.5-Z
SYMM +X,+X-Y,0.5-Z
SFAC C H Cd N
UNIT 36 54 10 72
DFIX 1.54 C2 C1
ISOR C4
ISOR 0.005 0.01 C2 C4
ISOR 0.005 0.01 C1
EADP C3 N5
EXYZ C3 N5
 
L.S. 20
PLAN  20 0 0
TEMP -68.15
BOND $H
list 4
ABIN
fmap 2
acta
OMIT 0 0 6
OMIT 0 3 0
OMIT -2 4 4
OMIT -1 3 2
OMIT -1 2 0
OMIT 0 6 4
OMIT -1 7 5
OMIT -1 3 6
OMIT -1 4 0
OMIT 0 2 2
OMIT -1 6 6
OMIT -2 7 2
OMIT 0 1 4
OMIT 0 3 2
OMIT -2 4 6
OMIT 0 2 0
OMIT 0 3 8
OMIT -2 11 5
REM <olex2.extras>
REM <HklSrc "%.\\tt_sq_s.hkl">
REM </olex2.extras>
 
WGHT    0.127000   23.422010
FVAR       0.22654
CD01  3    0.500000    0.000000    0.500000    10.25000    0.01954    0.01494 =
         0.01059    0.00016    0.00008    0.00747
CD02  3    0.666667    0.333333    0.602086    10.16667    0.02315    0.02315 =
         0.02354    0.00000    0.00000    0.01157
N1    4    0.582430    0.164859    0.702644    10.50000    0.02147    0.01482 =
         0.01204    0.00390    0.00195    0.00741
N2    4    0.525920    0.051841    0.668858    10.50000    0.02052    0.01074 =
         0.00798   -0.00094   -0.00047    0.00537
N3    4    0.441283    0.138191    0.467235    11.00000    0.02597    0.01639 =
         0.01591   -0.00267   -0.00323    0.01438
N4    4    0.497791    0.248895    0.500161    10.50000    0.01794    0.01658 =
         0.02010    0.00073    0.00146    0.00897
PART 1
C3    1    0.351325    0.125452    0.414040    10.50000    0.02498    0.03014 =
         0.02375   -0.00196    0.00121    0.00971
PART 0
PART 2
N5    4    0.351325    0.125452    0.414040    10.50000    0.02498    0.03014 =
         0.02375   -0.00196    0.00121    0.00971
PART 0
C1    1    0.492676   -0.014647    0.750000    10.25000    0.01694    0.01666 =
         0.01656    0.00000    0.00000    0.00833
C2    1    0.426364   -0.147272    0.750000    10.25000    0.03980    0.02065 =
         0.02037    0.00000    0.00000    0.01032
AFIX   3
H2A   2    0.352704   -0.175480    0.716720    10.25000   -1.50000
H2C   2    0.471924   -0.175480    0.716720    10.25000   -1.50000
H2B   2    0.412314   -0.175380    0.816570    10.25000   -1.50000
AFIX   0
C4    1    0.259571    0.024427    0.364946    10.50000    0.04236    0.04385 =
         0.04372   -0.00015   -0.00748    0.02227
PART 2
AFIX  33
H4A   2    0.273082   -0.041269    0.372178    10.50000   -1.50000
H4B   2    0.184387    0.004441    0.393841    10.50000   -1.50000
H4C   2    0.259278    0.041884    0.295665    10.50000   -1.50000
AFIX   0
HKLF 4
 
REM  tt_a.res in P6(3)/mmc
REM R1 =  0.0624 for     715 Fo > 4sig(Fo)  and  0.0768 for all     892 data
REM     61 parameters refined using     19 restraints
 
END  
     
WGHT      0.1034     32.7781 

REM Highest difference peak  2.089,  deepest hole -3.522,  1-sigma level  0.278
Q1    1   0.6667  0.3333  0.6900  10.16667  0.05    1.54
Q2    1   0.6667  0.3333  0.4551  10.16667  0.05    1.21
Q3    1   0.0942 -0.0942  0.3762  10.50000  0.05    1.17
Q4    1   0.1416 -0.1416  0.3338  10.50000  0.05    1.11
Q5    1   0.1306 -0.1306  0.2500  10.25000  0.05    0.84
Q6    1   0.3612 -0.2776  0.9019  10.50000  0.05    0.84
Q7    1   0.6068  0.3034  0.4035  10.50000  0.05    0.82
Q8    1   0.2951  0.0486  0.2500  10.50000  0.05    0.71
Q9    1   0.7442  0.4180  0.6060  11.00000  0.05    0.68
Q10   1   0.2611  0.1305  0.2500  10.25000  0.05    0.66
Q11   1   0.5131  0.0262  0.6312  10.50000  0.05    0.61
Q12   1   0.4352 -0.0444  0.7500  10.50000  0.05    0.61
Q13   1   0.0955  0.0477  0.2500  10.25000  0.05    0.56
Q14   1   0.2393 -0.0987  0.2500  10.50000  0.05    0.56
Q15   1   0.3960  0.1309  0.4065  11.00000  0.05    0.56
Q16   1   0.2235 -0.0291  0.4742  11.00000  0.05    0.55
Q17   1   0.4268  0.0589  0.5289  11.00000  0.05    0.55
Q18   1   0.3829  0.0826  0.4537  11.00000  0.05    0.55
Q19   1   0.7205  0.3602  0.5281  10.50000  0.05    0.54
Q20   1   0.7636  0.3818  0.5858  10.50000  0.05    0.54

  REM The information below was added by Olex2.
  REM
  REM R1 = 0.0624 for 715 Fo > 4sig(Fo) and 0.0768 for all 7512 data
  REM n/a parameters refined using n/a restraints
  REM Highest difference peak 2.09, deepest hole -3.52
  REM Mean Shift 0, Max Shift 0.000.

  REM +++ Tabular Listing of Refinement Information +++
  REM R1_all = 0.0768
  REM R1_gt = 0.0624
  REM wR_ref = 0.2023
  REM GOOF = 1.054
  REM Shift_max = 0.000
  REM Shift_mean = 0
  REM Reflections_all = 7512
  REM Reflections_gt = 715
  REM Parameters = n/a
  REM Hole = -3.52
  REM Peak = 2.09
  REM Flack = n/a

  
;
_cod_data_source_file            c7dt02582c2.cif
_cod_data_source_block           tt_sq_s
_cod_original_cell_volume        2035.8(8)
_cod_database_code               7043855
_shelx_shelxl_version_number     2014/7
_shelx_space_group_comment
;
The symmetry employed for this shelxl refinement is uniquely defined
by the following loop, which should always be used as a source of
symmetry information in preference to the above space-group names.
They are only intended as comments.
;
_olex2_refinement_description
;
1. Fixed Uiso
 At 1.5 times of:
  All C(H,H,H) groups
2. Shared sites
{C3, N5}
3. Restrained distances
 C2-C1
 1.54 with sigma of 0.02
4. Uiso/Uaniso restraints and constraints
Uanis(C4) \\sim Ueq: with sigma of 0.1 and sigma for terminal atoms of 0.2
Uanis(C2) \\sim Ueq, Uanis(C4) \\sim Ueq: with sigma of 0.005 and sigma for
terminal atoms of 0.01
Uanis(C1) \\sim Ueq: with sigma of 0.005 and sigma for terminal atoms of 0.01
Uanis(C3) = Uanis(N5)
5. Others
 Fixed Sof: C3(0.5) N5(0.5) H2A(0.25) H2C(0.25) H2B(0.25) C4(0.5) H4A(0.5)
 H4B(0.5) H4C(0.5)
6.a Riding coordinates:
 C2(H2A,H2C,H2B)
6.b Me refined with riding coordinates:
 C4(H4A,H4B,H4C)
;
_shelx_fab_file
;
 0 -1 0 43.79 0.07
 -1 1 0 43.81 0.03
 0 1 0 43.79 -0.07
 0 1 0 43.79 -0.07
 -1 0 0 43.80 0.10
 1 1 0 39.06 -0.14
 -2 1 0 39.10 0.12
 0 -2 0 36.91 0.11
 -2 2 0 36.97 0.06
 -2 0 0 36.92 0.15
 1 2 0 31.16 -0.15
 -3 1 0 31.23 0.15
 -2 3 0 31.26 0.00
 -1 -2 0 31.16 0.15
 -1 3 0 31.23 -0.08
 -2 -1 0 31.16 0.16
 0 -3 0 27.90 0.12
 -3 3 0 28.00 0.08
 -3 0 0 27.90 0.15
 -4 1 0 22.49 0.14
 -3 4 0 22.56 0.02
 -1 -3 0 22.40 0.12
 -4 2 0 23.81 0.14
 -2 4 0 23.80 -0.05
 -4 3 0 22.57 0.12
 1 -4 0 22.49 0.10
 -3 -1 0 22.40 0.13
 0 -4 0 19.09 0.10
 -4 4 0 19.24 0.08
 0 4 0 19.09 -0.10
 -4 0 0 19.09 0.11
 -5 1 0 14.81 0.10
 -1 -4 0 14.74 0.08
 -4 5 0 14.93 0.02
 -3 -2 0 16.37 0.10
 -2 5 0 16.52 -0.08
 -5 4 0 14.94 0.10
 1 -5 0 14.82 0.08
 -4 -1 0 14.73 0.09
 -1 5 0 14.82 -0.08
 -5 5 0 12.24 0.06
 0 -5 0 12.06 0.05
 0 5 0 12.06 -0.05
 -5 0 0 12.05 0.07
 -6 1 0 9.14 0.06
 -1 -5 0 9.11 0.02
 -5 6 0 9.30 0.01
 -6 2 0 10.68 0.09
 -4 6 0 10.76 -0.03
 -6 3 0 11.30 0.11
 -3 6 0 11.30 -0.08
 -6 4 0 10.77 0.10
 2 -6 0 10.68 0.08
 -2 6 0 10.68 -0.08
 -6 5 0 9.31 0.08
 1 -6 0 9.15 0.04
 -5 -1 0 9.10 0.05
 -1 6 0 9.15 -0.04
 0 -6 0 7.24 -0.01
 -6 6 0 7.45 0.04
 0 6 0 7.24 0.01
 -6 0 0 7.24 0.02
 -7 1 0 5.48 0.01
 -1 -6 0 5.48 -0.04
 -6 7 0 5.66 0.01
 -7 2 0 6.62 0.06
 -5 7 0 6.74 -0.03
 -2 -5 0 6.59 0.01
 -7 3 0 7.36 0.09
 -4 7 0 7.40 -0.07
 -3 7 0 7.36 -0.09
 -4 -3 0 7.29 0.06
 2 -7 0 6.63 0.05
 -7 5 0 6.75 0.08
 -2 7 0 6.63 -0.05
 -5 -2 0 6.59 0.04
 -7 6 0 5.66 0.05
 1 -7 0 5.49 -0.01
 -1 7 0 5.49 0.01
 -6 -1 0 5.48 0.00
 0 -7 0 4.31 -0.07
 -7 7 0 4.50 0.02
 0 7 0 4.31 0.07
 -7 0 0 4.30 -0.02
 -8 1 0 3.31 -0.03
 -7 8 0 3.48 0.01
 -1 -7 0 3.34 -0.08
 -8 2 0 4.06 0.01
 -6 8 0 4.19 -0.02
 -2 -6 0 4.10 -0.04
 -8 3 0 4.69 0.06
 -5 8 0 4.75 -0.06
 -4 -4 0 4.97 0.05
 -4 8 0 4.95 -0.08
 3 -8 0 4.69 0.07
 -8 5 0 4.76 0.07
 -5 -3 0 4.73 0.04
 -3 8 0 4.69 -0.07
 2 -8 0 4.07 0.01
 -8 6 0 4.20 0.04
 -2 8 0 4.07 -0.01
 -6 -2 0 4.11 0.00
 1 -8 0 3.31 -0.06
 -8 7 0 3.48 0.02
 -7 -1 0 3.34 -0.04
 -1 8 0 3.31 0.06
 -8 8 0 2.79 0.01
 0 -8 0 2.64 -0.10
 -8 0 0 2.64 -0.06
 -9 1 0 2.09 -0.07
 -8 9 0 2.20 0.01
 -1 -8 0 2.13 -0.09
 -9 2 0 2.54 -0.03
 -7 9 0 2.64 0.00
 -2 -7 0 2.62 -0.06
 -9 3 0 2.98 0.01
 -6 9 0 3.05 -0.03
 -5 9 0 3.29 -0.06
 -4 -5 0 3.39 0.02
 -4 9 0 3.27 -0.07
 -5 -4 0 3.39 0.03
 -9 6 0 3.06 0.04
 3 -9 0 2.99 0.03
 -3 9 0 2.99 -0.03
 -6 -3 0 3.10 0.00
 -9 7 0 2.65 0.02
 2 -9 0 2.54 -0.04
 -7 -2 0 2.63 -0.04
 -2 9 0 2.54 0.04
 1 -9 0 2.09 -0.08
 -9 8 0 2.20 0.01
 -1 9 0 2.09 0.08
 -8 -1 0 2.14 -0.07
 -9 9 0 1.79 0.01
 0 -9 0 1.72 -0.09
 -9 0 0 1.72 -0.08
 -10 1 0 1.40 -0.07
 -1 -9 0 1.44 -0.06
 -9 10 0 1.43 0.02
 -10 2 0 1.67 -0.06
 -2 -8 0 1.76 -0.06
 -8 10 0 1.72 0.02
 -10 3 0 1.95 -0.04
 -7 10 0 1.99 0.01
 -4 -6 0 2.33 -0.01
 -6 10 0 2.19 -0.02
 -5 10 0 2.26 -0.04
 -5 -5 0 2.43 0.01
 -10 6 0 2.20 0.02
 4 -10 0 2.18 0.03
 -4 10 0 2.18 -0.03
 -6 -4 0 2.34 0.00
 3 -10 0 1.96 -0.02
 -10 7 0 2.00 0.01
 -3 10 0 1.96 0.02
 -7 -3 0 2.09 -0.03
 2 -10 0 1.68 -0.06
 -10 8 0 1.73 0.00
 -8 -2 0 1.77 -0.06
 -2 10 0 1.68 0.06
 1 -10 0 1.40 -0.07
 -10 9 0 1.44 0.00
 -1 10 0 1.40 0.07
 -9 -1 0 1.45 -0.06
 0 -10 0 1.17 -0.05
 -10 10 0 1.15 0.01
 -10 0 0 1.17 -0.04
 -11 1 0 0.95 -0.03
 -10 11 0 0.92 0.03
 -11 2 0 1.17 -0.06
 -9 11 0 1.17 0.04
 -11 3 0 1.37 -0.06
 -8 11 0 1.37 0.03
 -11 4 0 1.52 -0.04
 -4 -7 0 1.68 -0.03
 -7 11 0 1.52 0.01
 -11 5 0 1.61 -0.02
 -5 -6 0 1.78 -0.01
 -6 11 0 1.60 -0.01
 -11 6 0 1.61 0.00
 5 -11 0 1.61 0.02
 -6 -5 0 1.78 -0.01
 -5 11 0 1.61 -0.02
 -11 7 0 1.53 0.00
 4 -11 0 1.53 0.00
 -7 -4 0 1.68 -0.03
 -4 11 0 1.53 0.00
 3 -11 0 1.38 -0.04
 -11 8 0 1.38 0.00
 -8 -3 0 1.49 -0.04
 -3 11 0 1.38 0.04
 -11 9 0 1.17 0.00
 2 -11 0 1.18 -0.05
 -9 -2 0 1.25 -0.03
 -2 11 0 1.18 0.05
 -11 10 0 0.92 0.00
 1 -11 0 0.95 -0.03
 -10 -1 0 0.99 -0.01
 -11 11 0 0.67 0.02
 -11 0 0 0.74 0.02
 -12 1 0 0.56 0.03
 -11 12 0 0.48 0.03
 -12 2 0 0.82 -0.02
 -10 12 0 0.77 0.04
 -12 3 0 1.04 -0.05
 -9 12 0 1.01 0.05
 -12 4 0 1.19 -0.06
 -8 12 0 1.17 0.04
 -12 5 0 1.27 -0.05
 -5 -7 0 1.40 -0.03
 -7 12 0 1.25 0.01
 -12 6 0 1.29 -0.03
 6 -12 0 1.29 0.01
 -6 12 0 1.29 -0.01
 -6 -6 0 1.43 -0.02
 5 -12 0 1.27 0.00
 -12 7 0 1.26 -0.02
 -7 -5 0 1.40 -0.02
 -5 12 0 1.27 0.00
 4 -12 0 1.20 -0.02
 -12 8 0 1.19 -0.02
 -4 12 0 1.20 0.02
 -8 -4 0 1.30 -0.02
 -12 9 0 1.03 -0.01
 3 -12 0 1.06 -0.04
 -9 -3 0 1.13 -0.01
 -12 10 0 0.78 -0.01
 2 -12 0 0.83 -0.02
 -10 -2 0 0.88 0.02
 -12 11 0 0.49 0.01
 -11 -1 0 0.59 0.05
 -12 12 0 0.23 0.02
 -12 0 0 0.32 0.08
 -13 1 0 0.16 0.08
 -12 13 0 0.08 0.03
 -13 2 0 0.48 0.03
 -11 13 0 0.41 0.04
 -13 3 0 0.78 -0.01
 -10 13 0 0.73 0.05
 -13 4 0 0.99 -0.04
 -9 13 0 0.96 0.04
 -13 5 0 1.10 -0.04
 -8 13 0 1.09 0.02
 -13 6 0 1.14 -0.04
 7 -13 0 1.14 0.01
 -7 13 0 1.14 -0.01
 6 -13 0 1.15 0.02
 -13 7 0 1.15 -0.04
 -7 -6 0 1.23 0.00
 -6 13 0 1.15 -0.02
 5 -13 0 1.12 0.00
 -13 8 0 1.10 -0.03
 -8 -5 0 1.18 0.01
 4 -13 0 1.01 -0.03
 -13 9 0 0.98 -0.03
 -9 -4 0 1.06 0.02
 -13 10 0 0.75 -0.03
 3 -13 0 0.79 -0.03
 -10 -3 0 0.83 0.04
 -13 11 0 0.42 -0.01
 -11 -2 0 0.51 0.07
 -13 12 0 0.08 0.00
 -12 -1 0 0.18 0.09
 -13 13 0 -0.16 0.02
 -13 0 0 -0.08 0.10
 -14 1 0 -0.18 0.09
 -13 14 0 -0.24 0.03
 -14 2 0 0.12 0.06
 -12 14 0 0.06 0.04
 -14 3 0 0.47 0.03
 -11 14 0 0.43 0.05
 -14 4 0 0.76 0.00
 -10 14 0 0.74 0.04
 -14 5 0 0.94 -0.01
 -9 14 0 0.94 0.02
 8 -14 0 1.03 0.01
 -14 6 0 1.02 -0.02
 -8 14 0 1.03 -0.01
 -14 7 0 1.05 -0.02
 7 -14 0 1.05 0.03
 -7 14 0 1.05 -0.03
 -14 8 0 1.03 -0.03
 6 -14 0 1.04 0.03
 5 -14 0 0.96 0.00
 -14 9 0 0.95 -0.05
 -9 -5 0 0.98 0.04
 -14 10 0 0.76 -0.05
 -10 -4 0 0.79 0.04
 -14 11 0 0.44 -0.04
 -11 -3 0 0.49 0.06
 -14 12 0 0.07 -0.02
 -12 -2 0 0.13 0.08
 -14 13 0 -0.24 -0.01
 -13 -1 0 -0.18 0.09
 -14 14 0 -0.40 0.01
 -14 0 0 -0.35 0.09
 -15 1 0 -0.36 0.07
 -14 15 0 -0.40 0.03
 -15 2 0 -0.15 0.06
 -13 15 0 -0.21 0.04
 -15 3 0 0.15 0.04
 -12 15 0 0.11 0.04
 -15 4 0 0.45 0.02
 -11 15 0 0.43 0.04
 -15 5 0 0.67 0.02
 -10 15 0 0.68 0.02
 9 -15 0 0.81 0.02
 -15 6 0 0.79 0.02
 -9 15 0 0.81 -0.02
 8 -15 0 0.86 0.05
 -15 7 0 0.84 0.01
 -15 8 0 0.85 -0.01
 7 -15 0 0.86 0.06
 6 -15 0 0.81 0.03
 -15 9 0 0.81 -0.04
 -15 10 0 0.69 -0.06
 -15 11 0 0.45 -0.06
 -11 -4 0 0.43 0.04
 -15 12 0 0.12 -0.05
 -12 -3 0 0.12 0.04
 -15 13 0 -0.19 -0.03
 -13 -2 0 -0.18 0.05
 -15 14 0 -0.39 -0.01
 -16 3 0 -0.10 0.03
 -13 16 0 -0.14 0.03
 -16 4 0 0.13 0.02
 -12 16 0 0.10 0.03
 -16 5 0 0.33 0.03
 -16 6 0 0.44 0.04
 10 -16 0 0.47 0.01
 -16 7 0 0.50 0.04
 9 -16 0 0.54 0.05
 8 -16 0 0.55 0.07
 -16 8 0 0.53 0.03
 7 -16 0 0.52 0.06
 -16 9 0 0.53 -0.01
 -16 10 0 0.47 -0.04
 -16 11 0 0.34 -0.06
 -16 12 0 0.11 -0.07
 -16 13 0 -0.13 -0.06
 9 -17 0 0.18 0.07
 -17 8 0 0.15 0.04
 -17 9 0 0.16 0.02
 -1 0 -1 -0.04 -0.01
 -1 1 1 -0.02 0.00
 -1 1 -1 0.03 -0.01
 0 1 1 0.05 0.01
 -2 -1 -1 -0.27 0.00
 -1 3 -1 -0.28 -0.01
 -3 2 1 -0.26 -0.05
 0 2 -1 -0.26 0.00
 -2 0 -1 -0.27 -0.01
 -2 2 1 -0.24 -0.02
 0 -2 -1 0.27 -0.02
 0 2 1 0.27 0.02
 -2 3 -1 0.26 -0.01
 -1 -2 -1 0.27 -0.02
 -3 1 1 0.28 -0.05
 -3 -2 -1 -0.34 0.02
 -2 5 -1 -0.34 -0.04
 -5 3 1 -0.34 -0.06
 -3 -1 -1 -0.65 0.01
 -1 4 -1 -0.65 -0.03
 -4 3 1 -0.64 -0.06
 -3 0 -1 -0.65 0.01
 0 3 -1 -0.65 -0.01
 0 -3 1 -0.65 0.01
 -3 3 1 -0.63 -0.03
 1 2 -1 -0.27 0.01
 -3 1 -1 -0.28 0.01
 -1 -2 1 -0.27 -0.01
 -2 3 1 -0.25 0.00
 1 -3 -1 0.28 -0.02
 -3 2 -1 0.26 0.01
 -1 3 1 0.28 0.02
 0 -3 -1 0.65 -0.03
 -3 3 -1 0.63 0.01
 -3 0 1 0.65 -0.04
 0 3 1 0.65 0.03
 -3 4 -1 0.64 -0.01
 -1 -3 -1 0.64 -0.02
 -4 1 1 0.65 -0.06
 -2 -3 -1 0.34 0.00
 -3 5 -1 0.34 -0.03
 -3 7 -1 -0.11 -0.02
 -7 4 1 -0.13 -0.01
 -4 -2 -1 -0.47 0.03
 -2 6 -1 -0.47 -0.04
 -6 4 1 -0.48 -0.04
 -1 5 -1 -0.85 -0.04
 -4 -1 -1 -0.85 0.03
 -5 4 1 -0.85 -0.05
 0 4 -1 -0.96 -0.03
 -4 0 -1 -0.96 0.03
 -4 4 1 -0.95 -0.03
 0 -4 1 -0.96 0.03
 -4 1 -1 -0.65 0.02
 1 3 -1 -0.65 -0.01
 -1 -3 1 -0.65 0.01
 -3 4 1 -0.63 0.00
 1 -4 -1 0.65 -0.04
 -1 4 1 0.65 0.04
 0 -4 -1 0.96 -0.04
 -4 4 -1 0.96 0.01
 -4 0 1 0.96 -0.05
 0 4 1 0.96 0.04
 -4 5 -1 0.85 -0.01
 -1 -4 -1 0.85 -0.03
 -5 1 1 0.85 -0.06
 -4 6 -1 0.48 -0.03
 -2 -4 -1 0.47 -0.01
 -6 2 1 0.47 -0.04
 -4 7 -1 0.13 -0.03
 -3 -4 -1 0.12 0.01
 -7 3 1 0.12 -0.01
 -5 -4 -1 0.13 -0.02
 -4 9 -1 0.14 0.07
 -9 5 1 0.12 0.02
 -5 -3 -1 0.05 0.00
 -3 8 -1 0.05 0.03
 -8 5 1 0.04 0.00
 -5 -2 -1 -0.27 0.04
 -2 7 -1 -0.27 -0.02
 -7 5 1 -0.28 -0.02
 -5 -1 -1 -0.69 0.06
 -1 6 -1 -0.69 -0.05
 -6 5 1 -0.69 -0.03
 1 -6 1 -0.69 0.05
 -5 0 -1 -0.96 0.05
 0 5 -1 -0.96 -0.05
 -5 5 1 -0.95 -0.02
 0 -5 1 -0.96 0.05
 -5 1 -1 -0.85 0.03
 -1 -4 1 -0.85 0.03
 -4 5 1 -0.84 0.00
 2 3 -1 -0.34 -0.01
 -3 5 1 -0.34 0.04
 2 -5 -1 0.34 -0.06
 -2 5 1 0.34 0.06
 1 -5 -1 0.84 -0.06
 -5 4 -1 0.85 0.02
 -4 -1 1 0.85 -0.03
 -1 5 1 0.84 0.06
 0 -5 -1 0.95 -0.06
 -5 5 -1 0.96 0.01
 0 5 1 0.95 0.06
 -5 0 1 0.96 -0.05
 -1 -5 -1 0.69 -0.04
 -5 6 -1 0.69 -0.01
 -6 1 1 0.69 -0.05
 -5 7 -1 0.28 -0.03
 -2 -5 -1 0.27 -0.01
 -7 2 1 0.27 -0.03
 -5 8 -1 -0.04 -0.03
 -8 3 1 -0.05 0.02
 -4 -5 -1 -0.13 0.04
 -5 9 -1 -0.12 0.01
 -6 -5 -1 0.23 -0.09
 -5 11 -1 0.24 0.13
 -11 6 1 0.21 -0.03
 -6 -4 -1 0.39 -0.10
 -4 10 -1 0.40 0.15
 -10 6 1 0.38 -0.03
 -3 9 -1 0.39 0.11
 -6 -3 -1 0.38 -0.06
 -9 6 1 0.38 -0.02
 3 -9 1 0.39 -0.11
 -6 -2 -1 0.16 0.01
 -2 8 -1 0.17 0.02
 2 -8 1 0.17 -0.02
 -8 6 1 0.17 -0.02
 -1 7 -1 -0.21 -0.04
 -6 -1 -1 -0.21 0.06
 -7 6 1 -0.20 -0.02
 1 -7 1 -0.21 0.04
 -6 0 -1 -0.57 0.07
 0 6 -1 -0.57 -0.06
 0 -6 1 -0.57 0.06
 -6 6 1 -0.56 -0.01
 -6 1 -1 -0.69 0.05
 -1 -5 1 -0.69 0.04
 -5 6 1 -0.69 0.01
 -6 2 -1 -0.47 0.02
 -4 6 1 -0.47 0.04
 2 -6 -1 0.47 -0.07
 -4 -2 1 0.47 0.00
 -2 6 1 0.47 0.07
 1 -6 -1 0.68 -0.07
 -6 5 -1 0.69 0.01
 -5 -1 1 0.69 -0.03
 -1 6 1 0.68 0.07
 -6 6 -1 0.56 0.00
 0 -6 -1 0.56 -0.06
 -6 0 1 0.56 -0.05
 0 6 1 0.56 0.06
 -1 -6 -1 0.21 -0.04
 -6 7 -1 0.21 -0.02
 -7 1 1 0.21 -0.05
 -6 8 -1 -0.16 -0.04
 -2 -6 -1 -0.16 0.01
 -8 2 1 -0.17 -0.01
 -6 9 -1 -0.38 -0.05
 -3 -6 -1 -0.38 0.06
 -9 3 1 -0.39 0.05
 -6 10 -1 -0.38 -0.03
 -4 -6 -1 -0.38 0.08
 -5 -6 -1 -0.23 0.05
 -6 11 -1 -0.22 0.01
 -11 5 1 -0.25 0.05
 -6 13 -1 0.20 0.08
 6 -13 1 0.20 -0.08
 -13 7 1 0.17 -0.08
 -7 -5 -1 0.42 -0.17
 -5 12 -1 0.44 0.17
 5 -12 1 0.44 -0.17
 -12 7 1 0.40 -0.10
 -4 11 -1 0.62 0.21
 -7 -4 -1 0.61 -0.18
 4 -11 1 0.62 -0.21
 -11 7 1 0.60 -0.09
 -3 10 -1 0.69 0.17
 -7 -3 -1 0.68 -0.13
 -10 7 1 0.68 -0.07
 3 -10 1 0.69 -0.17
 -2 9 -1 0.60 0.07
 -7 -2 -1 0.60 -0.04
 2 -9 1 0.60 -0.07
 -9 7 1 0.61 -0.04
 -1 8 -1 0.36 -0.02
 -7 -1 -1 0.36 0.04
 1 -8 1 0.36 0.02
 -8 7 1 0.38 -0.03
 0 7 -1 0.04 -0.06
 -7 0 -1 0.04 0.07
 0 -7 1 0.04 0.06
 -7 7 1 0.06 -0.01
 -7 1 -1 -0.21 0.05
 -1 -6 1 -0.21 0.05
 -6 7 1 -0.20 0.02
 -7 2 -1 -0.28 0.01
 -5 7 1 -0.27 0.04
 -7 3 -1 -0.12 -0.01
 -4 7 1 -0.13 0.05
 3 -7 -1 0.11 -0.05
 -7 4 -1 0.12 -0.01
 -3 7 1 0.11 0.05
 -7 5 -1 0.27 0.01
 2 -7 -1 0.26 -0.04
 -5 -2 1 0.27 0.01
 -2 7 1 0.26 0.04
 -7 6 -1 0.21 0.02
 1 -7 -1 0.20 -0.05
 -6 -1 1 0.21 -0.02
 -1 7 1 0.20 0.05
 0 -7 -1 -0.05 -0.05
 -7 7 -1 -0.06 0.00
 -7 0 1 -0.05 -0.04
 -1 -7 -1 -0.36 -0.03
 -7 8 -1 -0.37 -0.03
 -8 1 1 -0.37 -0.04
 -7 9 -1 -0.60 -0.06
 -2 -7 -1 -0.60 0.04
 -9 2 1 -0.61 0.01
 -7 10 -1 -0.68 -0.09
 -10 3 1 -0.70 0.07
 -7 11 -1 -0.60 -0.09
 -4 -7 -1 -0.61 0.14
 -11 4 1 -0.64 0.09
 -7 12 -1 -0.41 -0.07
 -12 5 1 -0.45 0.07
 -7 13 -1 -0.18 -0.04
 -13 6 1 -0.22 0.01
 7 -15 1 0.10 -0.01
 -15 8 1 0.08 -0.04
 -6 14 -1 0.27 0.08
 -14 8 1 0.25 -0.09
 6 -14 1 0.27 -0.08
 -8 -5 -1 0.49 -0.18
 -5 13 -1 0.49 0.17
 5 -13 1 0.49 -0.17
 -13 8 1 0.46 -0.13
 -4 12 -1 0.68 0.22
 -8 -4 -1 0.67 -0.21
 -12 8 1 0.66 -0.13
 4 -12 1 0.68 -0.22
 -8 -3 -1 0.78 -0.18
 -3 11 -1 0.80 0.20
 3 -11 1 0.80 -0.20
 -11 8 1 0.79 -0.11
 -8 -2 -1 0.81 -0.09
 -2 10 -1 0.83 0.11
 2 -10 1 0.83 -0.11
 -10 8 1 0.83 -0.07
 -8 -1 -1 0.75 0.01
 -1 9 -1 0.75 0.01
 -9 8 1 0.77 -0.04
 1 -9 1 0.75 -0.01
 0 8 -1 0.58 -0.04
 -8 0 -1 0.59 0.06
 0 -8 1 0.58 0.04
 -8 8 1 0.61 -0.01
 -8 1 -1 0.36 0.04
 -1 -7 1 0.36 0.03
 -7 8 1 0.38 0.02
 -8 2 -1 0.16 0.00
 -6 8 1 0.17 0.04
 -8 3 -1 0.04 -0.04
 -5 8 1 0.04 0.05
 3 -8 -1 -0.06 0.00
 -3 8 1 -0.06 0.00
 -5 -3 1 -0.05 0.05
 -8 6 -1 -0.17 0.03
 2 -8 -1 -0.17 0.01
 -6 -2 1 -0.16 0.05
 -2 8 1 -0.17 -0.01
 1 -8 -1 -0.37 -0.02
 -8 7 -1 -0.37 0.03
 -1 8 1 -0.37 0.02
 -7 -1 1 -0.36 0.01
 0 -8 -1 -0.59 -0.04
 -8 8 -1 -0.60 0.00
 -8 0 1 -0.58 -0.02
 -8 9 -1 -0.77 -0.04
 -1 -8 -1 -0.75 -0.01
 -9 1 1 -0.76 -0.02
 -8 10 -1 -0.83 -0.09
 -2 -8 -1 -0.81 0.06
 -10 2 1 -0.84 0.03
 -8 11 -1 -0.79 -0.12
 -11 3 1 -0.82 0.09
 -8 12 -1 -0.66 -0.13
 -12 4 1 -0.70 0.11
 -8 13 -1 -0.47 -0.11
 -13 5 1 -0.50 0.08
 -8 14 -1 -0.26 -0.08
 -14 6 1 -0.28 0.03
 -8 15 -1 -0.08 -0.05
 -15 7 1 -0.10 0.00
 8 -15 1 -0.08 0.05
 -17 9 1 0.00 0.02
 -16 9 1 0.06 -0.01
 -15 9 1 0.19 -0.05
 5 -14 1 0.36 -0.13
 -14 9 1 0.35 -0.10
 -9 -4 -1 0.52 -0.17
 -4 13 -1 0.52 0.18
 -13 9 1 0.51 -0.12
 4 -13 1 0.52 -0.18
 -9 -3 -1 0.63 -0.15
 -3 12 -1 0.65 0.17
 3 -12 1 0.65 -0.17
 -12 9 1 0.64 -0.11
 -9 -2 -1 0.71 -0.09
 -2 11 -1 0.74 0.10
 -11 9 1 0.74 -0.08
 2 -11 1 0.74 -0.10
 -9 -1 -1 0.79 -0.01
 -1 10 -1 0.80 0.01
 -10 9 1 0.81 -0.05
 1 -10 1 0.80 -0.01
 -9 0 -1 0.82 0.03
 -9 9 1 0.84 -0.01
 0 -9 1 0.81 0.04
 -9 1 -1 0.76 0.02
 -1 -8 1 0.75 0.02
 -8 9 1 0.77 0.02
 -9 2 -1 0.61 -0.03
 -7 9 1 0.61 0.06
 -9 3 -1 0.38 -0.07
 -6 9 1 0.38 0.06
 -9 4 -1 0.13 -0.06
 -5 9 1 0.12 0.02
 4 -9 -1 -0.14 0.05
 -4 9 1 -0.14 -0.05
 -5 -4 1 -0.13 0.06
 3 -9 -1 -0.39 0.08
 -9 6 -1 -0.38 0.04
 -3 9 1 -0.39 -0.08
 -6 -3 1 -0.38 0.11
 -9 7 -1 -0.61 0.07
 2 -9 -1 -0.61 0.07
 -7 -2 1 -0.59 0.10
 -2 9 1 -0.61 -0.07
 -9 8 -1 -0.77 0.05
 1 -9 -1 -0.76 0.01
 -8 -1 1 -0.75 0.04
 -1 9 1 -0.76 -0.01
 -9 9 -1 -0.83 0.00
 0 -9 -1 -0.81 -0.02
 -9 0 1 -0.81 -0.01
 -1 -9 -1 -0.78 -0.01
 -9 10 -1 -0.81 -0.05
 -10 1 1 -0.80 0.00
 -9 11 -1 -0.73 -0.09
 -2 -9 -1 -0.71 0.06
 -11 2 1 -0.74 0.04
 -9 12 -1 -0.63 -0.12
 -12 3 1 -0.66 0.09
 -9 13 -1 -0.51 -0.12
 -13 4 1 -0.53 0.10
 -9 14 -1 -0.36 -0.10
 -14 5 1 -0.37 0.07
 -9 15 -1 -0.19 -0.07
 -15 6 1 -0.19 0.04
 9 -16 1 -0.06 0.03
 -16 7 1 -0.06 0.02
 9 -17 1 0.01 0.00
 -17 8 1 -0.01 0.02
 -16 10 1 0.03 0.00
 -15 10 1 0.11 -0.04
 -10 -4 -1 0.20 -0.07
 -14 10 1 0.19 -0.07
 -10 -3 -1 0.25 -0.07
 -13 10 1 0.26 -0.08
 -10 -2 -1 0.33 -0.04
 -12 10 1 0.36 -0.07
 -10 -1 -1 0.46 0.01
 -1 11 -1 0.48 -0.02
 -11 10 1 0.49 -0.05
 -10 0 -1 0.65 0.03
 -10 10 1 0.67 -0.02
 -10 1 -1 0.80 0.00
 -9 10 1 0.81 0.02
 -1 -9 1 0.78 0.02
 -10 2 -1 0.84 -0.06
 -8 10 1 0.83 0.06
 -10 3 -1 0.70 -0.10
 -7 10 1 0.69 0.08
 -10 4 -1 0.40 -0.09
 -6 10 1 0.38 0.04
 4 -10 -1 -0.40 0.13
 -4 10 1 -0.40 -0.13
 -6 -4 1 -0.38 0.13
 3 -10 -1 -0.70 0.16
 -10 7 -1 -0.69 0.11
 -7 -3 1 -0.68 0.18
 -3 10 1 -0.70 -0.16
 -10 8 -1 -0.83 0.10
 2 -10 -1 -0.83 0.11
 -2 10 1 -0.83 -0.11
 -8 -2 1 -0.81 0.14
 1 -10 -1 -0.80 0.03
 -10 9 -1 -0.81 0.06
 -9 -1 1 -0.78 0.05
 -10 10 -1 -0.67 0.00
 0 -10 -1 -0.64 -0.03
 -10 0 1 -0.64 -0.01
 -1 -10 -1 -0.46 -0.02
 -10 11 -1 -0.49 -0.05
 -11 1 1 -0.47 -0.01
 -10 12 -1 -0.35 -0.08
 -12 2 1 -0.35 0.03
 -10 13 -1 -0.26 -0.08
 -13 3 1 -0.27 0.06
 -10 14 -1 -0.19 -0.07
 -14 4 1 -0.19 0.07
 -10 15 -1 -0.11 -0.04
 -15 5 1 -0.10 0.05
 -10 16 -1 -0.03 -0.02
 -16 6 1 -0.02 0.03
 -16 11 1 -0.15 0.02
 -15 11 1 -0.18 -0.01
 -11 -3 -1 -0.20 0.02
 -14 11 1 -0.20 -0.02
 -11 -2 -1 -0.21 0.04
 -13 11 1 -0.18 -0.03
 -11 -1 -1 -0.10 0.06
 -12 11 1 -0.05 -0.03
 -11 0 -1 0.15 0.05
 -11 11 1 0.19 -0.02
 -11 1 -1 0.48 0.00
 -10 11 1 0.49 0.01
 -11 2 -1 0.75 -0.08
 -9 11 1 0.74 0.06
 -11 3 -1 0.81 -0.14
 -8 11 1 0.79 0.09
 -11 4 -1 0.63 -0.13
 -7 11 1 0.60 0.09
 -11 5 -1 0.24 -0.06
 6 -11 -1 0.22 -0.01
 -5 -6 1 0.23 -0.07
 -6 11 1 0.22 0.01
 -11 6 -1 -0.22 0.05
 5 -11 -1 -0.24 0.11
 -5 11 1 -0.24 -0.11
 -6 -5 1 -0.23 0.08
 4 -11 -1 -0.63 0.20
 -11 7 -1 -0.60 0.14
 -4 11 1 -0.63 -0.20
 -7 -4 1 -0.60 0.20
 -11 8 -1 -0.79 0.16
 3 -11 -1 -0.81 0.20
 -3 11 1 -0.81 -0.20
 -8 -3 1 -0.78 0.21
 2 -11 -1 -0.74 0.12
 -11 9 -1 -0.74 0.11
 -9 -2 1 -0.71 0.13
 1 -11 -1 -0.48 0.02
 -11 10 -1 -0.49 0.04
 -10 -1 1 -0.45 0.03
 -11 11 -1 -0.18 -0.02
 0 -11 -1 -0.15 -0.05
 -11 0 1 -0.15 -0.04
 -11 12 -1 0.06 -0.05
 -12 1 1 0.09 -0.04
 -11 13 -1 0.18 -0.04
 -13 2 1 0.20 -0.01
 -11 14 -1 0.20 -0.03
 -14 3 1 0.21 0.02
 -11 15 -1 0.18 -0.01
 -15 4 1 0.20 0.02
 -11 16 -1 0.15 0.01
 -16 5 1 0.17 0.02
 -16 12 1 -0.44 0.02
 -15 12 1 -0.57 0.01
 -12 -2 -1 -0.69 0.09
 -14 12 1 -0.66 0.00
 -12 -1 -1 -0.68 0.10
 -13 12 1 -0.63 -0.01
 -12 0 -1 -0.47 0.09
 -12 12 1 -0.42 -0.02
 -12 1 -1 -0.08 0.03
 -11 12 1 -0.06 -0.01
 -12 2 -1 0.36 -0.06
 -10 12 1 0.36 0.03
 -12 3 -1 0.66 -0.14
 -9 12 1 0.64 0.08
 -12 4 -1 0.70 -0.16
 -8 12 1 0.66 0.11
 7 -12 -1 0.41 -0.08
 -12 5 -1 0.45 -0.09
 -7 12 1 0.41 0.08
 -5 -7 1 0.43 -0.14
 -12 7 -1 -0.41 0.14
 5 -12 -1 -0.44 0.15
 -7 -5 1 -0.42 0.15
 -5 12 1 -0.44 -0.15
 4 -12 -1 -0.69 0.22
 -12 8 -1 -0.66 0.19
 -8 -4 1 -0.66 0.23
 3 -12 -1 -0.65 0.19
 -12 9 -1 -0.64 0.16
 -9 -3 1 -0.62 0.18
 -12 10 -1 -0.36 0.08
 2 -12 -1 -0.35 0.09
 -10 -2 1 -0.32 0.07
 -12 11 -1 0.06 0.01
 1 -12 -1 0.08 -0.01
 -11 -1 1 0.10 -0.03
 -12 12 -1 0.43 -0.03
 -12 0 1 0.47 -0.08
 -12 13 -1 0.64 -0.03
 -13 1 1 0.67 -0.07
 -12 14 -1 0.67 -0.01
 -14 2 1 0.69 -0.03
 -12 15 -1 0.58 0.01
 -15 3 1 0.60 -0.01
 -12 16 -1 0.44 0.03
 -16 4 1 0.46 -0.01
 -16 13 1 -0.73 0.01
 -13 -2 -1 -0.94 0.08
 -15 13 1 -0.93 0.00
 -13 -1 -1 -1.06 0.10
 -14 13 1 -1.03 0.00
 -13 0 -1 -0.98 0.10
 -13 13 1 -0.94 -0.01
 -13 1 -1 -0.67 0.06
 -12 13 1 -0.63 -0.02
 -13 2 -1 -0.19 -0.02
 -11 13 1 -0.18 -0.01
 -13 3 -1 0.27 -0.10
 -10 13 1 0.27 0.04
 -13 4 -1 0.53 -0.15
 -9 13 1 0.51 0.09
 8 -13 -1 0.47 -0.11
 -13 5 -1 0.50 -0.12
 -5 -8 1 0.49 -0.17
 -8 13 1 0.47 0.11
 7 -13 -1 0.18 -0.06
 -13 6 -1 0.21 -0.01
 -6 -7 1 0.20 -0.07
 -7 13 1 0.18 0.06
 6 -13 -1 -0.21 0.06
 -13 7 -1 -0.18 0.11
 -7 -6 1 -0.19 0.07
 5 -13 -1 -0.49 0.16
 -13 8 -1 -0.47 0.18
 -8 -5 1 -0.49 0.17
 4 -13 -1 -0.52 0.19
 -13 9 -1 -0.51 0.17
 -9 -4 1 -0.52 0.17
 3 -13 -1 -0.26 0.13
 -13 10 -1 -0.27 0.11
 -10 -3 1 -0.25 0.09
 -13 11 -1 0.17 0.03
 -11 -2 1 0.21 -0.01
 -13 12 -1 0.63 -0.02
 -12 -1 1 0.68 -0.08
 -13 13 -1 0.94 -0.04
 -13 0 1 0.99 -0.09
 -13 14 -1 1.03 -0.02
 -14 1 1 1.07 -0.07
 -13 15 -1 0.93 0.00
 -15 2 1 0.95 -0.04
 -13 16 -1 0.73 0.01
 -16 3 1 0.74 -0.02
 -14 -1 -1 -1.12 0.06
 -15 14 1 -1.11 -0.01
 -14 0 -1 -1.21 0.08
 -14 14 1 -1.18 -0.01
 -14 1 -1 -1.06 0.07
 -13 14 1 -1.03 -0.03
 -14 2 -1 -0.69 0.02
 -12 14 1 -0.66 -0.03
 -14 3 -1 -0.21 -0.05
 -11 14 1 -0.19 -0.01
 -14 4 -1 0.19 -0.11
 -10 14 1 0.19 0.04
 -14 5 -1 0.37 -0.11
 9 -14 -1 0.36 -0.09
 -9 14 1 0.36 0.09
 -14 6 -1 0.28 -0.05
 8 -14 -1 0.25 -0.10
 -14 8 -1 -0.25 0.13
 6 -14 -1 -0.28 0.06
 -8 -6 1 -0.28 0.08
 5 -14 -1 -0.37 0.12
 -14 9 -1 -0.35 0.14
 -9 -5 1 -0.38 0.11
 -14 10 -1 -0.19 0.10
 4 -14 -1 -0.19 0.12
 -10 -4 1 -0.20 0.07
 -14 11 -1 0.19 0.03
 -11 -3 1 0.20 -0.01
 -14 12 -1 0.66 -0.02
 -12 -2 1 0.69 -0.07
 -14 13 -1 1.03 -0.04
 -13 -1 1 1.06 -0.09
 -14 14 -1 1.18 -0.03
 -14 0 1 1.21 -0.07
 -14 15 -1 1.11 -0.02
 -15 1 1 1.12 -0.04
 -15 1 -1 -1.13 0.04
 -14 15 1 -1.11 -0.02
 -15 2 -1 -0.95 0.04
 -13 15 1 -0.93 -0.03
 -15 3 -1 -0.59 0.00
 -12 15 1 -0.57 -0.04
 -15 4 -1 -0.19 -0.05
 -11 15 1 -0.17 -0.01
 -15 5 -1 0.10 -0.07
 10 -15 -1 0.11 -0.04
 9 -15 -1 0.19 -0.08
 -15 6 -1 0.20 -0.06
 8 -15 -1 0.07 -0.07
 -15 7 -1 0.10 0.00
 -15 8 -1 -0.08 0.06
 7 -15 -1 -0.10 -0.01
 -15 9 -1 -0.19 0.09
 6 -15 -1 -0.20 0.05
 -15 10 -1 -0.11 0.07
 5 -15 -1 -0.10 0.07
 -10 -5 1 -0.13 0.03
 -15 11 -1 0.17 0.02
 -11 -4 1 0.16 -0.02
 -15 12 -1 0.57 -0.02
 -12 -3 1 0.57 -0.06
 -15 13 -1 0.92 -0.04
 -13 -2 1 0.94 -0.07
 -15 14 -1 1.11 -0.03
 -14 -1 1 1.12 -0.05
 -16 3 -1 -0.74 0.02
 -13 16 1 -0.72 -0.03
 -16 4 -1 -0.46 0.00
 11 -16 -1 -0.15 0.01
 -16 5 -1 -0.17 -0.03
 10 -16 -1 0.03 -0.03
 -16 6 -1 0.02 -0.04
 9 -16 -1 0.05 -0.05
 -16 7 -1 0.07 -0.02
 -16 9 -1 -0.06 0.03
 7 -16 -1 -0.08 0.00
 -16 10 -1 -0.03 0.02
 -16 11 -1 0.15 0.00
 -16 12 -1 0.43 -0.03
 -12 -4 1 0.42 -0.06
 -16 13 -1 0.72 -0.03
 -13 -3 1 0.71 -0.06
 9 -17 -1 -0.01 -0.02
 -17 8 -1 0.02 -0.01
 8 -17 -1 -0.02 -0.01
 -17 9 -1 0.01 -0.01
 0 0 -2 1.21 0.01
 0 0 -2 1.21 0.01
 0 0 2 1.21 -0.01
 1 -1 -2 1.68 0.02
 -1 0 -2 1.67 0.00
 0 1 -2 1.67 0.01
 0 -1 -2 1.67 0.00
 -1 1 -2 1.68 0.00
 0 -1 -2 1.67 0.00
 1 0 -2 1.66 0.02
 -1 0 2 1.66 -0.02
 -1 -1 -2 2.37 0.00
 -1 -1 -2 2.37 0.00
 -1 3 -2 3.13 -0.01
 -2 -1 -2 3.11 0.01
 -3 2 2 3.15 -0.03
 -2 0 -2 2.64 0.00
 2 -2 -2 2.67 0.03
 0 2 -2 2.63 0.00
 -2 2 2 2.67 -0.03
 1 1 -2 2.36 0.01
 1 -2 -2 2.39 0.02
 -2 1 -2 2.39 -0.01
 -1 2 2 2.39 -0.02
 -1 -1 2 2.36 -0.01
 0 -2 -2 2.64 0.00
 -2 2 -2 2.67 -0.01
 -1 -2 -2 3.11 0.00
 -1 -2 -2 3.11 0.00
 -2 -2 -2 3.16 0.01
 -2 4 -2 3.18 -0.01
 -4 2 2 3.17 0.00
 -3 -2 -2 2.32 0.02
 -2 5 -2 2.30 -0.01
 -5 3 2 2.34 0.00
 -3 -1 -2 3.12 0.03
 -1 4 -2 3.11 -0.02
 -4 3 2 3.17 -0.03
 -3 0 -2 3.25 0.02
 0 3 -2 3.24 -0.01
 -3 3 2 3.31 -0.04
 -3 1 -2 3.13 0.01
 2 -3 -2 3.16 0.03
 -2 3 2 3.16 -0.03
 -3 2 -2 3.16 -0.01
 1 -3 -2 3.13 0.01
 0 -3 -2 3.25 0.00
 -1 -3 -2 3.11 0.01
 -3 4 -2 3.18 -0.02
 -1 -3 -2 3.11 0.01
 -2 -3 -2 2.32 0.01
 -3 5 -2 2.34 -0.01
 -3 -3 -2 0.85 -0.01
 -3 6 -2 0.84 0.01
 -6 3 2 0.84 0.02
 -4 -3 -2 -0.81 -0.04
 -3 7 -2 -0.84 0.02
 -7 4 2 -0.81 0.01
 -4 -2 -2 0.76 0.00
 -6 4 2 0.78 0.00
 -4 -1 -2 2.09 0.03
 -1 5 -2 2.06 -0.02
 -5 4 2 2.14 -0.03
 0 4 -2 2.83 -0.03
 -4 0 -2 2.85 0.04
 -4 4 2 2.93 -0.05
 -4 1 -2 3.11 0.03
 -1 -3 2 3.11 0.03
 -3 4 2 3.18 -0.04
 -4 2 -2 3.18 0.01
 2 2 -2 3.15 -0.03
 2 -4 -2 3.18 0.02
 -2 4 2 3.18 -0.02
 1 -4 -2 3.11 0.01
 -1 4 2 3.11 -0.01
 -4 5 -2 2.15 -0.01
 -1 -4 -2 2.08 0.01
 -5 1 2 2.06 0.05
 -2 -4 -2 0.76 0.00
 -2 -4 -2 0.76 0.00
 -4 6 -2 0.79 0.00
 -4 7 -2 -0.81 0.02
 -3 -4 -2 -0.81 -0.03
 -7 3 2 -0.83 0.01
 -4 8 -2 -2.07 0.03
 -8 4 2 -2.06 -0.01
 -4 9 -2 -2.61 0.03
 -5 -4 -2 -2.61 -0.06
 -9 5 2 -2.58 -0.01
 -3 8 -2 -2.03 0.02
 -5 -3 -2 -2.01 -0.05
 -8 5 2 -1.99 0.01
 -5 -2 -2 -0.86 -0.02
 -2 7 -2 -0.90 0.00
 -7 5 2 -0.84 0.01
 -1 6 -2 0.41 -0.03
 -6 5 2 0.48 -0.01
 0 5 -2 1.46 -0.05
 -5 5 2 1.55 -0.04
 0 -5 2 1.46 0.05
 -5 1 -2 2.07 0.03
 -1 -4 2 2.08 0.04
 -4 5 2 2.15 -0.05
 -5 2 -2 2.31 0.02
 3 -5 -2 2.35 0.03
 -3 5 2 2.35 -0.03
 2 -5 -2 2.31 0.01
 -5 3 -2 2.35 0.00
 -2 5 2 2.31 -0.01
 -5 4 -2 2.15 -0.01
 1 -5 -2 2.07 0.01
 -1 5 2 2.07 -0.01
 0 -5 -2 1.47 0.02
 -5 5 -2 1.56 -0.01
 -5 0 2 1.48 0.05
 -1 -5 -2 0.44 0.01
 -5 6 -2 0.49 -0.01
 -6 1 2 0.42 0.04
 -2 -5 -2 -0.86 -0.01
 -2 -5 -2 -0.86 -0.01
 -5 7 -2 -0.84 0.01
 -7 2 2 -0.89 0.01
 -3 -5 -2 -2.01 -0.05
 -5 8 -2 -2.00 0.02
 -5 9 -2 -2.59 0.02
 -9 4 2 -2.60 -0.02
 -5 10 -2 -2.55 0.01
 -5 -5 -2 -2.55 -0.04
 -10 5 2 -2.54 -0.02
 -6 -5 -2 -2.07 0.00
 -5 11 -2 -2.10 0.00
 -11 6 2 -2.08 -0.01
 -6 -4 -2 -2.41 -0.03
 -4 10 -2 -2.42 0.01
 -10 6 2 -2.39 -0.01
 -6 -3 -2 -2.39 -0.03
 -3 9 -2 -2.40 0.01
 -9 6 2 -2.36 0.01
 -6 -2 -2 -1.88 -0.02
 -2 8 -2 -1.90 -0.01
 -8 6 2 -1.87 0.02
 -6 -1 -2 -1.04 0.00
 -1 7 -2 -1.06 -0.04
 -7 6 2 -1.02 0.00
 1 -7 2 -1.06 0.04
 0 6 -2 -0.20 -0.05
 -6 0 -2 -0.19 0.02
 -6 6 2 -0.14 -0.02
 0 -6 2 -0.20 0.05
 -6 1 -2 0.42 0.02
 -1 -5 2 0.44 0.05
 -5 6 2 0.49 -0.04
 -6 2 -2 0.74 0.01
 -4 6 2 0.79 -0.03
 -6 3 -2 0.84 0.00
 3 3 -2 0.85 -0.01
 3 -6 -2 0.84 0.00
 -3 6 2 0.84 0.00
 2 -6 -2 0.73 -0.01
 -6 4 -2 0.79 -0.01
 -2 6 2 0.73 0.01
 1 -6 -2 0.41 0.01
 -5 -1 2 0.44 0.02
 -1 6 2 0.41 -0.01
 -6 6 -2 -0.14 0.00
 0 -6 -2 -0.19 0.02
 -6 0 2 -0.19 0.03
 -1 -6 -2 -1.04 0.02
 -6 7 -2 -1.02 0.00
 -7 1 2 -1.05 0.01
 -2 -6 -2 -1.87 -0.01
 -2 -6 -2 -1.87 -0.01
 -6 8 -2 -1.87 0.01
 -8 2 2 -1.89 -0.01
 -3 -6 -2 -2.38 -0.04
 -6 9 -2 -2.37 0.00
 -9 3 2 -2.39 -0.02
 -4 -6 -2 -2.41 -0.03
 -6 10 -2 -2.40 0.00
 -5 -6 -2 -2.07 -0.01
 -6 11 -2 -2.08 -0.01
 -11 5 2 -2.09 -0.01
 -6 12 -2 -1.68 -0.01
 -12 6 2 -1.68 0.00
 -6 13 -2 -1.36 -0.01
 -13 7 2 -1.36 0.00
 -7 -5 -2 -1.52 0.02
 -5 12 -2 -1.57 -0.01
 -12 7 2 -1.55 0.00
 -7 -4 -2 -1.80 0.01
 -4 11 -2 -1.84 -0.01
 -11 7 2 -1.81 0.00
 -7 -3 -2 -2.02 0.00
 -3 10 -2 -2.05 -0.01
 -10 7 2 -2.02 0.01
 3 -10 2 -2.05 0.01
 -7 -2 -2 -2.02 0.00
 -2 9 -2 -2.04 -0.02
 -9 7 2 -2.03 0.02
 2 -9 2 -2.04 0.02
 -1 8 -2 -1.77 -0.04
 -7 -1 -2 -1.76 0.01
 1 -8 2 -1.77 0.04
 -8 7 2 -1.77 0.02
 -7 0 -2 -1.38 0.01
 0 7 -2 -1.37 -0.06
 -7 7 2 -1.37 0.00
 0 -7 2 -1.37 0.06
 -7 1 -2 -1.06 0.00
 -6 7 2 -1.02 -0.03
 -1 -6 2 -1.04 0.04
 -7 2 -2 -0.89 -0.02
 -5 7 2 -0.84 -0.02
 3 4 -2 -0.81 0.02
 4 -7 -2 -0.80 0.00
 -7 3 -2 -0.82 -0.03
 -4 7 2 -0.80 0.00
 -7 4 -2 -0.80 -0.02
 3 -7 -2 -0.83 -0.02
 -3 7 2 -0.83 0.02
 2 -7 -2 -0.89 -0.01
 -5 -2 2 -0.86 -0.02
 -7 6 -2 -1.01 0.00
 1 -7 -2 -1.06 0.01
 -6 -1 2 -1.04 0.00
 -1 7 2 -1.06 -0.01
 -7 7 -2 -1.37 0.01
 0 -7 -2 -1.37 0.03
 -7 0 2 -1.37 0.01
 -7 8 -2 -1.77 0.01
 -1 -7 -2 -1.75 0.02
 -8 1 2 -1.77 0.00
 -2 -7 -2 -2.02 0.00
 -7 9 -2 -2.03 0.00
 -2 -7 -2 -2.02 0.00
 -9 2 2 -2.04 -0.01
 -7 10 -2 -2.03 -0.01
 -10 3 2 -2.04 -0.01
 -7 11 -2 -1.81 -0.02
 -11 4 2 -1.83 0.00
 -7 12 -2 -1.55 -0.02
 -12 5 2 -1.56 0.01
 -7 13 -2 -1.36 -0.01
 -13 6 2 -1.36 0.01
 -7 14 -2 -1.23 0.00
 -14 7 2 -1.23 0.00
 -7 15 -2 -1.07 0.02
 7 -15 2 -1.07 -0.02
 -15 8 2 -1.08 0.00
 -6 14 -2 -1.15 0.00
 6 -14 2 -1.15 0.00
 -14 8 2 -1.15 0.00
 -5 13 -2 -1.16 -0.02
 5 -13 2 -1.16 0.02
 -13 8 2 -1.15 0.00
 -4 12 -2 -1.22 -0.02
 -8 -4 -2 -1.17 0.02
 -12 8 2 -1.20 0.00
 4 -12 2 -1.22 0.02
 -8 -3 -2 -1.32 0.01
 -3 11 -2 -1.36 -0.02
 -11 8 2 -1.33 0.00
 3 -11 2 -1.36 0.02
 -8 -2 -2 -1.50 0.01
 -2 10 -2 -1.52 -0.02
 2 -10 2 -1.52 0.02
 -10 8 2 -1.52 0.02
 -8 -1 -2 -1.63 0.01
 -1 9 -2 -1.63 -0.03
 1 -9 2 -1.63 0.03
 -9 8 2 -1.66 0.02
 0 8 -2 -1.69 -0.04
 -8 0 -2 -1.70 0.01
 0 -8 2 -1.69 0.04
 -8 8 2 -1.73 0.01
 -8 1 -2 -1.78 0.00
 -1 -7 2 -1.75 0.03
 -7 8 2 -1.78 -0.01
 -8 2 -2 -1.90 -0.03
 -6 8 2 -1.87 -0.02
 -8 3 -2 -2.02 -0.05
 -5 8 2 -1.99 0.00
 4 -8 -2 -2.06 -0.02
 -8 4 -2 -2.06 -0.05
 -4 8 2 -2.06 0.02
 3 -8 -2 -2.02 -0.03
 -8 5 -2 -1.99 -0.03
 -3 8 2 -2.02 0.03
 2 -8 -2 -1.90 -0.01
 -8 6 -2 -1.86 0.00
 -6 -2 2 -1.87 -0.03
 -2 8 2 -1.90 0.01
 -8 7 -2 -1.76 0.02
 1 -8 -2 -1.77 0.02
 -1 8 2 -1.77 -0.02
 -7 -1 2 -1.76 -0.01
 -8 8 -2 -1.72 0.02
 0 -8 -2 -1.69 0.03
 -8 0 2 -1.70 0.00
 -8 9 -2 -1.66 0.01
 -1 -8 -2 -1.62 0.02
 -9 1 2 -1.64 0.00
 -2 -8 -2 -1.50 0.00
 -8 10 -2 -1.52 -0.01
 -10 2 2 -1.52 -0.01
 -8 11 -2 -1.34 -0.02
 -11 3 2 -1.36 0.00
 -8 12 -2 -1.20 -0.03
 -12 4 2 -1.22 0.01
 -8 13 -2 -1.15 -0.02
 -13 5 2 -1.16 0.01
 -8 14 -2 -1.15 0.00
 -14 6 2 -1.14 0.00
 -8 15 -2 -1.08 0.01
 -15 7 2 -1.07 -0.01
 -16 8 2 -0.88 -0.02
 -16 9 2 -0.87 0.00
 -15 9 2 -0.98 0.01
 -5 14 -2 -0.91 -0.02
 -14 9 2 -0.92 0.00
 -9 -4 -2 -0.74 0.00
 -4 13 -2 -0.77 -0.02
 -13 9 2 -0.77 0.00
 -3 12 -2 -0.69 -0.02
 -9 -3 -2 -0.67 0.00
 -12 9 2 -0.68 0.00
 3 -12 2 -0.69 0.02
 -9 -2 -2 -0.74 0.00
 -2 11 -2 -0.76 -0.01
 -11 9 2 -0.76 0.01
 2 -11 2 -0.76 0.01
 -1 10 -2 -0.96 -0.01
 -9 -1 -2 -0.96 0.01
 1 -10 2 -0.96 0.01
 -10 9 2 -0.99 0.02
 -9 0 -2 -1.27 0.01
 -9 9 2 -1.31 0.02
 0 -9 2 -1.25 0.01
 -9 1 -2 -1.64 0.01
 -1 -8 2 -1.61 0.01
 -8 9 2 -1.66 -0.01
 -9 2 -2 -2.04 -0.02
 -7 9 2 -2.03 -0.02
 -9 3 -2 -2.40 -0.04
 -6 9 2 -2.37 -0.01
 -9 4 -2 -2.60 -0.06
 5 -9 -2 -2.58 -0.01
 -5 9 2 -2.58 0.01
 4 -9 -2 -2.60 -0.03
 -4 9 2 -2.60 0.03
 3 -9 -2 -2.39 -0.02
 -9 6 -2 -2.36 -0.02
 -3 9 2 -2.39 0.02
 -6 -3 2 -2.38 -0.05
 2 -9 -2 -2.04 0.00
 -9 7 -2 -2.02 0.01
 -2 9 2 -2.04 0.00
 -7 -2 2 -2.02 -0.02
 -9 8 -2 -1.65 0.02
 1 -9 -2 -1.63 0.02
 -8 -1 2 -1.62 0.00
 -9 9 -2 -1.30 0.02
 0 -9 -2 -1.26 0.02
 -9 0 2 -1.27 0.00
 -9 10 -2 -0.99 0.01
 -1 -9 -2 -0.95 0.00
 -10 1 2 -0.97 -0.01
 -9 11 -2 -0.77 0.00
 -2 -9 -2 -0.75 0.00
 -11 2 2 -0.76 -0.01
 -9 12 -2 -0.69 -0.01
 -12 3 2 -0.70 0.00
 -9 13 -2 -0.77 -0.02
 -13 4 2 -0.77 0.01
 -9 14 -2 -0.92 -0.01
 -14 5 2 -0.91 0.00
 -9 15 -2 -0.98 0.00
 -15 6 2 -0.96 -0.01
 -9 16 -2 -0.87 0.01
 -16 7 2 -0.85 -0.02
 9 -16 2 -0.87 -0.01
 -16 10 2 -0.80 0.01
 -15 10 2 -0.77 0.01
 -14 10 2 -0.54 0.00
 -10 -3 -2 -0.25 -0.02
 -3 13 -2 -0.25 -0.01
 -13 10 2 -0.25 -0.01
 -2 12 -2 -0.10 0.02
 -10 -2 -2 -0.10 -0.03
 -12 10 2 -0.10 0.00
 -1 11 -2 -0.18 0.03
 -10 -1 -2 -0.18 -0.02
 -11 10 2 -0.19 0.01
 -10 0 -2 -0.49 -0.01
 -10 10 2 -0.52 0.02
 -10 1 -2 -0.97 0.01
 -9 10 2 -0.99 0.00
 -10 2 -2 -1.53 0.00
 -8 10 2 -1.52 -0.02
 -10 3 -2 -2.05 -0.02
 -7 10 2 -2.02 -0.03
 -10 4 -2 -2.42 -0.04
 6 -10 -2 -2.39 0.01
 -6 10 2 -2.39 -0.01
 -10 5 -2 -2.54 -0.04
 5 -10 -2 -2.54 -0.02
 -5 10 2 -2.54 0.02
 4 -10 -2 -2.42 -0.03
 -6 -4 2 -2.40 -0.04
 -4 10 2 -2.42 0.03
 -10 7 -2 -2.01 -0.01
 3 -10 -2 -2.05 -0.01
 -3 10 2 -2.05 0.01
 -7 -3 2 -2.02 -0.02
 2 -10 -2 -1.52 0.01
 -10 8 -2 -1.51 0.01
 -8 -2 2 -1.50 0.00
 1 -10 -2 -0.97 0.01
 -10 9 -2 -0.98 0.02
 -9 -1 2 -0.95 0.00
 0 -10 -2 -0.49 -0.01
 -10 10 -2 -0.51 0.02
 -10 0 2 -0.49 -0.02
 -1 -10 -2 -0.18 -0.03
 -10 11 -2 -0.20 0.01
 -11 1 2 -0.19 -0.03
 -10 12 -2 -0.11 0.01
 -12 2 2 -0.11 -0.02
 -10 13 -2 -0.26 0.00
 -13 3 2 -0.26 -0.01
 -10 14 -2 -0.54 0.00
 -14 4 2 -0.53 0.00
 -10 15 -2 -0.77 0.00
 -15 5 2 -0.75 -0.01
 -10 16 -2 -0.80 0.00
 -16 6 2 -0.78 -0.01
 -16 11 2 -0.64 0.02
 -15 11 2 -0.44 0.01
 -11 -3 -2 -0.08 -0.02
 -14 11 2 -0.07 0.00
 -11 -2 -2 0.27 -0.05
 -13 11 2 0.27 0.00
 -11 -1 -2 0.40 -0.06
 -12 11 2 0.40 0.01
 -11 0 -2 0.24 -0.04
 -11 11 2 0.23 0.02
 -11 1 -2 -0.19 -0.01
 -10 11 2 -0.20 0.01
 -11 2 -2 -0.77 0.01
 -9 11 2 -0.76 -0.01
 -11 3 -2 -1.36 0.01
 -8 11 2 -1.34 -0.03
 -11 4 -2 -1.84 0.00
 7 -11 -2 -1.80 0.02
 -7 11 2 -1.80 -0.02
 6 -11 -2 -2.08 0.00
 -11 5 -2 -2.10 -0.02
 -6 11 2 -2.08 0.00
 5 -11 -2 -2.09 -0.01
 -11 6 -2 -2.09 -0.02
 -5 11 2 -2.09 0.01
 -6 -5 2 -2.07 -0.02
 -11 7 -2 -1.81 -0.02
 4 -11 -2 -1.84 -0.01
 -7 -4 2 -1.80 -0.01
 3 -11 -2 -1.36 0.00
 -11 8 -2 -1.33 0.00
 -8 -3 2 -1.32 0.00
 -11 9 -2 -0.75 0.01
 2 -11 -2 -0.76 0.00
 -9 -2 2 -0.74 0.00
 -11 10 -2 -0.18 0.01
 1 -11 -2 -0.19 -0.02
 -10 -1 2 -0.18 -0.03
 0 -11 -2 0.23 -0.04
 -11 11 -2 0.24 0.02
 -11 0 2 0.24 -0.05
 -11 12 -2 0.40 0.02
 -12 1 2 0.40 -0.05
 -11 13 -2 0.26 0.02
 -13 2 2 0.28 -0.04
 -11 14 -2 -0.08 0.01
 -14 3 2 -0.06 -0.02
 -11 15 -2 -0.45 0.01
 -15 4 2 -0.43 -0.01
 -11 16 -2 -0.65 0.00
 -16 5 2 -0.64 0.00
 -16 12 2 -0.42 0.02
 -15 12 2 -0.08 0.01
 -12 -2 -2 0.34 -0.04
 -14 12 2 0.35 0.00
 -12 -1 -2 0.66 -0.07
 -13 12 2 0.66 0.00
 -12 0 -2 0.69 -0.07
 -12 12 2 0.68 0.01
 -12 1 -2 0.41 -0.04
 -11 12 2 0.39 0.02
 -12 2 -2 -0.11 0.00
 -10 12 2 -0.11 0.00
 -12 3 -2 -0.70 0.02
 -9 12 2 -0.68 -0.02
 8 -12 -2 -1.19 0.03
 -12 4 -2 -1.22 0.02
 -8 12 2 -1.19 -0.03
 7 -12 -2 -1.54 0.02
 -12 5 -2 -1.57 0.01
 -7 12 2 -1.54 -0.02
 6 -12 -2 -1.68 0.00
 -12 6 -2 -1.69 0.00
 -6 -6 2 -1.64 0.01
 -6 12 2 -1.68 0.00
 5 -12 -2 -1.57 -0.01
 -12 7 -2 -1.55 -0.01
 -7 -5 2 -1.52 0.01
 -12 8 -2 -1.20 -0.01
 4 -12 -2 -1.22 0.00
 -8 -4 2 -1.17 0.01
 3 -12 -2 -0.70 0.01
 -12 9 -2 -0.68 0.00
 -9 -3 2 -0.67 0.00
 -12 10 -2 -0.10 0.00
 2 -12 -2 -0.11 -0.01
 -10 -2 2 -0.10 -0.03
 1 -12 -2 0.40 -0.04
 -12 11 -2 0.41 0.00
 -11 -1 2 0.40 -0.06
 -12 12 -2 0.69 0.01
 -12 0 2 0.69 -0.07
 -12 13 -2 0.66 0.02
 -13 1 2 0.67 -0.06
 -12 14 -2 0.34 0.03
 -14 2 2 0.36 -0.04
 -12 15 -2 -0.09 0.02
 -15 3 2 -0.07 -0.01
 -12 16 -2 -0.43 0.01
 -16 4 2 -0.43 0.01
 -15 13 2 0.20 0.01
 -13 -1 -2 0.60 -0.05
 -14 13 2 0.59 0.00
 -13 0 -2 0.79 -0.06
 -13 13 2 0.77 0.01
 -13 1 -2 0.67 -0.05
 -12 13 2 0.65 0.02
 -13 2 -2 0.28 -0.02
 -11 13 2 0.26 0.01
 -13 3 -2 -0.26 0.01
 -10 13 2 -0.26 -0.01
 -13 4 -2 -0.78 0.03
 9 -13 -2 -0.76 0.03
 -9 13 2 -0.76 -0.03
 8 -13 -2 -1.15 0.02
 -13 5 -2 -1.17 0.02
 -8 13 2 -1.15 -0.02
 -13 6 -2 -1.37 0.01
 7 -13 -2 -1.35 0.00
 -6 -7 2 -1.32 0.02
 6 -13 -2 -1.36 -0.01
 -13 7 -2 -1.37 0.01
 -7 -6 2 -1.32 0.01
 -13 8 -2 -1.16 0.00
 5 -13 -2 -1.16 -0.01
 -8 -5 2 -1.12 0.01
 -13 9 -2 -0.77 0.00
 4 -13 -2 -0.78 0.00
 -9 -4 2 -0.75 0.00
 3 -13 -2 -0.26 0.00
 -13 10 -2 -0.25 -0.01
 -10 -3 2 -0.25 -0.02
 -13 11 -2 0.28 -0.01
 2 -13 -2 0.28 -0.03
 -11 -2 2 0.26 -0.05
 -13 12 -2 0.67 0.00
 -12 -1 2 0.65 -0.07
 -13 13 -2 0.78 0.01
 -13 0 2 0.79 -0.07
 -13 14 -2 0.59 0.02
 -14 1 2 0.61 -0.05
 -13 15 -2 0.19 0.02
 -15 2 2 0.21 -0.02
 -14 -1 -2 0.30 -0.02
 -15 14 2 0.28 0.01
 -14 0 -2 0.58 -0.04
 -14 14 2 0.55 0.01
 -14 1 -2 0.62 -0.04
 -13 14 2 0.58 0.01
 -14 2 -2 0.37 -0.03
 -12 14 2 0.34 0.01
 -14 3 -2 -0.06 0.00
 -11 14 2 -0.08 0.00
 10 -14 -2 -0.54 0.02
 -14 4 -2 -0.53 0.01
 -10 14 2 -0.54 -0.02
 9 -14 -2 -0.91 0.02
 -14 5 -2 -0.91 0.02
 -14 6 -2 -1.15 0.01
 8 -14 -2 -1.15 0.00
 -6 -8 2 -1.13 0.02
 7 -14 -2 -1.23 -0.02
 -14 7 -2 -1.23 0.00
 -7 -7 2 -1.21 0.00
 6 -14 -2 -1.15 -0.02
 -14 8 -2 -1.16 0.00
 -8 -6 2 -1.13 -0.01
 5 -14 -2 -0.91 -0.01
 -14 9 -2 -0.92 0.01
 -9 -5 2 -0.90 -0.01
 -14 10 -2 -0.54 0.00
 4 -14 -2 -0.53 0.01
 -10 -4 2 -0.53 -0.01
 -14 11 -2 -0.07 0.00
 3 -14 -2 -0.06 0.00
 -11 -3 2 -0.09 -0.03
 -14 12 -2 0.35 -0.01
 -12 -2 2 0.34 -0.04
 -14 13 -2 0.59 0.00
 -13 -1 2 0.59 -0.05
 -14 14 -2 0.56 0.01
 -14 0 2 0.58 -0.04
 -14 15 -2 0.29 0.02
 -15 1 2 0.32 -0.02
 -15 1 -2 0.32 -0.02
 -14 15 2 0.28 0.01
 -15 2 -2 0.22 -0.01
 -13 15 2 0.19 0.01
 -15 3 -2 -0.07 0.00
 -12 15 2 -0.09 0.00
 -15 4 -2 -0.43 0.01
 11 -15 -2 -0.44 0.01
 -15 5 -2 -0.75 0.01
 10 -15 -2 -0.76 0.02
 -15 6 -2 -0.97 0.00
 9 -15 -2 -0.98 0.00
 8 -15 -2 -1.08 -0.03
 -15 7 -2 -1.08 -0.01
 -15 8 -2 -1.09 -0.01
 7 -15 -2 -1.08 -0.03
 -8 -7 2 -1.09 -0.02
 -15 9 -2 -0.99 0.00
 6 -15 -2 -0.97 -0.02
 -9 -6 2 -0.99 -0.02
 -15 10 -2 -0.77 0.01
 5 -15 -2 -0.75 0.00
 -10 -5 2 -0.77 -0.01
 -15 11 -2 -0.45 0.01
 -11 -4 2 -0.46 -0.01
 -15 12 -2 -0.08 0.00
 -12 -3 2 -0.10 -0.01
 -15 13 -2 0.20 0.00
 -13 -2 2 0.18 -0.02
 -15 14 -2 0.29 0.00
 -14 -1 2 0.30 -0.02
 -16 4 -2 -0.43 0.02
 12 -16 -2 -0.43 0.01
 11 -16 -2 -0.64 0.02
 -16 5 -2 -0.64 0.01
 -16 6 -2 -0.78 -0.01
 10 -16 -2 -0.79 0.01
 9 -16 -2 -0.86 -0.02
 -16 7 -2 -0.85 -0.02
 -16 8 -2 -0.88 -0.02
 8 -16 -2 -0.88 -0.04
 -16 9 -2 -0.87 -0.01
 7 -16 -2 -0.86 -0.03
 6 -16 -2 -0.78 -0.01
 -16 10 -2 -0.80 0.01
 -16 11 -2 -0.65 0.01
 -11 -5 2 -0.66 0.00
 -16 12 -2 -0.42 0.01
 -12 -4 2 -0.45 0.01
 0 1 -3 0.03 0.00
 -1 0 -3 0.03 0.03
 1 -1 -3 0.02 0.02
 0 -1 -3 -0.03 0.03
 -1 1 -3 -0.03 0.01
 1 0 -3 -0.03 0.01
 0 -1 -3 -0.03 0.03
 -2 -1 -3 0.20 0.04
 3 -2 -3 0.20 -0.01
 -3 2 3 0.20 0.01
 -2 0 -3 0.19 0.03
 0 2 -3 0.19 -0.02
 2 -2 -3 0.19 0.00
 -2 2 3 0.19 0.00
 2 0 -3 -0.19 0.00
 -2 2 -3 -0.19 -0.02
 -1 -2 -3 -0.19 0.03
 -1 -2 -3 -0.19 0.03
 -2 5 -3 0.21 -0.03
 -3 -2 -3 0.22 0.01
 -5 3 3 0.23 0.00
 -3 -1 -3 0.44 0.03
 -1 4 -3 0.44 -0.03
 -4 3 3 0.45 0.02
 0 3 -3 0.46 -0.03
 -3 0 -3 0.46 0.03
 3 -3 -3 0.46 -0.02
 -3 3 3 0.46 0.02
 2 -3 -3 0.19 0.00
 -3 1 -3 0.19 0.02
 -1 -2 3 0.20 0.02
 -2 3 3 0.19 0.00
 2 1 -3 -0.19 -0.01
 -3 2 -3 -0.20 -0.01
 -1 3 3 -0.20 -0.01
 -3 3 -3 -0.47 -0.03
 0 -3 -3 -0.46 0.02
 -2 -3 -3 -0.22 0.01
 -3 5 -3 -0.23 -0.04
 -5 2 3 -0.21 -0.01
 -3 7 -3 0.03 -0.01
 -4 -3 -3 0.03 -0.02
 -7 4 3 0.03 -0.05
 -4 -2 -3 0.25 -0.01
 -2 6 -3 0.25 0.00
 -6 4 3 0.26 -0.01
 -1 5 -3 0.53 -0.01
 -4 -1 -3 0.53 0.00
 -5 4 3 0.54 0.02
 -4 0 -3 0.64 0.02
 0 4 -3 0.64 -0.02
 -4 4 3 0.65 0.03
 1 3 -3 0.44 -0.02
 -4 1 -3 0.44 0.02
 -3 4 3 0.45 0.02
 1 -4 -3 -0.44 0.01
 -1 4 3 -0.44 -0.01
 -4 4 -3 -0.65 -0.04
 -1 -4 -3 -0.52 0.02
 -4 5 -3 -0.54 -0.04
 -2 -4 -3 -0.25 0.01
 -2 -4 -3 -0.25 0.01
 -4 6 -3 -0.26 -0.03
 -6 2 3 -0.25 -0.02
 -4 7 -3 -0.03 -0.01
 -3 -4 -3 -0.03 -0.02
 -7 3 3 -0.03 -0.05
 -4 9 -3 -0.13 -0.05
 -5 -4 -3 -0.15 -0.01
 -9 5 3 -0.16 -0.07
 -3 8 -3 -0.14 -0.02
 -5 -3 -3 -0.16 -0.02
 -8 5 3 -0.16 -0.05
 -5 -2 -3 0.02 -0.04
 -2 7 -3 0.03 0.02
 -7 5 3 0.03 -0.02
 -1 6 -3 0.33 0.03
 -6 5 3 0.33 0.02
 0 5 -3 0.55 0.02
 -5 5 3 0.56 0.03
 -5 1 -3 0.53 0.01
 4 -5 -3 0.54 -0.03
 1 4 -3 0.53 0.00
 -4 5 3 0.54 0.03
 -1 -4 3 0.53 0.00
 -5 2 -3 0.21 0.02
 -3 5 3 0.22 0.01
 -5 3 -3 -0.23 0.01
 2 -5 -3 -0.22 0.01
 -2 5 3 -0.22 -0.01
 1 -5 -3 -0.53 0.02
 -5 4 -3 -0.54 -0.01
 -1 5 3 -0.53 -0.02
 0 -5 -3 -0.55 0.03
 -5 0 3 -0.55 0.02
 -1 -5 -3 -0.32 0.03
 -1 -5 -3 -0.32 0.03
 -5 6 -3 -0.33 -0.02
 -6 1 3 -0.32 0.02
 -2 -5 -3 -0.02 0.00
 -5 7 -3 -0.03 -0.01
 -2 -5 -3 -0.02 0.00
 -7 2 3 -0.03 -0.01
 -3 -5 -3 0.16 -0.03
 -5 8 -3 0.16 0.00
 -8 3 3 0.14 -0.05
 -4 -5 -3 0.14 -0.05
 -5 9 -3 0.16 -0.02
 -9 4 3 0.13 -0.08
 -5 11 -3 -0.15 -0.08
 -11 6 3 -0.18 -0.01
 -4 10 -3 -0.32 -0.10
 -6 -4 -3 -0.35 0.05
 -10 6 3 -0.35 -0.03
 -3 9 -3 -0.40 -0.05
 -6 -3 -3 -0.43 0.02
 -9 6 3 -0.43 -0.03
 -6 -2 -3 -0.35 -0.04
 -2 8 -3 -0.33 0.02
 -8 6 3 -0.34 -0.01
 -1 7 -3 -0.10 0.06
 -6 -1 -3 -0.11 -0.07
 -7 6 3 -0.10 0.02
 0 6 -3 0.17 0.06
 -6 0 -3 0.17 -0.05
 -6 6 3 0.17 0.04
 0 -6 3 0.17 -0.06
 -6 1 -3 0.33 -0.01
 1 5 -3 0.32 0.03
 -1 -5 3 0.32 -0.03
 -5 6 3 0.33 0.04
 -6 2 -3 0.25 0.02
 4 -6 -3 0.26 -0.02
 -4 6 3 0.26 0.02
 -6 4 -3 -0.26 0.02
 2 -6 -3 -0.25 0.02
 -2 6 3 -0.25 -0.02
 1 -6 -3 -0.32 0.04
 -1 6 3 -0.32 -0.04
 0 -6 -3 -0.16 0.05
 -6 6 -3 -0.18 -0.01
 -6 0 3 -0.17 0.04
 -1 -6 -3 0.12 0.04
 -1 -6 -3 0.12 0.04
 -6 7 -3 0.10 0.00
 -7 1 3 0.10 0.04
 -2 -6 -3 0.35 -0.01
 -2 -6 -3 0.35 -0.01
 -6 8 -3 0.34 0.01
 -3 -6 -3 0.43 -0.06
 -6 9 -3 0.43 0.02
 -9 3 3 0.40 -0.04
 -6 10 -3 0.35 0.01
 -10 4 3 0.32 -0.07
 -6 11 -3 0.19 0.00
 -11 5 3 0.15 -0.05
 -6 13 -3 -0.07 -0.03
 -13 7 3 -0.10 0.05
 -5 12 -3 -0.24 -0.10
 -12 7 3 -0.27 0.04
 -7 -4 -3 -0.46 0.13
 -4 11 -3 -0.43 -0.13
 -11 7 3 -0.46 0.02
 -7 -3 -3 -0.61 0.07
 -3 10 -3 -0.59 -0.08
 -10 7 3 -0.61 0.00
 -7 -2 -3 -0.66 -0.01
 -2 9 -3 -0.64 0.01
 -9 7 3 -0.65 0.00
 2 -9 3 -0.64 -0.01
 -1 8 -3 -0.54 0.08
 -7 -1 -3 -0.56 -0.08
 1 -8 3 -0.54 -0.08
 -8 7 3 -0.55 0.02
 0 7 -3 -0.34 0.10
 -7 0 -3 -0.34 -0.09
 0 -7 3 -0.34 -0.10
 -7 7 3 -0.34 0.03
 -7 1 -3 -0.10 -0.05
 -6 7 3 -0.11 0.04
 -1 -6 3 -0.11 -0.07
 -7 2 -3 0.04 0.01
 5 -7 -3 0.03 -0.02
 -5 7 3 0.03 0.02
 4 -7 -3 0.03 -0.01
 -7 3 -3 0.04 0.05
 -4 7 3 0.03 0.01
 4 3 -3 -0.03 0.00
 3 -7 -3 -0.03 0.00
 -7 4 -3 -0.03 0.05
 -3 7 3 -0.03 0.00
 2 -7 -3 -0.03 0.02
 -7 5 -3 -0.03 0.03
 -2 7 3 -0.03 -0.02
 -7 6 -3 0.10 0.01
 1 -7 -3 0.11 0.05
 -1 7 3 0.11 -0.05
 -6 -1 3 0.11 0.04
 -7 7 -3 0.33 0.00
 0 -7 -3 0.34 0.07
 -7 0 3 0.34 0.07
 -7 8 -3 0.55 0.01
 -1 -7 -3 0.56 0.05
 -8 1 3 0.54 0.06
 -7 9 -3 0.65 0.03
 -2 -7 -3 0.66 -0.02
 -7 10 -3 0.61 0.05
 -10 3 3 0.59 -0.04
 -7 11 -3 0.46 0.05
 -11 4 3 0.44 -0.07
 -7 12 -3 0.27 0.05
 -12 5 3 0.25 -0.05
 -7 13 -3 0.10 0.05
 -13 6 3 0.07 0.00
 -7 15 -3 0.05 0.04
 -15 8 3 0.02 0.03
 -6 14 -3 -0.03 -0.02
 -14 8 3 -0.05 0.06
 -5 13 -3 -0.19 -0.09
 5 -13 3 -0.19 0.09
 -13 8 3 -0.21 0.07
 -4 12 -3 -0.39 -0.13
 4 -12 3 -0.39 0.13
 -12 8 3 -0.40 0.05
 -3 11 -3 -0.58 -0.10
 -8 -3 -3 -0.60 0.11
 -11 8 3 -0.59 0.03
 3 -11 3 -0.58 0.10
 -8 -2 -3 -0.74 0.02
 -2 10 -3 -0.73 -0.01
 -10 8 3 -0.73 0.02
 2 -10 3 -0.73 0.01
 -8 -1 -3 -0.79 -0.07
 -1 9 -3 -0.78 0.08
 -9 8 3 -0.78 0.02
 1 -9 3 -0.78 -0.08
 -8 0 -3 -0.72 -0.11
 0 8 -3 -0.72 0.12
 0 -8 3 -0.72 -0.12
 -8 8 3 -0.72 0.03
 -8 1 -3 -0.54 -0.07
 -1 -7 3 -0.56 -0.08
 -7 8 3 -0.55 0.03
 -8 2 -3 -0.33 0.00
 -6 8 3 -0.34 0.02
 -8 3 -3 -0.14 0.06
 5 -8 -3 -0.16 -0.01
 -5 8 3 -0.16 0.01
 3 -8 -3 0.14 -0.01
 -8 5 -3 0.16 0.06
 -3 8 3 0.14 0.01
 2 -8 -3 0.34 0.01
 -6 -2 3 0.35 0.00
 -2 8 3 0.34 -0.01
 1 -8 -3 0.55 0.05
 -8 7 -3 0.55 0.01
 -7 -1 3 0.56 0.04
 -8 8 -3 0.71 0.01
 0 -8 -3 0.72 0.08
 -8 0 3 0.72 0.08
 -8 9 -3 0.78 0.02
 -1 -8 -3 0.79 0.05
 -9 1 3 0.78 0.07
 -8 10 -3 0.73 0.04
 -2 -8 -3 0.74 -0.02
 -10 2 3 0.73 0.02
 -8 11 -3 0.59 0.06
 -11 3 3 0.59 -0.05
 -8 12 -3 0.40 0.07
 -12 4 3 0.40 -0.07
 -8 13 -3 0.21 0.07
 -13 5 3 0.19 -0.05
 -8 14 -3 0.06 0.07
 -14 6 3 0.03 -0.01
 -8 15 -3 -0.02 0.06
 -15 7 3 -0.05 0.02
 -16 9 3 0.15 0.01
 -6 15 -3 0.14 0.00
 -15 9 3 0.11 0.03
 -5 14 -3 0.01 -0.06
 -14 9 3 0.00 0.04
 -4 13 -3 -0.16 -0.10
 -13 9 3 -0.17 0.04
 -3 12 -3 -0.36 -0.08
 -9 -3 -3 -0.36 0.10
 -12 9 3 -0.35 0.03
 -2 11 -3 -0.54 0.00
 -9 -2 -3 -0.54 0.03
 -11 9 3 -0.53 0.02
 -1 10 -3 -0.71 0.09
 -9 -1 -3 -0.71 -0.06
 -10 9 3 -0.69 0.02
 -9 0 -3 -0.80 -0.10
 0 9 -3 -0.80 0.12
 -9 9 3 -0.79 0.02
 -9 1 -3 -0.78 -0.08
 -8 9 3 -0.78 0.02
 -9 2 -3 -0.64 -0.01
 -7 9 3 -0.65 0.00
 -9 3 -3 -0.40 0.06
 6 -9 -3 -0.43 0.00
 -6 9 3 -0.43 0.00
 5 -9 -3 -0.16 -0.01
 -9 4 -3 -0.12 0.09
 -5 9 3 -0.16 0.01
 -9 5 -3 0.16 0.07
 4 -9 -3 0.13 -0.04
 -4 9 3 0.13 0.04
 -9 6 -3 0.43 0.03
 3 -9 -3 0.41 -0.04
 -3 9 3 0.41 0.04
 -6 -3 3 0.43 -0.05
 2 -9 -3 0.64 0.00
 -7 -2 3 0.66 -0.03
 -9 8 -3 0.78 0.00
 1 -9 -3 0.79 0.06
 -8 -1 3 0.79 0.03
 -9 9 -3 0.79 0.01
 0 -9 -3 0.80 0.09
 -9 0 3 0.80 0.08
 -1 -9 -3 0.71 0.07
 -9 10 -3 0.69 0.02
 -10 1 3 0.71 0.07
 -9 11 -3 0.53 0.03
 -2 -9 -3 0.54 -0.01
 -11 2 3 0.55 0.01
 -9 12 -3 0.34 0.04
 -12 3 3 0.36 -0.05
 -9 13 -3 0.17 0.04
 -13 4 3 0.17 -0.07
 -9 14 -3 0.01 0.04
 -14 5 3 -0.01 -0.05
 -9 15 -3 -0.11 0.04
 -15 6 3 -0.14 -0.01
 -9 16 -3 -0.15 0.04
 -16 7 3 -0.17 0.01
 -16 10 3 0.32 -0.02
 -15 10 3 0.28 -0.01
 -4 14 -3 0.17 -0.04
 -14 10 3 0.18 0.00
 -3 13 -3 0.03 -0.04
 -13 10 3 0.04 -0.01
 -10 -2 -3 -0.13 -0.01
 -2 12 -3 -0.14 0.02
 -12 10 3 -0.12 -0.01
 -1 11 -3 -0.35 0.10
 -10 -1 -3 -0.34 -0.07
 -11 10 3 -0.32 0.00
 -10 0 -3 -0.55 -0.10
 -10 10 3 -0.53 0.01
 -10 1 -3 -0.71 -0.07
 -9 10 3 -0.69 0.01
 -10 2 -3 -0.73 0.00
 -8 10 3 -0.73 -0.01
 7 -10 -3 -0.61 0.03
 -10 3 -3 -0.59 0.07
 -7 10 3 -0.61 -0.03
 6 -10 -3 -0.35 0.02
 -10 4 -3 -0.32 0.10
 -6 10 3 -0.35 -0.02
 -10 6 -3 0.36 0.02
 4 -10 -3 0.32 -0.07
 -4 10 3 0.32 0.07
 -10 7 -3 0.61 -0.02
 3 -10 -3 0.59 -0.07
 -7 -3 3 0.61 -0.10
 2 -10 -3 0.73 -0.01
 -10 8 -3 0.73 -0.03
 -8 -2 3 0.74 -0.05
 -10 9 -3 0.69 -0.01
 1 -10 -3 0.71 0.07
 -9 -1 3 0.70 0.03
 0 -10 -3 0.55 0.11
 -10 10 -3 0.53 0.01
 -10 0 3 0.55 0.08
 -1 -10 -3 0.34 0.08
 -10 11 -3 0.32 0.01
 -11 1 3 0.34 0.06
 -10 12 -3 0.12 0.00
 -12 2 3 0.14 0.01
 -10 13 -3 -0.05 -0.01
 -13 3 3 -0.03 -0.04
 -10 14 -3 -0.17 -0.02
 -14 4 3 -0.18 -0.05
 -10 15 -3 -0.27 -0.01
 -15 5 3 -0.29 -0.03
 -10 16 -3 -0.31 -0.01
 -16 6 3 -0.34 0.00
 -16 11 3 0.49 -0.04
 -15 11 3 0.49 -0.04
 -14 11 3 0.45 -0.04
 -11 -2 -3 0.34 -0.06
 -2 13 -3 0.33 0.05
 -13 11 3 0.36 -0.04
 -11 -1 -3 0.18 -0.10
 -12 11 3 0.19 -0.02
 -11 0 -3 -0.07 -0.11
 -11 11 3 -0.05 0.00
 -11 1 -3 -0.35 -0.08
 -10 11 3 -0.32 0.01
 -11 2 -3 -0.55 0.00
 -9 11 3 -0.53 -0.01
 -11 3 -3 -0.59 0.08
 8 -11 -3 -0.59 0.05
 -8 11 3 -0.59 -0.05
 -11 4 -3 -0.44 0.11
 7 -11 -3 -0.46 0.06
 -7 11 3 -0.46 -0.06
 -11 5 -3 -0.15 0.07
 6 -11 -3 -0.19 0.02
 -6 11 3 -0.19 -0.02
 5 -11 -3 0.15 -0.05
 -11 6 -3 0.19 0.00
 4 -11 -3 0.44 -0.10
 -11 7 -3 0.46 -0.05
 -7 -4 3 0.46 -0.13
 -11 8 -3 0.59 -0.06
 3 -11 -3 0.59 -0.08
 -8 -3 3 0.60 -0.13
 2 -11 -3 0.55 0.00
 -11 9 -3 0.53 -0.04
 -9 -2 3 0.54 -0.05
 1 -11 -3 0.35 0.08
 -11 10 -3 0.32 0.00
 -10 -1 3 0.33 0.04
 0 -11 -3 0.07 0.12
 -11 11 -3 0.04 0.01
 -11 0 3 0.06 0.09
 -11 12 -3 -0.20 -0.01
 -12 1 3 -0.18 0.07
 -11 13 -3 -0.36 -0.04
 -13 2 3 -0.34 0.02
 -11 14 -3 -0.45 -0.07
 -14 3 3 -0.44 -0.02
 -11 15 -3 -0.49 -0.07
 -15 4 3 -0.49 -0.02
 -11 16 -3 -0.49 -0.06
 -16 5 3 -0.50 0.00
 -16 12 3 0.64 -0.05
 -15 12 3 0.70 -0.06
 -14 12 3 0.72 -0.06
 -12 -1 -3 0.65 -0.11
 -13 12 3 0.66 -0.04
 -12 0 -3 0.47 -0.12
 -12 12 3 0.48 -0.01
 -12 1 -3 0.17 -0.09
 -11 12 3 0.20 0.02
 -12 2 -3 -0.15 -0.01
 -10 12 3 -0.12 0.01
 9 -12 -3 -0.35 0.03
 -12 3 -3 -0.36 0.07
 -9 12 3 -0.35 -0.03
 -12 4 -3 -0.39 0.11
 8 -12 -3 -0.40 0.07
 -8 12 3 -0.40 -0.07
 -12 5 -3 -0.24 0.08
 7 -12 -3 -0.27 0.07
 -7 12 3 -0.27 -0.07
 5 -12 -3 0.24 -0.07
 -12 7 -3 0.27 -0.07
 -7 -5 3 0.27 -0.11
 4 -12 -3 0.39 -0.10
 -12 8 -3 0.40 -0.09
 -8 -4 3 0.41 -0.15
 -12 9 -3 0.35 -0.06
 3 -12 -3 0.36 -0.07
 -9 -3 3 0.36 -0.11
 -12 10 -3 0.12 -0.01
 2 -12 -3 0.14 0.02
 -10 -2 3 0.13 0.00
 -12 11 -3 -0.20 0.02
 1 -12 -3 -0.17 0.09
 -11 -1 3 -0.19 0.08
 0 -12 -3 -0.47 0.11
 -12 12 -3 -0.48 0.01
 -12 0 3 -0.47 0.10
 -12 13 -3 -0.67 -0.03
 -13 1 3 -0.65 0.06
 -12 14 -3 -0.73 -0.07
 -14 2 3 -0.71 0.02
 -12 15 -3 -0.71 -0.09
 -15 3 3 -0.69 0.00
 -12 16 -3 -0.64 -0.08
 -16 4 3 -0.63 0.00
 -15 13 3 0.83 -0.05
 -13 -1 -3 0.89 -0.08
 -14 13 3 0.90 -0.04
 -13 0 -3 0.84 -0.10
 -13 13 3 0.85 -0.01
 -13 1 -3 0.64 -0.09
 -12 13 3 0.66 0.03
 -13 2 -3 0.33 -0.04
 -11 13 3 0.36 0.04
 -13 3 -3 0.03 0.04
 10 -13 -3 0.04 -0.01
 -10 13 3 0.04 0.01
 9 -13 -3 -0.17 0.05
 -13 4 -3 -0.17 0.09
 -9 13 3 -0.17 -0.05
 -13 5 -3 -0.19 0.08
 8 -13 -3 -0.21 0.09
 7 -13 -3 -0.10 0.07
 -13 6 -3 -0.07 0.02
 -6 -7 3 -0.10 0.07
 -13 7 -3 0.10 -0.06
 6 -13 -3 0.07 0.01
 -7 -6 3 0.09 -0.05
 5 -13 -3 0.19 -0.06
 -13 8 -3 0.21 -0.10
 -8 -5 3 0.22 -0.12
 -13 9 -3 0.17 -0.07
 4 -13 -3 0.17 -0.07
 -9 -4 3 0.18 -0.11
 -13 10 -3 -0.04 -0.02
 3 -13 -3 -0.03 -0.03
 -10 -3 3 -0.03 -0.03
 2 -13 -3 -0.33 0.04
 -13 11 -3 -0.36 0.03
 -11 -2 3 -0.35 0.06
 1 -13 -3 -0.64 0.08
 -13 12 -3 -0.66 0.04
 -12 -1 3 -0.66 0.10
 -13 13 -3 -0.86 0.01
 -13 0 3 -0.85 0.09
 -13 14 -3 -0.90 -0.03
 -14 1 3 -0.88 0.04
 -13 15 -3 -0.83 -0.06
 -15 2 3 -0.80 0.01
 -15 14 3 0.80 -0.02
 -14 0 -3 0.91 -0.05
 -14 14 3 0.92 0.00
 -14 1 -3 0.88 -0.07
 -13 14 3 0.90 0.03
 -14 2 -3 0.70 -0.05
 -12 14 3 0.72 0.06
 11 -14 -3 0.45 -0.06
 -14 3 -3 0.43 0.00
 -11 14 3 0.45 0.06
 -14 4 -3 0.17 0.05
 10 -14 -3 0.17 -0.01
 9 -14 -3 -0.01 0.06
 -14 5 -3 0.01 0.06
 -14 6 -3 -0.02 0.02
 8 -14 -3 -0.05 0.09
 -6 -8 3 -0.06 0.08
 6 -14 -3 0.03 0.01
 -14 8 -3 0.06 -0.08
 -8 -6 3 0.05 -0.06
 -14 9 -3 0.00 -0.07
 5 -14 -3 -0.01 -0.04
 -9 -5 3 0.02 -0.08
 -14 10 -3 -0.17 -0.01
 4 -14 -3 -0.17 -0.03
 -10 -4 3 -0.15 -0.02
 -14 11 -3 -0.45 0.04
 3 -14 -3 -0.43 0.01
 -11 -3 3 -0.43 0.05
 -14 12 -3 -0.72 0.06
 -12 -2 3 -0.71 0.09
 -14 13 -3 -0.90 0.05
 -13 -1 3 -0.89 0.09
 -14 14 -3 -0.92 0.01
 -14 0 3 -0.91 0.04
 -14 15 -3 -0.81 -0.02
 -15 1 3 -0.78 0.00
 -15 1 -3 0.79 -0.02
 -14 15 3 0.80 0.02
 13 -15 -3 0.83 -0.05
 -15 2 -3 0.80 -0.04
 -13 15 3 0.83 0.05
 -15 3 -3 0.68 -0.03
 12 -15 -3 0.70 -0.08
 -15 4 -3 0.49 0.00
 11 -15 -3 0.49 -0.06
 -15 5 -3 0.29 0.02
 10 -15 -3 0.27 -0.01
 -15 6 -3 0.14 0.02
 9 -15 -3 0.11 0.05
 -15 7 -3 0.05 -0.02
 8 -15 -3 0.02 0.07
 -7 -8 3 0.02 0.02
 7 -15 -3 -0.04 0.05
 -15 8 -3 -0.02 -0.05
 -8 -7 3 -0.03 -0.02
 -15 9 -3 -0.11 -0.04
 6 -15 -3 -0.13 0.01
 -9 -6 3 -0.11 -0.03
 5 -15 -3 -0.28 -0.01
 -15 10 -3 -0.27 0.00
 -10 -5 3 -0.26 0.00
 -15 11 -3 -0.49 0.05
 4 -15 -3 -0.49 0.01
 -11 -4 3 -0.47 0.05
 -15 12 -3 -0.70 0.07
 -12 -3 3 -0.69 0.08
 -15 13 -3 -0.82 0.07
 -13 -2 3 -0.82 0.08
 -15 14 -3 -0.80 0.03
 -14 -1 3 -0.80 0.03
 -16 4 -3 0.63 -0.02
 12 -16 -3 0.63 -0.07
 -16 5 -3 0.50 -0.01
 11 -16 -3 0.49 -0.05
 10 -16 -3 0.32 0.00
 -16 6 -3 0.34 0.00
 -16 7 -3 0.17 -0.01
 9 -16 -3 0.15 0.04
 -16 9 -3 -0.15 -0.02
 7 -16 -3 -0.16 0.03
 -9 -7 3 -0.15 0.00
 -16 10 -3 -0.31 0.01
 6 -16 -3 -0.33 0.02
 -10 -6 3 -0.32 0.02
 5 -16 -3 -0.50 0.01
 -16 11 -3 -0.49 0.05
 -11 -5 3 -0.49 0.05
 -16 12 -3 -0.64 0.07
 -12 -4 3 -0.63 0.07
 0 0 -4 15.67 0.01
 0 0 -4 15.67 0.01
 0 1 -4 14.51 0.00
 1 -1 -4 14.50 0.00
 -1 0 -4 14.52 0.03
 -1 1 -4 14.50 0.02
 0 -1 -4 14.52 0.03
 0 -1 -4 14.52 0.03
 1 0 -4 14.51 -0.01
 -1 2 -4 12.44 0.01
 -1 -1 -4 12.48 0.03
 2 -1 -4 12.44 -0.01
 -1 -1 -4 12.48 0.03
 -2 -1 -4 9.29 0.01
 3 -2 -4 9.21 -0.02
 -2 0 -4 11.57 0.02
 2 -2 -4 11.51 -0.01
 1 -2 -4 12.44 0.01
 -2 1 -4 12.44 0.02
 1 1 -4 12.47 -0.01
 1 1 -4 12.47 -0.01
 2 0 -4 11.56 -0.01
 -2 2 -4 11.51 0.02
 -1 -2 -4 9.29 0.02
 3 -1 -4 9.25 -0.01
 -2 3 -4 9.20 0.02
 4 -2 -4 6.54 0.00
 -2 -2 -4 6.62 -0.01
 -4 2 4 6.54 0.00
 -3 -2 -4 4.47 -0.02
 -2 5 -4 4.42 0.00
 -5 3 4 4.37 0.00
 -3 -1 -4 6.20 -0.03
 -1 4 -4 6.17 0.01
 4 -3 -4 6.07 -0.02
 -4 3 4 6.07 0.02
 2 -3 -4 9.21 0.00
 -3 1 -4 9.26 0.00
 -1 -2 4 9.28 -0.01
 -2 3 4 9.21 0.00
 2 1 -4 9.28 0.01
 -3 2 -4 9.22 0.01
 -1 3 4 9.25 -0.02
 -3 3 -4 7.95 0.02
 3 0 -4 8.05 0.01
 -1 -3 -4 6.20 0.00
 -1 -3 -4 6.20 0.00
 4 -1 -4 6.17 0.02
 -3 4 -4 6.07 0.01
 -3 5 -4 4.36 0.00
 -2 -3 -4 4.47 -0.01
 -5 2 4 4.42 -0.02
 -3 -3 -4 3.32 -0.01
 -3 6 -4 3.26 -0.02
 -6 3 4 3.26 -0.02
 -4 -3 -4 2.73 0.02
 -3 7 -4 2.70 -0.03
 -7 4 4 2.65 -0.01
 -2 6 -4 3.20 -0.01
 -4 -2 -4 3.22 -0.02
 -6 4 4 3.10 -0.01
 -4 -1 -4 4.05 -0.04
 -1 5 -4 4.04 0.02
 -5 4 4 3.90 0.01
 0 4 -4 5.17 0.02
 -4 0 -4 5.17 -0.05
 4 -4 -4 5.02 -0.02
 -4 4 4 5.02 0.02
 1 3 -4 6.19 0.02
 3 -4 -4 6.07 -0.01
 -3 4 4 6.07 0.01
 -1 -3 4 6.19 -0.02
 2 -4 -4 6.54 0.01
 3 1 -4 6.19 0.02
 1 -4 -4 6.18 0.01
 -4 3 -4 6.08 0.00
 -1 4 4 6.18 -0.01
 4 0 -4 5.17 0.03
 -4 4 -4 5.02 0.01
 0 -4 -4 5.18 0.00
 -1 -4 -4 4.06 -0.02
 -5 1 4 4.04 -0.03
 -2 -4 -4 3.22 -0.01
 -2 -4 -4 3.22 -0.01
 -4 6 -4 3.10 -0.01
 -6 2 4 3.19 -0.02
 -3 -4 -4 2.73 0.02
 -4 7 -4 2.65 -0.03
 -7 3 4 2.69 -0.01
 -4 8 -4 2.32 -0.04
 -4 -4 -4 2.36 0.05
 -8 4 4 2.31 0.00
 -4 9 -4 1.87 -0.04
 -9 5 4 1.84 0.01
 -3 8 -4 2.34 -0.03
 -8 5 4 2.27 -0.01
 -2 7 -4 2.65 -0.01
 -7 5 4 2.54 -0.02
 -1 6 -4 2.98 0.02
 -6 5 4 2.82 -0.01
 0 5 -4 3.47 0.03
 5 -5 -4 3.30 -0.01
 -5 0 -4 3.46 -0.06
 -5 5 4 3.30 0.01
 1 4 -4 4.05 0.03
 4 -5 -4 3.90 -0.01
 -5 1 -4 4.04 -0.05
 -4 5 4 3.90 0.01
 -5 2 -4 4.43 -0.03
 3 -5 -4 4.37 0.00
 -3 5 4 4.37 0.00
 2 -5 -4 4.43 0.01
 -5 3 -4 4.37 -0.01
 3 2 -4 4.46 0.02
 -2 5 4 4.43 -0.01
 -5 4 -4 3.91 0.00
 1 -5 -4 4.05 0.00
 4 1 -4 4.05 0.03
 -5 5 -4 3.30 0.00
 0 -5 -4 3.47 -0.03
 -1 -5 -4 2.98 -0.03
 -5 6 -4 2.83 -0.01
 -2 -5 -4 2.65 -0.01
 -2 -5 -4 2.65 -0.01
 -5 7 -4 2.54 -0.02
 -7 2 4 2.65 -0.01
 -3 -5 -4 2.34 0.04
 -5 8 -4 2.27 -0.03
 -8 3 4 2.34 0.01
 -4 -5 -4 1.87 0.07
 -5 9 -4 1.84 -0.03
 -9 4 4 1.87 0.02
 -5 10 -4 1.23 -0.02
 -10 5 4 1.24 0.03
 -5 11 -4 0.60 -0.01
 -11 6 4 0.59 0.03
 -6 -4 -4 1.23 0.04
 -4 10 -4 1.29 -0.02
 -10 6 4 1.24 0.02
 -3 9 -4 1.92 -0.02
 -6 -3 -4 1.89 0.03
 -9 6 4 1.84 -0.01
 -6 -2 -4 2.32 0.00
 -2 8 -4 2.34 0.00
 -8 6 4 2.23 -0.03
 -6 -1 -4 2.55 -0.03
 -1 7 -4 2.56 0.03
 -7 6 4 2.43 -0.03
 0 6 -4 2.74 0.04
 -6 0 -4 2.73 -0.05
 -6 6 4 2.59 -0.01
 -6 1 -4 2.97 -0.04
 1 5 -4 2.98 0.03
 5 -6 -4 2.83 0.00
 -5 6 4 2.83 0.00
 -6 2 -4 3.20 -0.03
 -4 6 4 3.11 -0.01
 3 -6 -4 3.27 0.02
 -6 3 -4 3.26 -0.01
 -3 6 4 3.27 -0.02
 2 -6 -4 3.21 0.01
 -6 4 -4 3.11 -0.01
 4 2 -4 3.22 0.00
 -2 6 4 3.21 -0.01
 1 -6 -4 2.98 -0.02
 -6 5 -4 2.83 -0.01
 -6 6 -4 2.59 -0.01
 0 -6 -4 2.74 -0.05
 -6 0 4 2.74 -0.02
 -1 -6 -4 2.55 -0.04
 -6 7 -4 2.44 -0.01
 -7 1 4 2.56 -0.02
 -2 -6 -4 2.31 0.00
 -6 8 -4 2.24 -0.01
 -6 9 -4 1.85 0.00
 -9 3 4 1.93 0.01
 -6 10 -4 1.24 0.01
 -10 4 4 1.30 0.02
 -6 11 -4 0.58 0.01
 -11 5 4 0.61 0.02
 -6 12 -4 0.05 0.01
 -12 6 4 0.06 0.02
 -6 13 -4 -0.27 0.00
 -13 7 4 -0.26 0.02
 -5 12 -4 0.11 0.00
 -12 7 4 0.09 0.03
 -4 11 -4 0.70 0.00
 -11 7 4 0.65 0.02
 -7 -3 -4 1.29 0.01
 -3 10 -4 1.38 -0.01
 -10 7 4 1.30 0.00
 -7 -2 -4 1.90 0.00
 -2 9 -4 1.95 0.01
 -9 7 4 1.86 -0.03
 -7 -1 -4 2.27 -0.03
 -1 8 -4 2.30 0.03
 -8 7 4 2.21 -0.04
 1 -8 4 2.30 -0.03
 0 7 -4 2.46 0.04
 -7 0 -4 2.45 -0.04
 0 -7 4 2.46 -0.04
 -7 7 4 2.36 -0.03
 -7 1 -4 2.56 -0.04
 6 -7 -4 2.44 0.01
 -6 7 4 2.44 -0.01
 5 -7 -4 2.55 0.01
 -7 2 -4 2.65 -0.02
 -5 7 4 2.55 -0.01
 -7 3 -4 2.70 0.00
 4 -7 -4 2.66 0.02
 -4 7 4 2.66 -0.02
 -7 4 -4 2.66 0.00
 3 -7 -4 2.71 0.02
 -3 7 4 2.71 -0.02
 -7 5 -4 2.54 -0.01
 2 -7 -4 2.66 -0.01
 -2 7 4 2.66 0.01
 -7 6 -4 2.44 -0.02
 1 -7 -4 2.57 -0.05
 -6 -1 4 2.56 0.00
 -7 7 -4 2.36 -0.02
 0 -7 -4 2.45 -0.06
 -7 0 4 2.46 -0.01
 -7 8 -4 2.22 -0.01
 -1 -7 -4 2.26 -0.04
 -7 9 -4 1.88 0.01
 -2 -7 -4 1.89 0.00
 -9 2 4 1.96 0.00
 -7 10 -4 1.31 0.03
 -10 3 4 1.39 0.00
 -7 11 -4 0.65 0.04
 -11 4 4 0.71 0.00
 -7 12 -4 0.08 0.03
 -12 5 4 0.12 0.01
 -7 13 -4 -0.27 0.01
 -13 6 4 -0.25 0.01
 -7 14 -4 -0.45 -0.01
 -14 7 4 -0.43 0.02
 -7 15 -4 -0.53 -0.03
 -15 8 4 -0.51 0.03
 -6 14 -4 -0.43 -0.01
 -14 8 4 -0.41 0.03
 -5 13 -4 -0.21 0.00
 -13 8 4 -0.21 0.03
 -4 12 -4 0.21 0.01
 -12 8 4 0.17 0.03
 -8 -3 -4 0.68 0.00
 -3 11 -4 0.79 0.01
 -11 8 4 0.74 0.01
 -2 10 -4 1.41 0.01
 -8 -2 -4 1.33 -0.01
 -10 8 4 1.35 -0.02
 -1 9 -4 1.89 0.02
 -8 -1 -4 1.86 -0.03
 1 -9 4 1.89 -0.02
 -9 8 4 1.84 -0.04
 0 8 -4 2.16 0.03
 -8 0 -4 2.16 -0.04
 -8 8 4 2.12 -0.04
 0 -8 4 2.16 -0.03
 -8 1 -4 2.29 -0.04
 -7 8 4 2.22 -0.02
 -8 2 -4 2.34 -0.01
 6 -8 -4 2.25 0.02
 -6 8 4 2.25 -0.02
 -8 3 -4 2.34 0.01
 5 -8 -4 2.28 0.02
 -5 8 4 2.28 -0.02
 4 -8 -4 2.33 0.03
 -8 4 -4 2.32 0.02
 -4 8 4 2.33 -0.03
 3 -8 -4 2.35 0.01
 5 3 -4 2.35 -0.06
 -8 5 -4 2.28 0.01
 -3 8 4 2.35 -0.01
 2 -8 -4 2.34 -0.03
 -2 8 4 2.34 0.03
 1 -8 -4 2.29 -0.06
 -7 -1 4 2.29 -0.01
 0 -8 -4 2.15 -0.06
 -8 8 -4 2.12 -0.02
 -8 0 4 2.18 -0.02
 -1 -8 -4 1.84 -0.03
 -8 9 -4 1.85 0.00
 -9 1 4 1.90 -0.02
 -8 10 -4 1.37 0.03
 -2 -8 -4 1.33 0.00
 -10 2 4 1.42 -0.02
 -8 11 -4 0.75 0.05
 -8 12 -4 0.18 0.05
 -12 4 4 0.22 -0.01
 -8 13 -4 -0.22 0.04
 -13 5 4 -0.20 0.00
 -8 14 -4 -0.42 0.01
 -14 6 4 -0.42 0.01
 -8 15 -4 -0.53 -0.02
 -15 7 4 -0.52 0.03
 -8 16 -4 -0.59 -0.04
 -16 8 4 -0.57 0.03
 -7 16 -4 -0.58 -0.04
 -16 9 4 -0.56 0.03
 -6 15 -4 -0.53 -0.02
 -15 9 4 -0.49 0.03
 -5 14 -4 -0.41 0.00
 -14 9 4 -0.39 0.03
 -4 13 -4 -0.17 0.01
 -13 9 4 -0.17 0.03
 -3 12 -4 0.24 0.01
 -12 9 4 0.22 0.02
 -2 11 -4 0.78 0.00
 -9 -2 -4 0.69 0.00
 -11 9 4 0.75 -0.01
 -1 10 -4 1.30 0.00
 -9 -1 -4 1.26 -0.02
 -10 9 4 1.28 -0.04
 -9 0 -4 1.67 -0.03
 0 9 -4 1.67 0.01
 -9 9 4 1.67 -0.04
 -9 1 -4 1.89 -0.04
 -8 9 4 1.85 -0.03
 7 -9 -4 1.88 0.01
 -9 2 -4 1.95 -0.02
 -7 9 4 1.88 -0.01
 -9 3 -4 1.92 0.01
 6 -9 -4 1.86 0.01
 -6 9 4 1.86 -0.01
 -9 4 -4 1.87 0.02
 5 -9 -4 1.85 0.02
 -5 9 4 1.85 -0.02
 -9 5 -4 1.84 0.02
 4 -9 -4 1.88 0.02
 -4 9 4 1.88 -0.02
 -9 7 -4 1.87 -0.02
 2 -9 -4 1.95 -0.04
 -7 -2 4 1.91 0.00
 1 -9 -4 1.88 -0.06
 -9 8 -4 1.85 -0.03
 -8 -1 4 1.87 -0.03
 0 -9 -4 1.66 -0.04
 -9 9 -4 1.68 -0.01
 -9 0 4 1.69 -0.03
 -9 10 -4 1.30 0.01
 -1 -9 -4 1.25 0.00
 -10 1 4 1.31 -0.03
 -9 11 -4 0.77 0.04
 -2 -9 -4 0.69 0.02
 -11 2 4 0.79 -0.02
 -9 12 -4 0.23 0.05
 -12 3 4 0.25 -0.02
 -9 13 -4 -0.17 0.05
 -13 4 4 -0.17 -0.01
 -9 14 -4 -0.40 0.03
 -14 5 4 -0.41 0.00
 -9 15 -4 -0.51 0.00
 -15 6 4 -0.53 0.01
 -9 16 -4 -0.57 -0.02
 -16 7 4 -0.58 0.02
 -16 10 4 -0.56 0.02
 -5 15 -4 -0.56 0.01
 -15 10 4 -0.52 0.02
 -4 14 -4 -0.47 0.02
 -14 10 4 -0.44 0.02
 -3 13 -4 -0.25 0.01
 -13 10 4 -0.24 0.02
 -2 12 -4 0.12 -0.01
 -10 -2 -4 0.07 0.02
 -12 10 4 0.12 0.00
 -10 -1 -4 0.55 0.02
 -1 11 -4 0.59 -0.03
 -11 10 4 0.59 -0.03
 -10 0 -4 1.00 -0.01
 -10 10 4 1.03 -0.04
 -10 1 -4 1.30 -0.03
 -9 10 4 1.29 -0.03
 8 -10 -4 1.37 0.01
 -10 2 -4 1.41 -0.03
 -8 10 4 1.37 -0.01
 -10 3 -4 1.38 -0.01
 7 -10 -4 1.32 0.00
 -7 10 4 1.32 0.00
 6 -10 -4 1.25 0.00
 -10 4 -4 1.29 0.01
 -6 10 4 1.25 0.00
 5 -10 -4 1.24 0.01
 -10 5 -4 1.24 0.01
 -5 10 4 1.24 -0.01
 4 -10 -4 1.30 0.00
 -10 6 -4 1.25 0.00
 -10 7 -4 1.31 -0.02
 3 -10 -4 1.38 -0.03
 -7 -3 4 1.30 0.00
 2 -10 -4 1.40 -0.05
 -10 8 -4 1.36 -0.03
 -8 -2 4 1.34 -0.03
 1 -10 -4 1.29 -0.04
 -10 9 -4 1.29 -0.02
 -9 -1 4 1.27 -0.04
 0 -10 -4 0.99 0.00
 -10 10 -4 1.03 -0.01
 -10 0 4 1.01 -0.03
 -10 11 -4 0.61 0.02
 -1 -10 -4 0.55 0.03
 -11 1 4 0.59 -0.02
 -10 12 -4 0.15 0.03
 -12 2 4 0.13 -0.01
 -10 13 -4 -0.22 0.04
 -13 3 4 -0.25 -0.01
 -10 14 -4 -0.44 0.04
 -14 4 4 -0.47 -0.01
 -10 15 -4 -0.53 0.02
 -15 5 4 -0.56 0.00
 -16 6 4 -0.59 0.01
 -16 11 4 -0.61 0.01
 -15 11 4 -0.64 0.01
 -3 14 -4 -0.65 0.01
 -14 11 4 -0.61 0.01
 -2 13 -4 -0.48 -0.02
 -13 11 4 -0.44 0.00
 -11 -1 -4 -0.17 0.04
 -12 11 4 -0.12 -0.02
 -11 0 -4 0.24 0.03
 -11 11 4 0.28 -0.03
 -11 1 -4 0.59 0.00
 -10 11 4 0.61 -0.03
 9 -11 -4 0.77 0.01
 -11 2 -4 0.78 -0.02
 -9 11 4 0.77 -0.01
 -11 3 -4 0.79 -0.03
 8 -11 -4 0.75 -0.01
 -8 11 4 0.75 0.01
 -11 4 -4 0.70 -0.02
 7 -11 -4 0.66 -0.02
 -7 11 4 0.66 0.02
 -11 5 -4 0.61 0.00
 6 -11 -4 0.59 -0.01
 -11 6 -4 0.59 0.00
 5 -11 -4 0.61 -0.01
 -11 7 -4 0.65 -0.01
 4 -11 -4 0.70 -0.02
 -7 -4 4 0.58 -0.02
 -11 8 -4 0.74 -0.02
 3 -11 -4 0.79 -0.04
 -8 -3 4 0.68 -0.04
 -11 9 -4 0.75 -0.02
 2 -11 -4 0.77 -0.03
 -9 -2 4 0.70 -0.04
 -11 10 -4 0.60 -0.01
 1 -11 -4 0.58 0.00
 -10 -1 4 0.55 -0.02
 0 -11 -4 0.24 0.04
 -11 11 -4 0.28 0.00
 -11 0 4 0.24 0.00
 -1 -11 -4 -0.16 0.05
 -11 12 -4 -0.10 0.02
 -12 1 4 -0.15 0.01
 -11 13 -4 -0.42 0.02
 -13 2 4 -0.48 0.00
 -11 14 -4 -0.59 0.03
 -14 3 4 -0.65 -0.01
 -11 15 -4 -0.63 0.03
 -15 4 4 -0.68 -0.01
 -11 16 -4 -0.61 0.02
 -16 5 4 -0.63 -0.01
 -15 12 4 -0.83 0.00
 -14 12 4 -0.86 0.00
 -12 -1 -4 -0.77 0.04
 -13 12 4 -0.73 -0.01
 -12 0 -4 -0.49 0.05
 -12 12 4 -0.45 -0.03
 -12 1 -4 -0.15 0.03
 -11 12 4 -0.11 -0.03
 -12 2 -4 0.12 0.00
 10 -12 -4 0.15 0.01
 -10 12 4 0.15 -0.01
 -12 3 -4 0.24 -0.02
 9 -12 -4 0.23 -0.02
 -9 12 4 0.23 0.02
 -12 4 -4 0.20 -0.02
 8 -12 -4 0.18 -0.03
 -8 12 4 0.18 0.03
 7 -12 -4 0.09 -0.02
 -12 5 -4 0.11 -0.02
 6 -12 -4 0.06 -0.01
 -12 6 -4 0.06 -0.01
 5 -12 -4 0.11 -0.02
 -12 7 -4 0.09 -0.02
 -7 -5 4 -0.04 -0.03
 -12 8 -4 0.18 -0.02
 4 -12 -4 0.20 -0.03
 -8 -4 4 0.06 -0.04
 3 -12 -4 0.23 -0.03
 -12 9 -4 0.22 -0.02
 -9 -3 4 0.13 -0.04
 2 -12 -4 0.11 0.00
 -12 10 -4 0.13 -0.02
 -10 -2 4 0.06 -0.02
 1 -12 -4 -0.15 0.04
 -12 11 -4 -0.11 0.00
 -11 -1 4 -0.17 0.01
 0 -12 -4 -0.49 0.07
 -12 12 -4 -0.44 0.00
 -12 0 4 -0.50 0.02
 -12 13 -4 -0.71 0.01
 -13 1 4 -0.78 0.02
 -12 14 -4 -0.84 0.01
 -14 2 4 -0.91 0.00
 -12 15 -4 -0.81 0.02
 -15 3 4 -0.87 -0.02
 -15 13 4 -1.00 -0.01
 -14 13 4 -1.08 -0.01
 -13 0 -4 -1.02 0.05
 -13 13 4 -0.97 -0.02
 -13 1 -4 -0.77 0.05
 -12 13 4 -0.72 -0.02
 11 -13 -4 -0.42 0.01
 -13 2 -4 -0.47 0.03
 -11 13 4 -0.42 -0.01
 10 -13 -4 -0.22 -0.02
 -13 3 -4 -0.25 0.00
 -10 13 4 -0.22 0.02
 -13 4 -4 -0.18 -0.01
 9 -13 -4 -0.16 -0.03
 8 -13 -4 -0.21 -0.03
 -13 5 -4 -0.21 -0.01
 -13 6 -4 -0.26 -0.01
 7 -13 -4 -0.26 -0.02
 -13 7 -4 -0.26 -0.01
 6 -13 -4 -0.26 -0.01
 -7 -6 4 -0.41 -0.04
 -13 8 -4 -0.21 -0.02
 5 -13 -4 -0.21 -0.01
 -8 -5 4 -0.35 -0.04
 -13 9 -4 -0.17 -0.02
 4 -13 -4 -0.18 -0.02
 -9 -4 4 -0.28 -0.03
 3 -13 -4 -0.27 -0.01
 -13 10 -4 -0.23 -0.02
 -10 -3 4 -0.32 -0.02
 -13 11 -4 -0.43 -0.01
 2 -13 -4 -0.48 0.03
 -11 -2 4 -0.50 0.00
 1 -13 -4 -0.78 0.06
 -13 12 -4 -0.72 0.00
 -12 -1 4 -0.78 0.02
 -13 13 -4 -0.96 0.00
 -13 0 4 -1.04 0.03
 -13 14 -4 -1.06 0.01
 -14 1 4 -1.14 0.01
 -13 15 -4 -0.98 0.01
 -15 2 4 -1.05 -0.01
 -14 14 4 -1.16 -0.02
 13 -14 -4 -1.07 0.02
 -14 1 -4 -1.13 0.03
 -13 14 4 -1.07 -0.02
 -14 2 -4 -0.90 0.03
 12 -14 -4 -0.84 0.01
 -12 14 4 -0.84 -0.01
 -14 3 -4 -0.65 0.01
 11 -14 -4 -0.59 -0.01
 -14 4 -4 -0.47 0.01
 10 -14 -4 -0.43 -0.03
 -14 5 -4 -0.42 0.01
 9 -14 -4 -0.39 -0.03
 -14 6 -4 -0.43 0.02
 8 -14 -4 -0.41 -0.02
 -14 7 -4 -0.44 0.01
 7 -14 -4 -0.44 0.00
 -7 -7 4 -0.54 -0.03
 6 -14 -4 -0.43 0.01
 -14 8 -4 -0.42 0.00
 -8 -6 4 -0.51 -0.02
 -14 9 -4 -0.39 -0.02
 5 -14 -4 -0.42 0.00
 -9 -5 4 -0.48 -0.02
 -14 10 -4 -0.44 -0.03
 4 -14 -4 -0.49 -0.01
 -10 -4 4 -0.51 -0.02
 -14 11 -4 -0.60 -0.02
 3 -14 -4 -0.66 0.01
 -11 -3 4 -0.65 0.00
 2 -14 -4 -0.91 0.04
 -14 12 -4 -0.85 -0.01
 -12 -2 4 -0.89 0.01
 -14 13 -4 -1.06 0.00
 -13 -1 4 -1.11 0.02
 -14 14 -4 -1.14 0.00
 -14 0 4 -1.21 0.01
 -15 2 -4 -1.04 0.01
 13 -15 -4 -0.99 0.00
 -15 3 -4 -0.86 0.00
 12 -15 -4 -0.81 -0.01
 -15 4 -4 -0.67 0.01
 11 -15 -4 -0.63 -0.03
 -15 5 -4 -0.56 0.02
 10 -15 -4 -0.52 -0.03
 -15 6 -4 -0.53 0.04
 9 -15 -4 -0.50 -0.02
 8 -15 -4 -0.52 0.01
 -15 7 -4 -0.53 0.04
 -7 -8 4 -0.53 -0.02
 7 -15 -4 -0.53 0.02
 -15 8 -4 -0.52 0.03
 -8 -7 4 -0.53 -0.01
 -15 9 -4 -0.50 0.00
 6 -15 -4 -0.54 0.02
 -9 -6 4 -0.52 0.00
 5 -15 -4 -0.58 0.00
 -15 10 -4 -0.53 -0.02
 -10 -5 4 -0.55 -0.01
 -15 11 -4 -0.64 -0.03
 4 -15 -4 -0.69 0.00
 -11 -4 4 -0.65 -0.01
 -15 12 -4 -0.82 -0.03
 -12 -3 4 -0.82 0.00
 -15 13 -4 -0.99 -0.02
 -13 -2 4 -1.00 0.00
 11 -16 -4 -0.60 -0.03
 -16 5 -4 -0.62 0.01
 10 -16 -4 -0.56 -0.02
 -16 6 -4 -0.59 0.04
 9 -16 -4 -0.56 0.00
 -16 7 -4 -0.58 0.06
 8 -16 -4 -0.58 0.03
 -16 8 -4 -0.58 0.05
 -8 -8 4 -0.50 0.01
 7 -16 -4 -0.59 0.03
 -16 9 -4 -0.57 0.03
 -9 -7 4 -0.50 0.01
 -16 10 -4 -0.57 0.00
 6 -16 -4 -0.60 0.01
 -10 -6 4 -0.51 0.00
 -16 11 -4 -0.62 -0.02
 5 -16 -4 -0.64 0.00
 -11 -5 4 -0.56 -0.01
 1 -1 -5 -0.04 -0.01
 -1 0 -5 -0.05 0.01
 1 0 -5 0.04 -0.03
 -1 1 -5 0.03 -0.02
 0 -1 -5 0.04 0.01
 -2 -1 -5 -0.29 0.06
 -1 3 -5 -0.29 -0.06
 -2 0 -5 -0.28 0.04
 0 2 -5 -0.27 -0.05
 0 -2 -5 0.27 0.03
 2 0 -5 0.27 -0.02
 3 -1 -5 0.29 -0.01
 -1 -2 -5 0.29 0.06
 -2 3 -5 0.29 -0.05
 -1 -2 -5 0.29 0.06
 5 -3 -5 -0.43 0.01
 -2 5 -5 -0.41 -0.08
 -3 -2 -5 -0.41 0.05
 -5 3 5 -0.43 -0.01
 -3 -1 -5 -0.73 0.06
 4 -3 -5 -0.74 0.00
 -4 3 5 -0.74 0.00
 3 -3 -5 -0.71 -0.01
 -3 0 -5 -0.70 0.06
 0 3 -5 -0.70 -0.05
 -3 3 5 -0.71 0.01
 1 2 -5 -0.29 -0.04
 2 -3 -5 -0.29 0.00
 1 -3 -5 0.29 0.02
 -3 2 -5 0.29 0.02
 2 1 -5 0.29 -0.03
 3 0 -5 0.70 -0.02
 -3 3 -5 0.70 -0.02
 0 -3 -5 0.70 0.05
 -3 4 -5 0.74 -0.06
 4 -1 -5 0.73 0.00
 -1 -3 -5 0.73 0.07
 -1 -3 -5 0.73 0.07
 5 -2 -5 0.41 0.01
 -2 -3 -5 0.42 0.06
 -5 2 5 0.41 -0.01
 -3 7 -5 -0.23 -0.01
 -4 -3 -5 -0.22 -0.05
 -7 4 5 -0.22 -0.02
 6 -4 -5 -0.68 0.01
 -4 -2 -5 -0.66 -0.01
 -2 6 -5 -0.67 -0.03
 -6 4 5 -0.68 -0.01
 -4 -1 -5 -1.06 0.03
 5 -4 -5 -1.08 0.00
 -1 5 -5 -1.06 -0.04
 -5 4 5 -1.08 0.00
 0 4 -5 -1.12 -0.04
 4 -4 -5 -1.15 -0.01
 -4 4 5 -1.15 0.01
 -4 1 -5 -0.73 0.06
 3 -4 -5 -0.74 -0.02
 -1 -3 5 -0.73 0.03
 -3 4 5 -0.74 0.02
 3 1 -5 0.73 -0.03
 -4 3 -5 0.74 0.02
 -1 4 5 0.73 -0.02
 0 -4 -5 1.13 0.05
 4 0 -5 1.13 -0.02
 -4 4 -5 1.14 -0.02
 5 -1 -5 1.07 0.00
 -1 -4 -5 1.06 0.07
 -4 5 -5 1.07 -0.07
 -2 -4 -5 0.67 0.05
 -4 6 -5 0.67 -0.10
 -2 -4 -5 0.67 0.05
 -6 2 5 0.67 -0.01
 -4 7 -5 0.22 -0.08
 -3 -4 -5 0.22 0.00
 -7 3 5 0.23 -0.01
 -4 9 -5 0.10 0.15
 -9 5 5 0.15 -0.07
 -5 -3 -5 -0.09 -0.17
 -3 8 -5 -0.10 0.12
 -8 5 5 -0.08 -0.05
 -2 7 -5 -0.55 0.07
 -7 5 5 -0.55 -0.03
 -1 6 -5 -1.03 0.02
 -5 -1 -5 -1.03 -0.03
 6 -5 -5 -1.05 0.00
 -6 5 5 -1.05 0.00
 5 -5 -5 -1.30 -0.02
 -5 0 -5 -1.27 0.02
 0 5 -5 -1.27 0.01
 -5 5 5 -1.30 0.02
 1 4 -5 -1.06 0.00
 -5 1 -5 -1.06 0.04
 4 -5 -5 -1.08 -0.04
 -4 5 5 -1.08 0.04
 -1 -4 5 -1.06 0.00
 3 -5 -5 -0.43 -0.03
 -5 2 -5 -0.41 0.05
 -3 5 5 -0.43 0.03
 -5 3 -5 0.43 0.05
 3 2 -5 0.42 -0.03
 -2 5 5 0.41 0.00
 1 -5 -5 1.06 0.04
 -5 4 -5 1.08 0.03
 4 1 -5 1.07 -0.03
 -5 5 -5 1.29 -0.02
 5 0 -5 1.28 -0.02
 0 -5 -5 1.28 0.06
 -5 6 -5 1.04 -0.07
 -1 -5 -5 1.04 0.07
 -6 1 5 1.04 0.01
 -5 7 -5 0.55 -0.11
 -2 -5 -5 0.54 0.04
 -7 2 5 0.56 0.00
 -5 8 -5 0.08 -0.09
 -8 3 5 0.11 -0.01
 -5 9 -5 -0.14 -0.01
 -9 4 5 -0.10 -0.03
 -5 11 -5 0.37 0.27
 -11 6 5 0.43 -0.17
 -4 10 -5 0.53 0.32
 -10 6 5 0.59 -0.14
 -6 -3 -5 0.40 -0.33
 -3 9 -5 0.39 0.29
 -9 6 5 0.43 -0.10
 -2 8 -5 -0.02 0.21
 -6 -2 -5 -0.01 -0.22
 -8 6 5 -0.01 -0.05
 -6 -1 -5 -0.54 -0.12
 7 -6 -5 -0.56 0.01
 -1 7 -5 -0.55 0.13
 -7 6 5 -0.56 -0.01
 6 -6 -5 -0.98 -0.03
 0 6 -5 -0.96 0.09
 -6 0 -5 -0.96 -0.05
 -6 6 5 -0.98 0.03
 5 -6 -5 -1.05 -0.06
 -6 1 -5 -1.03 0.00
 1 5 -5 -1.03 0.06
 -5 6 5 -1.05 0.06
 4 -6 -5 -0.68 -0.06
 -6 2 -5 -0.66 0.03
 -4 6 5 -0.68 0.06
 2 -6 -5 0.67 0.03
 4 2 -5 0.67 -0.04
 -6 4 -5 0.68 0.06
 -2 6 5 0.67 -0.03
 1 -6 -5 1.04 0.07
 5 1 -5 1.04 -0.05
 -6 5 -5 1.05 0.04
 0 -6 -5 0.97 0.08
 -1 -6 -5 0.55 0.08
 -6 7 -5 0.55 -0.07
 -7 1 5 0.56 0.02
 -2 -6 -5 0.00 0.05
 -6 8 -5 0.00 -0.12
 -8 2 5 0.02 0.01
 -6 9 -5 -0.43 -0.13
 -9 3 5 -0.40 0.00
 -6 10 -5 -0.59 -0.07
 -10 4 5 -0.54 -0.02
 -6 11 -5 -0.44 0.03
 -11 5 5 -0.38 -0.08
 -6 13 -5 0.44 0.22
 -13 7 5 0.50 -0.21
 -5 12 -5 0.89 0.38
 -12 7 5 0.95 -0.24
 -4 11 -5 1.15 0.46
 -11 7 5 1.20 -0.22
 -7 -3 -5 1.12 -0.47
 -3 10 -5 1.12 0.45
 -10 7 5 1.16 -0.16
 -7 -2 -5 0.81 -0.36
 -2 9 -5 0.80 0.36
 -9 7 5 0.82 -0.09
 -7 -1 -5 0.30 -0.24
 -1 8 -5 0.30 0.26
 -8 7 5 0.30 -0.03
 7 -7 -5 -0.23 -0.03
 0 7 -5 -0.22 0.19
 -7 0 -5 -0.22 -0.14
 0 -7 5 -0.22 -0.19
 -7 7 5 -0.23 0.03
 6 -7 -5 -0.56 -0.07
 -7 1 -5 -0.55 -0.08
 -6 7 5 -0.56 0.07
 -7 2 -5 -0.55 -0.04
 -5 7 5 -0.55 0.08
 -7 3 -5 -0.23 0.01
 4 -7 -5 -0.23 -0.04
 -4 7 5 -0.23 0.04
 -7 4 -5 0.23 0.07
 3 -7 -5 0.23 0.03
 -3 7 5 0.23 -0.03
 5 2 -5 0.54 -0.07
 2 -7 -5 0.56 0.09
 -7 5 -5 0.55 0.09
 -2 7 5 0.56 -0.09
 6 1 -5 0.55 -0.08
 1 -7 -5 0.56 0.12
 -7 6 -5 0.56 0.08
 0 -7 -5 0.23 0.11
 -7 7 -5 0.22 0.01
 -7 0 5 0.22 0.06
 -7 8 -5 -0.31 -0.08
 -8 1 5 -0.30 0.04
 -2 -7 -5 -0.83 0.07
 -7 9 -5 -0.82 -0.15
 -9 2 5 -0.81 0.03
 -7 10 -5 -1.16 -0.18
 -10 3 5 -1.14 0.03
 -7 11 -5 -1.20 -0.15
 -11 4 5 -1.17 0.00
 -7 12 -5 -0.96 -0.09
 -12 5 5 -0.91 -0.05
 -7 13 -5 -0.51 -0.01
 -13 6 5 -0.46 -0.12
 -7 15 -5 0.31 0.10
 -15 8 5 0.35 -0.14
 -6 14 -5 0.80 0.25
 -14 8 5 0.85 -0.22
 -5 13 -5 1.33 0.42
 -13 8 5 1.38 -0.27
 -4 12 -5 1.72 0.53
 -12 8 5 1.76 -0.26
 -3 11 -5 1.86 0.55
 -11 8 5 1.89 -0.21
 -2 10 -5 1.70 0.48
 -8 -2 -5 1.69 -0.46
 -10 8 5 1.71 -0.13
 -8 -1 -5 1.31 -0.35
 -1 9 -5 1.31 0.38
 -9 8 5 1.31 -0.05
 -8 0 -5 0.79 -0.25
 0 8 -5 0.79 0.31
 8 -8 -5 0.78 -0.03
 -8 8 5 0.78 0.03
 -8 1 -5 0.30 -0.19
 7 -8 -5 0.30 -0.08
 -7 8 5 0.30 0.08
 6 -8 -5 -0.01 -0.10
 -8 2 -5 -0.02 -0.14
 -6 8 5 -0.01 0.10
 -8 3 -5 -0.10 -0.07
 5 -8 -5 -0.08 -0.06
 -5 8 5 -0.08 0.06
 -8 5 -5 0.08 0.12
 3 -8 -5 0.11 0.13
 -3 8 5 0.11 -0.13
 6 2 -5 0.00 -0.14
 2 -8 -5 0.04 0.19
 -8 6 -5 0.01 0.16
 1 -8 -5 -0.28 0.19
 -8 7 -5 -0.30 0.13
 -7 -1 5 -0.31 0.14
 0 -8 -5 -0.78 0.15
 -8 8 -5 -0.79 0.04
 -8 0 5 -0.80 0.10
 -1 -8 -5 -1.32 0.11
 -8 9 -5 -1.31 -0.08
 -9 1 5 -1.32 0.07
 -8 10 -5 -1.72 -0.17
 -2 -8 -5 -1.73 0.09
 -10 2 5 -1.73 0.06
 -8 11 -5 -1.89 -0.23
 -11 3 5 -1.89 0.06
 -8 12 -5 -1.77 -0.22
 -12 4 5 -1.75 0.04
 -8 13 -5 -1.39 -0.18
 -13 5 5 -1.36 -0.01
 -8 14 -5 -0.86 -0.11
 -14 6 5 -0.82 -0.06
 -8 15 -5 -0.35 -0.04
 -15 7 5 -0.32 -0.08
 -7 16 -5 0.42 0.11
 -16 9 5 0.44 -0.09
 -6 15 -5 0.90 0.23
 -15 9 5 0.95 -0.17
 -5 14 -5 1.50 0.37
 -14 9 5 1.54 -0.23
 -4 13 -5 2.03 0.50
 -13 9 5 2.06 -0.25
 -3 12 -5 2.37 0.55
 -12 9 5 2.38 -0.22
 -9 -2 -5 2.40 -0.47
 -2 11 -5 2.43 0.51
 -11 9 5 2.43 -0.15
 -9 -1 -5 2.21 -0.41
 -1 10 -5 2.22 0.44
 -10 9 5 2.21 -0.06
 9 -9 -5 1.80 -0.03
 0 9 -5 1.82 0.38
 -9 0 -5 1.82 -0.34
 -9 9 5 1.80 0.03
 -9 1 -5 1.32 -0.30
 8 -9 -5 1.30 -0.10
 -8 9 5 1.30 0.10
 7 -9 -5 0.82 -0.13
 -9 2 -5 0.81 -0.26
 -7 9 5 0.82 0.13
 6 -9 -5 0.43 -0.09
 -9 3 -5 0.40 -0.18
 -6 9 5 0.43 0.09
 5 -9 -5 0.15 0.01
 -9 4 -5 0.11 -0.05
 -5 9 5 0.15 -0.01
 4 -9 -5 -0.08 0.15
 -9 5 -5 -0.13 0.10
 -9 6 -5 -0.42 0.21
 3 -9 -5 -0.38 0.26
 2 -9 -5 -0.78 0.29
 -9 7 -5 -0.82 0.24
 -7 -2 5 -0.83 0.22
 -9 8 -5 -1.31 0.18
 1 -9 -5 -1.29 0.25
 -8 -1 5 -1.33 0.20
 -9 9 -5 -1.81 0.06
 0 -9 -5 -1.81 0.17
 -9 0 5 -1.84 0.14
 -1 -9 -5 -2.23 0.11
 -9 10 -5 -2.21 -0.08
 -10 1 5 -2.25 0.10
 -9 11 -5 -2.42 -0.19
 -2 -9 -5 -2.45 0.09
 -11 2 5 -2.46 0.09
 -9 12 -5 -2.38 -0.24
 -12 3 5 -2.40 0.08
 -9 13 -5 -2.07 -0.24
 -13 4 5 -2.06 0.05
 -9 14 -5 -1.55 -0.20
 -14 5 5 -1.52 0.01
 -9 15 -5 -0.95 -0.14
 -15 6 5 -0.92 -0.02
 -9 16 -5 -0.44 -0.07
 -16 7 5 -0.42 -0.03
 -6 16 -5 0.76 0.17
 -16 10 5 0.79 -0.10
 -5 15 -5 1.34 0.28
 -15 10 5 1.38 -0.16
 -4 14 -5 1.96 0.38
 -14 10 5 1.99 -0.19
 -3 13 -5 2.47 0.45
 -13 10 5 2.47 -0.18
 -2 12 -5 2.76 0.45
 -12 10 5 2.75 -0.13
 -10 -1 -5 2.78 -0.38
 -1 11 -5 2.80 0.42
 -11 10 5 2.78 -0.05
 10 -10 -5 2.58 -0.03
 -10 0 -5 2.60 -0.37
 -10 10 5 2.58 0.03
 -10 1 -5 2.23 -0.37
 9 -10 -5 2.21 -0.10
 -9 10 5 2.21 0.10
 8 -10 -5 1.71 -0.15
 -10 2 -5 1.72 -0.37
 -8 10 5 1.71 0.15
 -10 3 -5 1.14 -0.31
 7 -10 -5 1.16 -0.14
 -7 10 5 1.16 0.14
 6 -10 -5 0.60 -0.04
 -10 4 -5 0.55 -0.17
 -6 10 5 0.60 0.04
 -10 6 -5 -0.58 0.22
 4 -10 -5 -0.51 0.29
 -10 7 -5 -1.15 0.33
 3 -10 -5 -1.10 0.38
 -7 -3 5 -1.16 0.28
 2 -10 -5 -1.68 0.36
 -10 8 -5 -1.71 0.32
 -8 -2 5 -1.73 0.30
 1 -10 -5 -2.21 0.27
 -10 9 -5 -2.21 0.22
 -9 -1 5 -2.24 0.24
 -10 10 -5 -2.58 0.07
 0 -10 -5 -2.61 0.16
 -10 0 5 -2.63 0.16
 -1 -10 -5 -2.81 0.09
 -10 11 -5 -2.78 -0.07
 -11 1 5 -2.82 0.11
 -10 12 -5 -2.74 -0.17
 -12 2 5 -2.79 0.09
 -10 13 -5 -2.47 -0.22
 -13 3 5 -2.49 0.07
 -10 14 -5 -1.99 -0.21
 -14 4 5 -1.98 0.05
 -10 15 -5 -1.38 -0.17
 -15 5 5 -1.36 0.02
 -10 16 -5 -0.79 -0.11
 -16 6 5 -0.77 0.00
 -4 15 -5 1.55 0.24
 -15 11 5 1.57 -0.12
 -3 14 -5 2.14 0.30
 -14 11 5 2.14 -0.12
 -2 13 -5 2.61 0.33
 -13 11 5 2.59 -0.09
 -11 -1 -5 2.86 -0.27
 -12 11 5 2.86 -0.03
 -11 0 -5 2.95 -0.31
 11 -11 -5 2.92 -0.03
 -11 11 5 2.92 0.03
 10 -11 -5 2.77 -0.10
 -11 1 -5 2.81 -0.37
 -10 11 5 2.77 0.10
 -11 2 -5 2.44 -0.42
 9 -11 -5 2.42 -0.16
 -9 11 5 2.42 0.16
 8 -11 -5 1.88 -0.18
 -11 3 -5 1.88 -0.41
 -8 11 5 1.88 0.18
 7 -11 -5 1.21 -0.11
 -11 4 -5 1.17 -0.30
 6 -11 -5 0.45 0.05
 -11 5 -5 0.39 -0.08
 -11 6 -5 -0.42 0.16
 5 -11 -5 -0.34 0.25
 -11 7 -5 -1.19 0.35
 4 -11 -5 -1.12 0.40
 -11 8 -5 -1.87 0.42
 3 -11 -5 -1.83 0.45
 -8 -3 5 -1.89 0.36
 2 -11 -5 -2.41 0.38
 -11 9 -5 -2.42 0.36
 -9 -2 5 -2.44 0.33
 1 -11 -5 -2.79 0.24
 -11 10 -5 -2.77 0.22
 -10 -1 5 -2.81 0.23
 0 -11 -5 -2.95 0.12
 -11 11 -5 -2.92 0.06
 -11 0 5 -2.96 0.14
 -1 -11 -5 -2.89 0.05
 -11 12 -5 -2.86 -0.06
 -12 1 5 -2.90 0.09
 -11 13 -5 -2.59 -0.14
 -13 2 5 -2.63 0.06
 -11 14 -5 -2.14 -0.17
 -14 3 5 -2.16 0.04
 -11 15 -5 -1.57 -0.16
 -15 4 5 -1.56 0.02
 -15 12 5 1.53 -0.08
 -14 12 5 2.04 -0.06
 -13 12 5 2.46 -0.01
 -12 0 -5 2.77 -0.19
 12 -12 -5 2.74 -0.04
 -12 12 5 2.74 0.04
 11 -12 -5 2.85 -0.09
 -12 1 -5 2.89 -0.29
 -11 12 5 2.85 0.09
 -12 2 -5 2.77 -0.39
 10 -12 -5 2.74 -0.15
 -10 12 5 2.74 0.15
 -12 3 -5 2.39 -0.44
 9 -12 -5 2.38 -0.19
 8 -12 -5 1.77 -0.17
 -12 4 -5 1.74 -0.38
 -12 5 -5 0.91 -0.20
 7 -12 -5 0.97 -0.05
 5 -12 -5 -0.86 0.34
 -12 7 -5 -0.94 0.30
 -12 8 -5 -1.75 0.44
 4 -12 -5 -1.70 0.45
 -8 -4 5 -1.76 0.34
 3 -12 -5 -2.35 0.44
 -12 9 -5 -2.36 0.44
 -9 -3 5 -2.39 0.37
 -12 10 -5 -2.74 0.33
 2 -12 -5 -2.75 0.32
 -10 -2 5 -2.76 0.29
 1 -12 -5 -2.89 0.18
 -12 11 -5 -2.85 0.18
 -11 -1 5 -2.89 0.17
 0 -12 -5 -2.78 0.07
 -12 12 -5 -2.74 0.04
 -12 0 5 -2.78 0.09
 -1 -12 -5 -2.49 0.02
 -12 13 -5 -2.46 -0.05
 -13 1 5 -2.50 0.04
 -12 14 -5 -2.03 -0.11
 -14 2 5 -2.07 0.02
 -12 15 -5 -1.52 -0.12
 -15 3 5 -1.54 0.01
 -15 13 5 1.31 -0.04
 14 -13 -5 1.75 0.00
 -14 13 5 1.75 0.00
 13 -13 -5 2.15 -0.04
 -13 0 -5 2.18 -0.08
 -13 13 5 2.15 0.04
 -13 1 -5 2.49 -0.17
 12 -13 -5 2.45 -0.08
 -12 13 5 2.45 0.08
 11 -13 -5 2.58 -0.12
 -13 2 -5 2.62 -0.28
 -11 13 5 2.58 0.12
 -13 3 -5 2.48 -0.38
 10 -13 -5 2.47 -0.16
 -13 4 -5 2.05 -0.39
 9 -13 -5 2.07 -0.18
 8 -13 -5 1.39 -0.12
 -13 5 -5 1.35 -0.28
 7 -13 -5 0.53 0.02
 -13 6 -5 0.46 -0.06
 -13 7 -5 -0.49 0.19
 6 -13 -5 -0.42 0.21
 5 -13 -5 -1.30 0.36
 -13 8 -5 -1.37 0.37
 -8 -5 5 -1.37 0.26
 4 -13 -5 -2.01 0.41
 -13 9 -5 -2.05 0.44
 -9 -4 5 -2.06 0.33
 3 -13 -5 -2.45 0.35
 -13 10 -5 -2.46 0.38
 -10 -3 5 -2.48 0.29
 2 -13 -5 -2.60 0.23
 -13 11 -5 -2.58 0.26
 -11 -2 5 -2.60 0.19
 1 -13 -5 -2.49 0.10
 -13 12 -5 -2.45 0.13
 -12 -1 5 -2.48 0.09
 -13 13 -5 -2.15 0.02
 0 -13 -5 -2.19 0.03
 -13 0 5 -2.19 0.04
 -13 14 -5 -1.75 -0.05
 -14 1 5 -1.79 0.01
 -13 15 -5 -1.31 -0.08
 -15 2 5 -1.34 0.00
 14 -14 -5 1.39 -0.03
 -14 14 5 1.39 0.03
 13 -14 -5 1.75 -0.06
 -14 1 -5 1.79 -0.06
 -14 2 -5 2.06 -0.16
 12 -14 -5 2.02 -0.09
 11 -14 -5 2.13 -0.12
 -14 3 -5 2.15 -0.26
 10 -14 -5 1.98 -0.14
 -14 4 -5 1.97 -0.32
 9 -14 -5 1.55 -0.13
 -14 5 -5 1.51 -0.29
 8 -14 -5 0.87 -0.06
 -14 6 -5 0.81 -0.15
 -14 8 -5 -0.84 0.25
 6 -14 -5 -0.78 0.23
 -8 -6 5 -0.84 0.14
 -14 9 -5 -1.53 0.35
 5 -14 -5 -1.48 0.32
 -9 -5 5 -1.53 0.24
 -14 10 -5 -1.97 0.36
 4 -14 -5 -1.94 0.31
 -10 -4 5 -1.98 0.24
 3 -14 -5 -2.13 0.23
 -14 11 -5 -2.13 0.28
 -11 -3 5 -2.14 0.18
 2 -14 -5 -2.06 0.12
 -14 12 -5 -2.03 0.18
 -12 -2 5 -2.04 0.09
 -14 13 -5 -1.75 0.08
 -13 -1 5 -1.78 0.04
 -14 14 -5 -1.39 0.01
 -14 0 5 -1.42 0.01
 -15 2 -5 1.34 -0.05
 13 -15 -5 1.30 -0.07
 12 -15 -5 1.52 -0.08
 -15 3 -5 1.53 -0.13
 -15 4 -5 1.55 -0.21
 11 -15 -5 1.57 -0.09
 -15 5 -5 1.34 -0.23
 10 -15 -5 1.38 -0.10
 9 -15 -5 0.96 -0.08
 -15 6 -5 0.91 -0.17
 -15 7 -5 0.31 -0.04
 8 -15 -5 0.36 0.00
 -7 -8 5 0.33 -0.08
 7 -15 -5 -0.29 0.11
 -15 8 -5 -0.35 0.11
 -8 -7 5 -0.33 0.04
 -15 9 -5 -0.94 0.23
 6 -15 -5 -0.89 0.20
 -9 -6 5 -0.93 0.14
 -15 10 -5 -1.37 0.27
 5 -15 -5 -1.33 0.23
 -10 -5 5 -1.36 0.16
 4 -15 -5 -1.54 0.18
 -15 11 -5 -1.56 0.24
 -11 -4 5 -1.55 0.13
 3 -15 -5 -1.53 0.11
 -15 12 -5 -1.52 0.18
 -12 -3 5 -1.52 0.08
 -15 13 -5 -1.30 0.11
 -13 -2 5 -1.32 0.04
 11 -16 -5 0.99 -0.06
 10 -16 -5 0.80 -0.05
 -16 6 -5 0.76 -0.15
 9 -16 -5 0.45 -0.02
 -16 7 -5 0.42 -0.09
 -7 -9 5 0.42 -0.08
 -16 9 -5 -0.44 0.10
 7 -16 -5 -0.41 0.10
 -9 -7 5 -0.42 0.06
 6 -16 -5 -0.75 0.14
 -16 10 -5 -0.79 0.16
 -10 -6 5 -0.76 0.09
 5 -16 -5 -0.95 0.12
 0 0 -6 -5.40 0.00
 -1 0 -6 -4.74 -0.01
 0 1 -6 -4.74 0.01
 1 -1 -6 -4.74 0.00
 1 0 -6 -4.74 0.01
 0 -1 -6 -4.74 -0.02
 -1 1 -6 -4.74 0.00
 0 -1 -6 -4.74 -0.02
 -1 2 -6 -3.60 0.01
 -1 -1 -6 -3.59 -0.02
 -1 3 -6 -1.92 0.01
 -2 -1 -6 -1.89 0.00
 3 -2 -6 -1.93 0.01
 0 2 -6 -3.10 0.02
 -2 0 -6 -3.11 0.00
 2 -2 -6 -3.12 0.01
 -2 1 -6 -3.61 0.00
 1 1 -6 -3.59 0.02
 1 -2 -6 -3.60 -0.01
 -2 2 -6 -3.12 0.00
 0 -2 -6 -3.10 -0.03
 2 0 -6 -3.11 0.01
 -2 3 -6 -1.92 0.01
 -1 -2 -6 -1.89 -0.02
 -1 -2 -6 -1.89 -0.02
 -2 -2 -6 -0.59 0.00
 -2 4 -6 -0.65 0.01
 4 -2 -6 -0.66 -0.01
 -2 5 -6 0.18 0.02
 5 -3 -6 0.16 -0.01
 -3 -2 -6 0.27 0.02
 -5 3 6 0.16 0.01
 -3 -1 -6 -0.40 0.02
 4 -3 -6 -0.47 0.01
 -1 4 -6 -0.45 0.01
 -4 3 6 -0.47 -0.01
 0 3 -6 -1.29 0.01
 3 -3 -6 -1.31 0.02
 -3 1 -6 -1.93 0.01
 1 2 -6 -1.89 0.01
 2 -3 -6 -1.92 0.01
 1 -3 -6 -1.92 -0.02
 2 1 -6 -1.89 0.00
 -3 2 -6 -1.93 0.00
 -3 3 -6 -1.32 0.00
 0 -3 -6 -1.29 -0.03
 3 0 -6 -1.29 -0.02
 -3 4 -6 -0.46 0.01
 -1 -3 -6 -0.40 -0.02
 5 -2 -6 0.17 -0.04
 -3 5 -6 0.18 0.02
 -2 -3 -6 0.27 0.00
 -5 2 6 0.17 0.04
 -3 6 -6 0.41 0.03
 -3 -3 -6 0.50 0.00
 6 -3 -6 0.40 -0.04
 -6 3 6 0.40 0.04
 -3 7 -6 0.34 0.05
 -4 -3 -6 0.40 -0.01
 7 -4 -6 0.32 -0.03
 -7 4 6 0.32 0.03
 6 -4 -6 0.42 -0.02
 -4 -2 -6 0.53 0.02
 -2 6 -6 0.45 0.03
 -6 4 6 0.42 0.02
 -1 5 -6 0.35 0.01
 5 -4 -6 0.31 0.01
 -5 4 6 0.31 -0.01
 -4 0 -6 0.00 0.04
 4 -4 -6 -0.04 0.03
 -4 4 6 -0.04 -0.03
 3 -4 -6 -0.46 0.02
 1 3 -6 -0.41 -0.01
 -4 1 -6 -0.46 0.03
 -3 4 6 -0.46 -0.02
 2 -4 -6 -0.65 0.00
 -4 2 -6 -0.66 0.01
 -4 3 -6 -0.47 0.00
 3 1 -6 -0.41 -0.02
 1 -4 -6 -0.45 -0.02
 -1 4 6 -0.45 0.02
 4 0 -6 0.00 -0.04
 -4 4 -6 -0.04 0.00
 0 -4 -6 0.00 -0.02
 -4 5 -6 0.32 0.01
 -1 -4 -6 0.40 -0.01
 -4 6 -6 0.43 0.03
 6 -2 -6 0.45 -0.05
 -2 -4 -6 0.53 -0.01
 -6 2 6 0.45 0.05
 -4 7 -6 0.33 0.04
 7 -3 -6 0.34 -0.03
 -7 3 6 0.34 0.03
 8 -4 -6 0.18 -0.02
 -4 8 -6 0.19 0.06
 -8 4 6 0.18 0.02
 -4 9 -6 0.07 0.05
 -9 5 6 0.06 0.00
 -3 8 -6 0.19 0.04
 -5 -3 -6 0.18 -0.01
 8 -5 -6 0.16 -0.02
 -8 5 6 0.16 0.02
 -2 7 -6 0.36 0.02
 7 -5 -6 0.31 -0.02
 -7 5 6 0.31 0.02
 -1 6 -6 0.51 0.00
 -5 -1 -6 0.56 0.04
 6 -5 -6 0.45 0.01
 -6 5 6 0.45 -0.01
 5 -5 -6 0.46 0.03
 0 5 -6 0.53 -0.02
 -5 0 -6 0.53 0.05
 -5 5 6 0.46 -0.03
 4 -5 -6 0.32 0.03
 1 4 -6 0.40 -0.02
 -5 1 -6 0.35 0.03
 -4 5 6 0.32 -0.03
 3 -5 -6 0.18 0.01
 -5 2 -6 0.17 0.01
 -3 5 6 0.18 -0.01
 -5 3 -6 0.16 0.00
 2 -5 -6 0.18 -0.02
 -2 5 6 0.18 0.02
 -5 4 -6 0.31 0.00
 1 -5 -6 0.35 -0.02
 4 1 -6 0.40 -0.03
 -1 5 6 0.35 0.02
 -5 5 -6 0.46 0.00
 5 0 -6 0.53 -0.04
 0 -5 -6 0.53 -0.01
 6 -1 -6 0.52 -0.04
 -1 -5 -6 0.56 -0.01
 -6 1 6 0.52 0.04
 -5 7 -6 0.32 0.03
 7 -2 -6 0.37 -0.03
 -2 -5 -6 0.40 -0.02
 -7 2 6 0.37 0.03
 -5 8 -6 0.17 0.04
 -8 3 6 0.19 0.01
 -5 9 -6 0.06 0.04
 -9 4 6 0.07 0.00
 -5 10 -6 -0.07 0.03
 -10 5 6 -0.08 -0.01
 -5 11 -6 -0.38 0.02
 -11 6 6 -0.38 -0.01
 -4 10 -6 -0.11 0.03
 -10 6 6 -0.11 -0.01
 -3 9 -6 0.03 0.03
 -9 6 6 0.00 0.01
 -6 -2 -6 0.16 0.02
 -2 8 -6 0.17 0.01
 8 -6 -6 0.10 -0.01
 -8 6 6 0.10 0.01
 -6 -1 -6 0.36 0.04
 -1 7 -6 0.34 -0.01
 7 -6 -6 0.26 0.00
 -7 6 6 0.26 0.00
 6 -6 -6 0.40 0.02
 0 6 -6 0.50 -0.03
 -6 0 -6 0.50 0.04
 -6 6 6 0.40 -0.02
 -6 1 -6 0.52 0.03
 5 -6 -6 0.46 0.03
 1 5 -6 0.55 -0.02
 -5 6 6 0.46 -0.03
 -1 -5 6 0.55 0.02
 -6 2 -6 0.45 0.00
 4 -6 -6 0.43 0.02
 -4 6 6 0.43 -0.02
 -6 3 -6 0.40 -0.01
 -3 6 6 0.41 0.01
 4 2 -6 0.53 0.00
 2 -6 -6 0.45 -0.03
 -6 4 -6 0.42 -0.02
 -2 6 6 0.45 0.03
 -6 5 -6 0.45 -0.01
 5 1 -6 0.56 -0.01
 1 -6 -6 0.51 -0.02
 0 -6 -6 0.50 -0.01
 7 -1 -6 0.35 -0.02
 -1 -6 -6 0.36 0.00
 -6 7 -6 0.26 0.01
 -7 1 6 0.35 0.02
 -6 8 -6 0.11 0.02
 -2 -6 -6 0.16 -0.02
 -8 2 6 0.17 0.01
 -6 9 -6 0.01 0.03
 -9 3 6 0.03 0.00
 -6 10 -6 -0.11 0.02
 -10 4 6 -0.11 0.00
 -6 11 -6 -0.37 0.01
 -11 5 6 -0.38 0.00
 -6 12 -6 -0.86 0.00
 -12 6 6 -0.86 0.00
 -6 13 -6 -1.44 0.00
 -13 7 6 -1.44 0.00
 -5 12 -6 -0.89 -0.01
 -12 7 6 -0.88 -0.01
 -4 11 -6 -0.45 0.00
 -11 7 6 -0.45 -0.02
 -3 10 -6 -0.20 0.00
 -10 7 6 -0.21 -0.01
 -2 9 -6 -0.05 -0.01
 -7 -2 -6 -0.08 0.04
 9 -7 -6 -0.11 -0.01
 -9 7 6 -0.11 0.01
 -7 -1 -6 0.09 0.05
 8 -7 -6 0.00 0.00
 -1 8 -6 0.10 -0.03
 -8 7 6 0.00 0.00
 0 7 -6 0.25 -0.04
 7 -7 -6 0.14 0.01
 -7 0 -6 0.25 0.05
 -7 7 6 0.14 -0.01
 6 -7 -6 0.26 0.03
 -7 1 -6 0.35 0.03
 -6 7 6 0.26 -0.03
 -7 2 -6 0.36 -0.01
 -5 7 6 0.32 -0.02
 -7 3 -6 0.34 -0.03
 -4 7 6 0.33 0.01
 3 -7 -6 0.34 -0.03
 -7 4 -6 0.32 -0.04
 -3 7 6 0.34 0.03
 5 2 -6 0.40 0.02
 -7 5 -6 0.31 -0.02
 2 -7 -6 0.36 -0.03
 6 1 -6 0.36 0.00
 -7 6 -6 0.26 -0.01
 1 -7 -6 0.35 -0.01
 7 0 -6 0.25 -0.01
 -7 7 -6 0.14 0.01
 0 -7 -6 0.25 0.00
 -7 0 6 0.25 0.01
 -1 -7 -6 0.09 0.00
 -7 8 -6 0.00 0.01
 -8 1 6 0.10 0.01
 -7 9 -6 -0.10 0.01
 -2 -7 -6 -0.08 -0.01
 -9 2 6 -0.04 0.00
 -7 10 -6 -0.21 0.01
 -10 3 6 -0.19 0.00
 -7 11 -6 -0.44 0.00
 -11 4 6 -0.45 0.01
 -7 12 -6 -0.87 0.00
 -12 5 6 -0.88 0.02
 -7 13 -6 -1.43 0.00
 -13 6 6 -1.44 0.02
 -7 14 -6 -1.89 0.01
 -14 7 6 -1.89 0.02
 -7 15 -6 -2.01 0.01
 -15 8 6 -2.00 0.01
 -6 14 -6 -1.87 -0.01
 -14 8 6 -1.87 0.00
 -5 13 -6 -1.44 -0.02
 -13 8 6 -1.43 -0.02
 -4 12 -6 -0.94 -0.02
 -12 8 6 -0.92 -0.03
 -3 11 -6 -0.55 -0.02
 -11 8 6 -0.55 -0.02
 10 -8 -6 -0.34 0.01
 -2 10 -6 -0.31 -0.02
 -8 -2 -6 -0.35 0.04
 -10 8 6 -0.34 -0.01
 -8 -1 -6 -0.18 0.05
 -1 9 -6 -0.16 -0.03
 9 -8 -6 -0.24 0.00
 -9 8 6 -0.24 0.00
 8 -8 -6 -0.13 0.01
 -8 0 -6 -0.02 0.06
 0 8 -6 -0.03 -0.04
 -8 8 6 -0.13 -0.01
 7 -8 -6 0.00 0.02
 -8 1 -6 0.10 0.04
 -7 8 6 0.00 -0.02
 -8 2 -6 0.17 0.00
 -6 8 6 0.11 -0.02
 -8 3 -6 0.19 -0.04
 5 -8 -6 0.17 0.00
 -5 8 6 0.17 0.00
 4 -8 -6 0.19 -0.03
 -8 4 -6 0.18 -0.05
 -4 8 6 0.19 0.03
 3 -8 -6 0.19 -0.04
 -8 5 -6 0.16 -0.04
 -8 6 -6 0.10 -0.02
 2 -8 -6 0.17 -0.02
 1 -8 -6 0.10 0.00
 -8 7 -6 0.00 0.00
 -7 -1 6 0.09 0.00
 -8 8 -6 -0.12 0.01
 8 0 -6 -0.03 -0.01
 0 -8 -6 -0.02 0.01
 -8 0 6 -0.03 0.01
 -1 -8 -6 -0.18 0.01
 -8 9 -6 -0.23 0.01
 -9 1 6 -0.16 0.01
 -2 -8 -6 -0.36 0.00
 -8 10 -6 -0.34 0.00
 -10 2 6 -0.31 0.01
 -8 11 -6 -0.54 0.00
 -11 3 6 -0.54 0.01
 -8 12 -6 -0.91 -0.01
 -12 4 6 -0.93 0.02
 -8 13 -6 -1.42 0.00
 -13 5 6 -1.42 0.02
 -8 14 -6 -1.86 0.01
 -14 6 6 -1.85 0.02
 -8 15 -6 -2.01 0.02
 -15 7 6 -1.99 0.02
 -8 16 -6 -1.75 0.02
 -16 8 6 -1.74 0.01
 -7 16 -6 -1.71 0.00
 -16 9 6 -1.71 0.01
 -6 15 -6 -1.92 -0.01
 -15 9 6 -1.92 0.00
 -5 14 -6 -1.76 -0.03
 -14 9 6 -1.76 -0.02
 -4 13 -6 -1.37 -0.04
 -13 9 6 -1.36 -0.03
 -3 12 -6 -0.95 -0.03
 -12 9 6 -0.93 -0.04
 -2 11 -6 -0.63 -0.03
 11 -9 -6 -0.63 0.02
 -11 9 6 -0.63 -0.02
 10 -9 -6 -0.46 0.00
 -9 -1 -6 -0.45 0.04
 -1 10 -6 -0.43 -0.02
 -10 9 6 -0.46 0.00
 -9 0 -6 -0.29 0.06
 9 -9 -6 -0.35 0.00
 0 9 -6 -0.29 -0.03
 -9 9 6 -0.35 0.00
 8 -9 -6 -0.23 0.01
 -9 1 -6 -0.15 0.05
 -8 9 6 -0.23 -0.01
 7 -9 -6 -0.10 0.02
 -9 2 -6 -0.04 0.03
 -7 9 6 -0.10 -0.02
 -9 3 -6 0.03 -0.01
 6 -9 -6 0.01 0.01
 -6 9 6 0.01 -0.01
 5 -9 -6 0.06 -0.02
 -9 4 -6 0.06 -0.04
 -9 5 -6 0.05 -0.05
 4 -9 -6 0.07 -0.04
 3 -9 -6 0.03 -0.03
 -9 6 -6 0.00 -0.03
 -9 7 -6 -0.10 -0.01
 2 -9 -6 -0.04 0.00
 1 -9 -6 -0.16 0.01
 -9 8 -6 -0.23 0.00
 -8 -1 6 -0.18 0.02
 -9 9 -6 -0.35 0.00
 0 -9 -6 -0.29 0.02
 -9 0 6 -0.30 0.03
 -9 10 -6 -0.46 0.00
 -1 -9 -6 -0.46 0.01
 -10 1 6 -0.43 0.02
 -9 11 -6 -0.62 0.00
 -11 2 6 -0.62 0.02
 -9 12 -6 -0.92 0.00
 -12 3 6 -0.94 0.02
 -9 13 -6 -1.35 0.00
 -13 4 6 -1.36 0.02
 -9 14 -6 -1.75 0.01
 -14 5 6 -1.74 0.02
 -9 15 -6 -1.92 0.01
 -15 6 6 -1.90 0.01
 -9 16 -6 -1.72 0.02
 -16 7 6 -1.69 0.01
 -5 15 -6 -1.71 -0.04
 -15 10 6 -1.72 -0.01
 -4 14 -6 -1.54 -0.04
 -14 10 6 -1.54 -0.03
 -3 13 -6 -1.21 -0.04
 -13 10 6 -1.19 -0.04
 -2 12 -6 -0.89 -0.02
 12 -10 -6 -0.86 0.03
 -12 10 6 -0.86 -0.03
 -1 11 -6 -0.67 0.00
 11 -10 -6 -0.66 0.01
 -10 -1 -6 -0.69 0.00
 -11 10 6 -0.66 -0.01
 10 -10 -6 -0.55 -0.01
 -10 0 -6 -0.54 0.03
 -10 10 6 -0.55 0.01
 -10 1 -6 -0.42 0.05
 9 -10 -6 -0.46 0.00
 -9 10 6 -0.46 0.00
 -10 2 -6 -0.30 0.05
 8 -10 -6 -0.34 0.01
 -8 10 6 -0.34 -0.01
 -10 3 -6 -0.19 0.03
 7 -10 -6 -0.21 0.01
 -7 10 6 -0.21 -0.01
 -10 4 -6 -0.11 -0.01
 6 -10 -6 -0.11 0.00
 -10 5 -6 -0.08 -0.03
 5 -10 -6 -0.07 -0.02
 4 -10 -6 -0.11 -0.03
 -10 6 -6 -0.12 -0.03
 3 -10 -6 -0.20 -0.01
 -10 7 -6 -0.22 -0.02
 -10 8 -6 -0.34 -0.01
 2 -10 -6 -0.31 0.01
 -8 -2 6 -0.36 0.04
 -10 9 -6 -0.46 0.00
 1 -10 -6 -0.43 0.02
 -9 -1 6 -0.45 0.04
 -10 10 -6 -0.54 0.00
 0 -10 -6 -0.55 0.01
 -10 0 6 -0.55 0.03
 -1 -10 -6 -0.70 0.01
 -10 11 -6 -0.65 0.00
 -11 1 6 -0.67 0.02
 -10 12 -6 -0.86 0.00
 -12 2 6 -0.88 0.01
 -10 13 -6 -1.18 0.01
 -13 3 6 -1.20 0.01
 -10 14 -6 -1.53 0.01
 -14 4 6 -1.53 0.01
 -10 15 -6 -1.71 0.01
 -15 5 6 -1.70 0.01
 -4 15 -6 -1.38 -0.05
 -15 11 6 -1.38 -0.03
 -3 14 -6 -1.20 -0.03
 -14 11 6 -1.18 -0.04
 13 -11 -6 -0.92 0.04
 -2 13 -6 -0.96 -0.01
 -13 11 6 -0.92 -0.04
 12 -11 -6 -0.73 0.01
 -12 11 6 -0.73 -0.01
 -11 0 -6 -0.71 -0.01
 11 -11 -6 -0.67 -0.01
 -11 11 6 -0.67 0.01
 10 -11 -6 -0.65 -0.02
 -11 1 -6 -0.67 0.03
 -10 11 6 -0.65 0.02
 9 -11 -6 -0.62 -0.01
 -11 2 -6 -0.62 0.06
 -9 11 6 -0.62 0.01
 -11 3 -6 -0.54 0.06
 8 -11 -6 -0.54 0.00
 -11 4 -6 -0.45 0.04
 7 -11 -6 -0.43 0.00
 6 -11 -6 -0.37 -0.01
 -11 5 -6 -0.38 0.01
 5 -11 -6 -0.38 -0.02
 -11 6 -6 -0.38 -0.01
 4 -11 -6 -0.45 0.00
 -11 7 -6 -0.45 -0.01
 -11 8 -6 -0.55 -0.01
 3 -11 -6 -0.55 0.02
 -8 -3 6 -0.60 0.05
 2 -11 -6 -0.63 0.03
 -11 9 -6 -0.62 -0.01
 -9 -2 6 -0.67 0.05
 1 -11 -6 -0.68 0.02
 -11 10 -6 -0.65 -0.02
 -10 -1 6 -0.69 0.03
 -11 11 -6 -0.66 -0.01
 0 -11 -6 -0.72 0.00
 -11 0 6 -0.71 0.01
 -1 -11 -6 -0.81 0.00
 -11 12 -6 -0.73 0.00
 -12 1 6 -0.78 0.00
 -11 13 -6 -0.92 0.01
 -13 2 6 -0.95 0.00
 -11 14 -6 -1.18 0.02
 -14 3 6 -1.20 0.00
 -11 15 -6 -1.37 0.02
 -15 4 6 -1.38 0.00
 -3 15 -6 -0.95 -0.03
 15 -12 -6 -0.94 0.03
 -15 12 6 -0.94 -0.03
 14 -12 -6 -0.77 0.03
 -14 12 6 -0.77 -0.03
 13 -12 -6 -0.64 0.02
 -13 12 6 -0.64 -0.02
 12 -12 -6 -0.63 -0.01
 -12 12 6 -0.63 0.01
 11 -12 -6 -0.73 -0.03
 -12 1 -6 -0.78 -0.01
 -11 12 6 -0.73 0.03
 10 -12 -6 -0.86 -0.02
 -12 2 -6 -0.88 0.03
 -12 3 -6 -0.93 0.06
 9 -12 -6 -0.92 -0.01
 8 -12 -6 -0.91 0.00
 -12 4 -6 -0.92 0.06
 7 -12 -6 -0.87 0.00
 -12 5 -6 -0.88 0.05
 -12 6 -6 -0.86 0.03
 6 -12 -6 -0.86 -0.01
 -12 7 -6 -0.88 0.01
 5 -12 -6 -0.89 0.00
 4 -12 -6 -0.94 0.02
 -12 8 -6 -0.92 0.00
 -8 -4 6 -0.98 0.06
 3 -12 -6 -0.95 0.03
 -12 9 -6 -0.93 -0.01
 -9 -3 6 -0.99 0.05
 2 -12 -6 -0.89 0.03
 -12 10 -6 -0.86 -0.03
 -10 -2 6 -0.92 0.04
 1 -12 -6 -0.78 0.01
 -12 11 -6 -0.73 -0.03
 -11 -1 6 -0.80 0.01
 0 -12 -6 -0.70 0.00
 -12 12 -6 -0.63 -0.02
 -12 0 6 -0.69 -0.01
 -1 -12 -6 -0.70 0.00
 -12 13 -6 -0.64 0.00
 -13 1 6 -0.68 -0.01
 -12 14 -6 -0.77 0.02
 -14 2 6 -0.80 -0.01
 -12 15 -6 -0.93 0.03
 -15 3 6 -0.95 0.00
 14 -13 -6 -0.42 0.02
 -14 13 6 -0.42 -0.02
 13 -13 -6 -0.45 -0.01
 -13 13 6 -0.45 0.01
 12 -13 -6 -0.64 -0.03
 -13 1 -6 -0.69 -0.03
 -13 2 -6 -0.95 0.01
 11 -13 -6 -0.92 -0.03
 -13 3 -6 -1.20 0.04
 10 -13 -6 -1.18 -0.02
 -13 4 -6 -1.35 0.06
 9 -13 -6 -1.34 -0.01
 8 -13 -6 -1.42 -0.01
 -13 5 -6 -1.42 0.05
 -13 6 -6 -1.43 0.04
 7 -13 -6 -1.44 -0.01
 6 -13 -6 -1.44 -0.01
 -13 7 -6 -1.44 0.03
 -13 8 -6 -1.43 0.01
 5 -13 -6 -1.43 0.01
 -8 -5 6 -1.46 0.04
 -13 9 -6 -1.36 0.00
 4 -13 -6 -1.37 0.03
 -9 -4 6 -1.40 0.04
 3 -13 -6 -1.21 0.04
 -13 10 -6 -1.19 -0.02
 -10 -3 6 -1.24 0.03
 2 -13 -6 -0.96 0.03
 -13 11 -6 -0.92 -0.03
 -11 -2 6 -0.98 0.01
 1 -13 -6 -0.69 0.01
 -13 12 -6 -0.64 -0.04
 -12 -1 6 -0.70 -0.01
 0 -13 -6 -0.50 0.00
 -13 13 -6 -0.45 -0.02
 -13 0 6 -0.50 -0.02
 -13 14 -6 -0.41 0.00
 -14 1 6 -0.45 -0.01
 13 -14 -6 -0.42 -0.02
 12 -14 -6 -0.77 -0.03
 -14 2 -6 -0.80 -0.01
 11 -14 -6 -1.18 -0.03
 -14 3 -6 -1.20 0.02
 -14 4 -6 -1.53 0.04
 10 -14 -6 -1.52 -0.02
 -14 5 -6 -1.74 0.04
 9 -14 -6 -1.75 -0.01
 -14 6 -6 -1.85 0.03
 8 -14 -6 -1.86 -0.01
 -14 7 -6 -1.88 0.02
 7 -14 -6 -1.89 -0.02
 6 -14 -6 -1.87 0.00
 -14 8 -6 -1.86 0.02
 -8 -6 6 -1.88 0.02
 -14 9 -6 -1.76 0.01
 5 -14 -6 -1.76 0.02
 -9 -5 6 -1.77 0.02
 -14 10 -6 -1.54 -0.01
 4 -14 -6 -1.54 0.03
 -10 -4 6 -1.55 0.01
 -14 11 -6 -1.19 -0.02
 3 -14 -6 -1.20 0.03
 -11 -3 6 -1.22 0.01
 -14 12 -6 -0.78 -0.04
 2 -14 -6 -0.80 0.02
 -12 -2 6 -0.82 -0.01
 1 -14 -6 -0.44 0.01
 -14 13 -6 -0.42 -0.04
 -13 -1 6 -0.46 -0.01
 12 -15 -6 -0.93 -0.03
 -15 3 -6 -0.96 0.01
 11 -15 -6 -1.37 -0.02
 -15 4 -6 -1.38 0.02
 -15 5 -6 -1.70 0.02
 10 -15 -6 -1.71 -0.01
 9 -15 -6 -1.92 -0.01
 -15 6 -6 -1.90 0.01
 -15 7 -6 -1.99 0.00
 8 -15 -6 -2.01 -0.02
 -15 8 -6 -2.00 0.00
 7 -15 -6 -2.01 -0.02
 -8 -7 6 -2.01 -0.01
 -15 9 -6 -1.92 0.01
 6 -15 -6 -1.91 0.00
 -9 -6 6 -1.91 -0.01
 5 -15 -6 -1.71 0.02
 -15 10 -6 -1.72 0.01
 -10 -5 6 -1.70 -0.01
 -15 11 -6 -1.38 -0.01
 4 -15 -6 -1.38 0.03
 -11 -4 6 -1.37 0.00
 3 -15 -6 -0.95 0.03
 -15 12 -6 -0.94 -0.02
 -12 -3 6 -0.94 0.00
 9 -16 -6 -1.72 -0.02
 -16 7 -6 -1.69 -0.02
 -7 -9 6 -1.69 -0.02
 8 -16 -6 -1.76 -0.02
 -16 8 -6 -1.74 -0.02
 -8 -8 6 -1.74 -0.04
 7 -16 -6 -1.71 -0.01
 -16 9 -6 -1.71 -0.01
 -9 -7 6 -1.70 -0.04
 0 1 -7 0.01 0.00
 1 -1 -7 0.00 0.01
 -1 0 -7 0.01 0.02
 -1 1 -7 0.00 0.00
 1 0 -7 -0.02 0.01
 0 -1 -7 -0.01 0.01
 3 -2 -7 0.04 0.00
 -1 3 -7 0.06 -0.04
 -2 -1 -7 0.05 0.02
 -2 0 -7 0.06 0.03
 0 2 -7 0.06 -0.02
 2 -2 -7 0.04 -0.01
 0 -2 -7 -0.06 0.00
 -2 2 -7 -0.04 -0.01
 -1 -2 -7 -0.05 0.00
 3 -1 -7 -0.05 0.01
 -1 -2 -7 -0.05 0.00
 -2 3 -7 -0.04 -0.04
 -3 -2 -7 0.00 0.00
 5 -3 -7 0.01 0.01
 -5 3 7 0.01 -0.01
 -1 4 -7 0.07 -0.04
 4 -3 -7 0.06 -0.01
 0 3 -7 0.11 -0.04
 3 -3 -7 0.09 -0.02
 -3 0 -7 0.11 0.03
 -3 1 -7 0.06 0.03
 1 2 -7 0.05 -0.02
 2 -3 -7 0.03 -0.02
 2 1 -7 -0.05 0.00
 1 -3 -7 -0.06 -0.02
 -3 2 -7 -0.04 0.00
 -3 3 -7 -0.09 -0.03
 0 -3 -7 -0.11 -0.02
 4 -1 -7 -0.07 0.02
 -3 4 -7 -0.06 -0.04
 -1 -3 -7 -0.07 -0.01
 -3 5 -7 0.00 -0.04
 5 -2 -7 0.00 0.02
 -2 -3 -7 0.00 -0.01
 -3 7 -7 -0.13 -0.01
 -4 -3 -7 -0.13 -0.02
 7 -4 -7 -0.12 0.04
 -7 4 7 -0.12 -0.04
 6 -4 -7 -0.11 0.01
 -2 6 -7 -0.12 -0.01
 -6 4 7 -0.11 -0.01
 5 -4 -7 -0.03 -0.01
 -1 5 -7 -0.03 -0.02
 -4 -1 -7 -0.03 0.00
 -5 4 7 -0.03 0.01
 4 -4 -7 0.05 -0.03
 -4 0 -7 0.06 0.02
 -4 4 7 0.05 0.03
 1 3 -7 0.07 -0.03
 -4 1 -7 0.07 0.03
 3 -4 -7 0.06 -0.03
 -3 4 7 0.06 0.03
 3 1 -7 -0.07 0.00
 1 -4 -7 -0.07 -0.02
 -4 3 -7 -0.06 -0.01
 5 -1 -7 0.03 0.01
 -4 5 -7 0.03 -0.04
 -1 -4 -7 0.03 -0.01
 6 -2 -7 0.12 0.02
 -6 2 7 0.12 -0.02
 7 -3 -7 0.12 0.04
 -4 7 -7 0.12 -0.01
 -7 3 7 0.12 -0.04
 9 -5 -7 -0.22 0.05
 -4 9 -7 -0.23 -0.03
 -9 5 7 -0.22 -0.05
 -3 8 -7 -0.37 -0.01
 8 -5 -7 -0.36 0.04
 -8 5 7 -0.36 -0.04
 -5 -2 -7 -0.39 -0.04
 -2 7 -7 -0.38 0.02
 7 -5 -7 -0.38 0.01
 -7 5 7 -0.38 -0.01
 6 -5 -7 -0.28 -0.02
 -1 6 -7 -0.29 0.02
 -5 -1 -7 -0.29 -0.03
 -6 5 7 -0.28 0.02
 0 5 -7 -0.14 0.01
 5 -5 -7 -0.14 -0.03
 -5 0 -7 -0.14 -0.01
 -5 5 7 -0.14 0.03
 1 4 -7 -0.03 -0.01
 4 -5 -7 -0.03 -0.03
 -5 1 -7 -0.03 0.02
 -4 5 7 -0.03 0.03
 -5 2 -7 0.00 0.03
 3 -5 -7 0.00 -0.03
 -3 5 7 0.00 0.03
 2 -5 -7 -0.01 -0.02
 -5 3 -7 0.00 0.01
 -2 5 7 -0.01 0.02
 -5 4 -7 0.03 -0.01
 1 -5 -7 0.03 -0.01
 4 1 -7 0.03 0.00
 -1 5 7 0.03 0.01
 0 -5 -7 0.14 0.00
 -5 5 -7 0.14 -0.02
 -1 -5 -7 0.29 0.00
 6 -1 -7 0.29 -0.01
 -5 7 -7 0.38 0.00
 7 -2 -7 0.38 0.00
 -7 2 7 0.38 0.00
 8 -3 -7 0.36 0.03
 -5 8 -7 0.36 0.01
 -8 3 7 0.36 -0.03
 9 -4 -7 0.22 0.05
 -5 9 -7 0.22 0.00
 -9 4 7 0.22 -0.05
 11 -6 -7 -0.24 0.01
 -5 11 -7 -0.27 -0.07
 -11 6 7 -0.24 -0.01
 10 -6 -7 -0.49 0.02
 -4 10 -7 -0.50 -0.07
 -10 6 7 -0.49 -0.02
 -3 9 -7 -0.67 -0.03
 9 -6 -7 -0.67 0.02
 -9 6 7 -0.67 -0.02
 8 -6 -7 -0.73 0.01
 -2 8 -7 -0.73 0.03
 -6 -2 -7 -0.73 -0.04
 -8 6 7 -0.73 -0.01
 7 -6 -7 -0.66 -0.02
 -1 7 -7 -0.66 0.06
 -6 -1 -7 -0.66 -0.06
 -7 6 7 -0.66 0.02
 -6 0 -7 -0.49 -0.05
 6 -6 -7 -0.49 -0.03
 0 6 -7 -0.49 0.05
 -6 6 7 -0.49 0.03
 -6 1 -7 -0.29 -0.01
 1 5 -7 -0.29 0.02
 5 -6 -7 -0.29 -0.03
 -5 6 7 -0.29 0.03
 4 -6 -7 -0.12 -0.02
 -6 2 -7 -0.12 0.02
 -4 6 7 -0.12 0.02
 -6 4 -7 0.12 0.01
 4 2 -7 0.12 -0.01
 -2 6 7 0.12 0.01
 1 -6 -7 0.29 0.01
 -6 5 -7 0.29 -0.01
 5 1 -7 0.29 -0.02
 0 -6 -7 0.49 0.02
 6 0 -7 0.49 -0.03
 -6 6 -7 0.49 -0.01
 -1 -6 -7 0.66 0.02
 7 -1 -7 0.66 -0.04
 -7 1 7 0.66 0.04
 8 -2 -7 0.72 -0.02
 -6 8 -7 0.73 0.02
 -2 -6 -7 0.72 -0.01
 -8 2 7 0.72 0.02
 9 -3 -7 0.67 0.02
 -6 9 -7 0.66 0.03
 -9 3 7 0.67 -0.02
 -6 10 -7 0.48 0.02
 10 -4 -7 0.50 0.04
 -10 4 7 0.50 -0.04
 11 -5 -7 0.27 0.04
 -6 11 -7 0.24 0.00
 -11 5 7 0.27 -0.04
 -6 13 -7 -0.21 -0.04
 -13 7 7 -0.17 0.02
 12 -7 -7 -0.45 -0.02
 -5 12 -7 -0.48 -0.09
 -12 7 7 -0.45 0.02
 11 -7 -7 -0.73 -0.01
 -4 11 -7 -0.76 -0.11
 -11 7 7 -0.73 0.01
 -3 10 -7 -0.97 -0.06
 10 -7 -7 -0.96 0.00
 -10 7 7 -0.96 0.00
 9 -7 -7 -1.08 -0.01
 -2 9 -7 -1.08 0.02
 -9 7 7 -1.08 0.01
 -1 8 -7 -1.06 0.08
 8 -7 -7 -1.07 -0.02
 -7 -1 -7 -1.06 -0.07
 -8 7 7 -1.07 0.02
 -7 0 -7 -0.91 -0.08
 0 7 -7 -0.91 0.09
 7 -7 -7 -0.91 -0.03
 -7 7 7 -0.91 0.03
 6 -7 -7 -0.67 -0.03
 -7 1 -7 -0.66 -0.05
 -6 7 7 -0.67 0.03
 5 -7 -7 -0.39 -0.02
 -7 2 -7 -0.38 0.00
 -5 7 7 -0.39 0.02
 -7 3 -7 -0.12 0.03
 -4 7 7 -0.12 0.01
 -7 4 -7 0.12 0.03
 -7 5 -7 0.38 0.01
 2 -7 -7 0.39 0.01
 6 1 -7 0.66 -0.03
 -7 6 -7 0.66 0.00
 1 -7 -7 0.66 0.03
 -7 7 -7 0.92 0.00
 0 -7 -7 0.91 0.05
 7 0 -7 0.90 -0.06
 -7 0 7 0.90 0.06
 -7 8 -7 1.07 0.02
 8 -1 -7 1.06 -0.06
 -1 -7 -7 1.06 0.04
 -8 1 7 1.06 0.06
 -7 9 -7 1.08 0.04
 9 -2 -7 1.08 -0.04
 -9 2 7 1.08 0.04
 10 -3 -7 0.97 0.01
 -7 10 -7 0.96 0.05
 -10 3 7 0.97 -0.01
 -7 11 -7 0.73 0.05
 11 -4 -7 0.76 0.04
 -11 4 7 0.76 -0.04
 -7 12 -7 0.44 0.04
 -12 5 7 0.48 -0.04
 -7 13 -7 0.17 0.03
 -13 6 7 0.21 -0.02
 -7 15 -7 -0.05 0.02
 -15 8 7 -0.03 0.00
 14 -8 -7 -0.23 -0.02
 -6 14 -7 -0.25 -0.03
 -14 8 7 -0.23 0.02
 13 -8 -7 -0.54 -0.03
 -5 13 -7 -0.57 -0.09
 -13 8 7 -0.54 0.03
 12 -8 -7 -0.89 -0.02
 -4 12 -7 -0.91 -0.12
 -12 8 7 -0.89 0.02
 11 -8 -7 -1.18 -0.01
 -3 11 -7 -1.20 -0.08
 -11 8 7 -1.18 0.01
 -2 10 -7 -1.38 0.00
 10 -8 -7 -1.37 -0.01
 -10 8 7 -1.37 0.01
 -1 9 -7 -1.42 0.08
 9 -8 -7 -1.42 -0.02
 -8 -1 -7 -1.41 -0.06
 -9 8 7 -1.42 0.02
 8 -8 -7 -1.32 -0.03
 -8 0 -7 -1.31 -0.09
 0 8 -7 -1.31 0.11
 -8 8 7 -1.32 0.03
 7 -8 -7 -1.07 -0.03
 -8 1 -7 -1.06 -0.07
 -7 8 7 -1.07 0.03
 6 -8 -7 -0.73 -0.01
 -8 2 -7 -0.73 -0.01
 -6 8 7 -0.73 0.01
 -8 3 -7 -0.36 0.03
 5 -8 -7 -0.36 0.00
 -5 8 7 -0.36 0.00
 3 -8 -7 0.37 -0.01
 -8 5 -7 0.36 0.02
 2 -8 -7 0.73 0.01
 -8 6 -7 0.73 0.00
 1 -8 -7 1.06 0.04
 -8 7 -7 1.07 -0.01
 -8 8 -7 1.32 0.00
 0 -8 -7 1.31 0.07
 -8 0 7 1.30 0.07
 -1 -8 -7 1.41 0.05
 -8 9 -7 1.43 0.02
 -9 1 7 1.42 0.07
 -8 10 -7 1.37 0.04
 -10 2 7 1.38 0.03
 -8 11 -7 1.18 0.05
 -11 3 7 1.21 -0.02
 -8 12 -7 0.88 0.05
 -12 4 7 0.92 -0.05
 -8 13 -7 0.54 0.05
 -13 5 7 0.57 -0.05
 -8 14 -7 0.23 0.05
 -14 6 7 0.25 -0.03
 -8 15 -7 0.03 0.04
 -15 7 7 0.04 -0.01
 -6 15 -7 -0.13 -0.02
 15 -9 -7 -0.12 0.00
 -15 9 7 -0.12 0.00
 14 -9 -7 -0.46 0.00
 -5 14 -7 -0.48 -0.07
 -14 9 7 -0.46 0.00
 -4 13 -7 -0.89 -0.10
 13 -9 -7 -0.87 -0.01
 -13 9 7 -0.87 0.01
 12 -9 -7 -1.26 0.00
 -3 12 -7 -1.27 -0.07
 -12 9 7 -1.26 0.00
 -2 11 -7 -1.54 0.00
 11 -9 -7 -1.53 -0.01
 -11 9 7 -1.53 0.01
 -9 -1 -7 -1.65 -0.05
 10 -9 -7 -1.67 -0.02
 -1 10 -7 -1.66 0.08
 -10 9 7 -1.67 0.02
 0 9 -7 -1.62 0.11
 -9 0 -7 -1.62 -0.09
 9 -9 -7 -1.63 -0.02
 -9 9 7 -1.63 0.02
 -9 1 -7 -1.42 -0.07
 8 -9 -7 -1.42 -0.02
 -8 9 7 -1.42 0.02
 -9 2 -7 -1.08 -0.01
 7 -9 -7 -1.08 0.00
 -7 9 7 -1.08 0.00
 -9 3 -7 -0.67 0.04
 6 -9 -7 -0.67 0.01
 5 -9 -7 -0.22 0.00
 -9 4 -7 -0.23 0.05
 4 -9 -7 0.23 -0.02
 -9 5 -7 0.22 0.02
 -9 6 -7 0.66 -0.01
 3 -9 -7 0.67 -0.03
 -9 7 -7 1.08 -0.03
 2 -9 -7 1.09 0.00
 1 -9 -7 1.42 0.05
 -9 8 -7 1.43 -0.02
 -8 -1 7 1.41 0.03
 0 -9 -7 1.62 0.08
 -9 9 -7 1.63 0.00
 -9 0 7 1.62 0.07
 -9 10 -7 1.67 0.02
 -1 -9 -7 1.65 0.06
 -10 1 7 1.66 0.06
 -9 11 -7 1.53 0.03
 -11 2 7 1.55 0.02
 -9 12 -7 1.25 0.03
 -12 3 7 1.28 -0.04
 -9 13 -7 0.87 0.02
 -13 4 7 0.89 -0.06
 -9 14 -7 0.46 0.02
 -14 5 7 0.48 -0.05
 -9 15 -7 0.12 0.03
 -15 6 7 0.13 -0.03
 15 -10 -7 -0.23 0.03
 -5 15 -7 -0.23 -0.03
 -15 10 7 -0.23 -0.03
 -4 14 -7 -0.67 -0.05
 14 -10 -7 -0.67 0.03
 -14 10 7 -0.67 -0.03
 13 -10 -7 -1.12 0.03
 -3 13 -7 -1.13 -0.04
 -13 10 7 -1.12 -0.03
 -2 12 -7 -1.50 0.01
 12 -10 -7 -1.50 0.02
 -12 10 7 -1.50 -0.02
 -1 11 -7 -1.73 0.08
 11 -10 -7 -1.74 0.00
 -11 10 7 -1.74 0.00
 10 -10 -7 -1.79 -0.01
 -10 0 -7 -1.78 -0.08
 -10 10 7 -1.79 0.01
 -10 1 -7 -1.66 -0.05
 9 -10 -7 -1.66 -0.01
 -9 10 7 -1.66 0.01
 8 -10 -7 -1.37 0.01
 -10 2 -7 -1.38 0.01
 -8 10 7 -1.37 -0.01
 7 -10 -7 -0.96 0.03
 -10 3 -7 -0.97 0.06
 6 -10 -7 -0.48 0.02
 -10 4 -7 -0.50 0.07
 4 -10 -7 0.50 -0.05
 -10 6 -7 0.49 -0.02
 3 -10 -7 0.97 -0.05
 -10 7 -7 0.96 -0.05
 2 -10 -7 1.38 0.00
 -10 8 -7 1.37 -0.05
 -8 -2 7 1.36 -0.05
 1 -10 -7 1.66 0.06
 -10 9 -7 1.67 -0.02
 -9 -1 7 1.65 0.02
 0 -10 -7 1.78 0.10
 -10 10 -7 1.79 0.00
 -10 0 7 1.78 0.06
 -1 -10 -7 1.71 0.08
 -10 11 -7 1.73 0.01
 -11 1 7 1.73 0.05
 -10 12 -7 1.50 -0.01
 -12 2 7 1.50 0.00
 -10 13 -7 1.12 -0.02
 -13 3 7 1.13 -0.04
 -10 14 -7 0.67 -0.03
 -14 4 7 0.67 -0.05
 -10 15 -7 0.24 -0.02
 -15 5 7 0.23 -0.04
 15 -11 -7 -0.34 0.05
 -4 15 -7 -0.33 -0.01
 -15 11 7 -0.34 -0.05
 -3 14 -7 -0.80 -0.01
 14 -11 -7 -0.81 0.05
 -14 11 7 -0.81 -0.05
 -2 13 -7 -1.24 0.03
 13 -11 -7 -1.25 0.04
 -13 11 7 -1.25 -0.04
 12 -11 -7 -1.58 0.02
 -12 11 7 -1.58 -0.02
 11 -11 -7 -1.75 0.00
 -11 11 7 -1.75 0.00
 -11 1 -7 -1.73 -0.05
 10 -11 -7 -1.73 -0.02
 -10 11 7 -1.73 0.02
 9 -11 -7 -1.53 0.00
 -11 2 -7 -1.54 0.02
 8 -11 -7 -1.18 0.03
 -11 3 -7 -1.20 0.08
 7 -11 -7 -0.73 0.05
 -11 4 -7 -0.76 0.10
 6 -11 -7 -0.24 0.02
 -11 5 -7 -0.26 0.06
 5 -11 -7 0.27 -0.04
 -11 6 -7 0.24 -0.01
 -11 7 -7 0.73 -0.06
 4 -11 -7 0.76 -0.08
 3 -11 -7 1.20 -0.07
 -11 8 -7 1.18 -0.07
 -8 -3 7 1.18 -0.11
 -11 9 -7 1.53 -0.04
 2 -11 -7 1.54 0.00
 -9 -2 7 1.52 -0.05
 1 -11 -7 1.73 0.07
 -11 10 -7 1.74 -0.01
 -10 -1 7 1.71 0.02
 0 -11 -7 1.73 0.10
 -11 11 -7 1.75 0.00
 -11 0 7 1.72 0.05
 -1 -11 -7 1.55 0.08
 -11 12 -7 1.58 -0.02
 -12 1 7 1.56 0.04
 -11 13 -7 1.24 -0.05
 -13 2 7 1.23 0.00
 -11 14 -7 0.80 -0.07
 -14 3 7 0.79 -0.03
 -11 15 -7 0.34 -0.07
 -15 4 7 0.33 -0.03
 14 -12 -7 -0.84 0.06
 -14 12 7 -0.84 -0.06
 13 -12 -7 -1.22 0.04
 -13 12 7 -1.22 -0.04
 12 -12 -7 -1.48 0.00
 -12 12 7 -1.48 0.00
 11 -12 -7 -1.58 -0.02
 -12 1 -7 -1.56 -0.06
 -12 2 -7 -1.50 0.01
 10 -12 -7 -1.50 -0.02
 9 -12 -7 -1.25 0.01
 -12 3 -7 -1.27 0.09
 -12 4 -7 -0.91 0.12
 8 -12 -7 -0.88 0.05
 -12 5 -7 -0.48 0.09
 7 -12 -7 -0.45 0.05
 -12 7 -7 0.44 -0.06
 5 -12 -7 0.48 -0.06
 4 -12 -7 0.91 -0.09
 -12 8 -7 0.88 -0.09
 -8 -4 7 0.89 -0.13
 3 -12 -7 1.27 -0.06
 -12 9 -7 1.25 -0.06
 -9 -3 7 1.25 -0.10
 -12 10 -7 1.50 -0.01
 2 -12 -7 1.50 0.01
 -10 -2 7 1.47 -0.02
 -12 11 -7 1.58 0.01
 1 -12 -7 1.56 0.07
 -11 -1 7 1.54 0.04
 -12 12 -7 1.48 0.00
 0 -12 -7 1.45 0.09
 -12 0 7 1.44 0.06
 -12 13 -7 1.22 -0.03
 -1 -12 -7 1.18 0.07
 -13 1 7 1.18 0.03
 -12 14 -7 0.84 -0.07
 -14 2 7 0.82 0.00
 14 -13 -7 -0.77 0.04
 -14 13 7 -0.77 -0.04
 13 -13 -7 -1.05 0.01
 12 -13 -7 -1.22 -0.03
 -13 2 -7 -1.24 -0.01
 11 -13 -7 -1.24 -0.05
 10 -13 -7 -1.12 -0.03
 -13 3 -7 -1.13 0.06
 9 -13 -7 -0.87 0.02
 -13 4 -7 -0.89 0.11
 8 -13 -7 -0.54 0.05
 -13 5 -7 -0.57 0.10
 -13 6 -7 -0.20 0.04
 7 -13 -7 -0.17 0.04
 -13 7 -7 0.17 -0.03
 6 -13 -7 0.21 -0.01
 -13 8 -7 0.54 -0.07
 5 -13 -7 0.57 -0.06
 -8 -5 7 0.56 -0.11
 4 -13 -7 0.89 -0.07
 -13 9 -7 0.87 -0.06
 -9 -4 7 0.88 -0.10
 3 -13 -7 1.13 -0.03
 -13 10 -7 1.12 -0.01
 -10 -3 7 1.11 -0.04
 2 -13 -7 1.24 0.03
 -13 11 -7 1.25 0.03
 -11 -2 7 1.21 0.03
 -13 12 -7 1.22 0.04
 1 -13 -7 1.19 0.06
 -12 -1 7 1.17 0.06
 0 -13 -7 1.01 0.06
 -13 13 -7 1.05 0.00
 -13 0 7 1.00 0.05
 -13 14 -7 0.76 -0.04
 -14 1 7 0.73 0.01
 13 -14 -7 -0.76 -0.03
 -14 2 -7 -0.82 -0.03
 12 -14 -7 -0.84 -0.06
 -14 3 -7 -0.80 0.02
 11 -14 -7 -0.80 -0.07
 -14 4 -7 -0.67 0.07
 10 -14 -7 -0.67 -0.03
 -14 5 -7 -0.47 0.08
 9 -14 -7 -0.46 0.02
 -14 6 -7 -0.25 0.05
 8 -14 -7 -0.23 0.05
 -14 8 -7 0.23 -0.05
 6 -14 -7 0.25 -0.01
 -8 -6 7 0.25 -0.06
 5 -14 -7 0.48 -0.04
 -14 9 -7 0.46 -0.04
 -9 -5 7 0.48 -0.07
 4 -14 -7 0.67 -0.03
 -14 10 -7 0.67 0.00
 -10 -4 7 0.67 -0.03
 3 -14 -7 0.80 0.00
 -14 11 -7 0.80 0.05
 -11 -3 7 0.79 0.03
 -14 12 -7 0.84 0.06
 2 -14 -7 0.82 0.03
 -12 -2 7 0.81 0.06
 1 -14 -7 0.74 0.03
 -14 13 -7 0.77 0.04
 -13 -1 7 0.73 0.05
 11 -15 -7 -0.35 -0.07
 -15 4 -7 -0.33 0.02
 -15 5 -7 -0.23 0.04
 10 -15 -7 -0.24 -0.03
 -15 6 -7 -0.13 0.04
 9 -15 -7 -0.12 0.02
 -15 7 -7 -0.04 0.01
 8 -15 -7 -0.03 0.04
 -15 8 -7 0.03 -0.02
 7 -15 -7 0.05 0.02
 -8 -7 7 0.04 -0.02
 -15 9 -7 0.12 -0.02
 6 -15 -7 0.13 0.00
 -9 -6 7 0.14 -0.03
 5 -15 -7 0.23 -0.01
 -15 10 -7 0.23 0.01
 -10 -5 7 0.25 0.00
 4 -15 -7 0.33 0.00
 -15 11 -7 0.34 0.05
 -11 -4 7 0.35 0.04
 0 0 -8 0.51 -0.02
 0 1 -8 0.24 -0.03
 1 -1 -8 0.24 -0.02
 -1 0 -8 0.23 0.00
 -1 1 -8 0.24 -0.01
 0 -1 -8 0.23 0.00
 1 0 -8 0.24 -0.04
 0 -1 -8 0.23 0.00
 -1 -1 -8 -0.21 0.02
 -1 2 -8 -0.19 -0.03
 2 -1 -8 -0.19 -0.04
 -2 -1 -8 -0.75 0.01
 3 -2 -8 -0.70 -0.04
 -1 3 -8 -0.71 -0.02
 2 -2 -8 -0.36 -0.03
 -2 0 -8 -0.38 0.01
 0 2 -8 -0.37 -0.03
 -2 1 -8 -0.20 0.00
 1 -2 -8 -0.20 -0.01
 0 -2 -8 -0.38 0.02
 -2 2 -8 -0.36 -0.01
 2 0 -8 -0.36 -0.03
 -2 3 -8 -0.71 -0.02
 3 -1 -8 -0.70 -0.02
 -2 -2 -8 -0.97 0.01
 -2 4 -8 -0.90 -0.02
 4 -2 -8 -0.89 -0.02
 5 -3 -8 -0.74 -0.01
 -5 3 8 -0.74 0.01
 -1 4 -8 -0.91 -0.01
 4 -3 -8 -0.90 -0.03
 -3 -1 -8 -0.97 0.00
 -3 0 -8 -0.86 0.00
 0 3 -8 -0.85 -0.01
 3 -3 -8 -0.83 -0.04
 1 2 -8 -0.73 -0.02
 2 -3 -8 -0.71 -0.02
 -3 1 -8 -0.71 0.00
 -3 2 -8 -0.71 -0.01
 1 -3 -8 -0.72 0.01
 0 -3 -8 -0.86 0.02
 -3 3 -8 -0.83 -0.01
 3 0 -8 -0.85 0.00
 4 -1 -8 -0.90 0.01
 -3 4 -8 -0.91 -0.02
 -2 -3 -8 -0.84 0.01
 -3 5 -8 -0.76 -0.03
 5 -2 -8 -0.75 0.01
 -3 6 -8 -0.43 -0.03
 -3 -3 -8 -0.51 0.02
 6 -3 -8 -0.43 0.02
 -6 3 8 -0.43 -0.02
 7 -4 -8 -0.15 0.02
 -3 7 -8 -0.16 -0.03
 -7 4 8 -0.15 -0.02
 -4 -2 -8 -0.44 0.01
 -1 5 -8 -0.67 0.00
 -4 -1 -8 -0.73 0.00
 5 -4 -8 -0.65 -0.03
 -5 4 8 -0.65 0.03
 -4 0 -8 -0.90 -0.01
 4 -4 -8 -0.85 -0.04
 -4 4 8 -0.85 0.04
 1 3 -8 -0.95 0.01
 -4 1 -8 -0.92 -0.01
 3 -4 -8 -0.91 -0.03
 -4 2 -8 -0.91 -0.01
 2 -4 -8 -0.91 -0.01
 1 -4 -8 -0.92 0.01
 -4 3 -8 -0.91 -0.01
 4 0 -8 -0.88 0.02
 -4 4 -8 -0.85 -0.01
 -4 5 -8 -0.66 -0.02
 -1 -4 -8 -0.73 0.01
 5 -1 -8 -0.68 0.03
 -4 7 -8 -0.15 -0.04
 7 -3 -8 -0.16 0.02
 -7 3 8 -0.16 -0.02
 -4 8 -8 -0.20 -0.04
 8 -4 -8 -0.21 0.01
 -8 4 8 -0.21 -0.01
 -4 9 -8 -0.51 -0.03
 9 -5 -8 -0.51 0.01
 -9 5 8 -0.51 -0.01
 8 -5 -8 -0.10 0.01
 -3 8 -8 -0.12 -0.03
 -8 5 8 -0.10 -0.01
 -2 7 -8 -0.02 -0.01
 7 -5 -8 0.01 0.01
 -5 -2 -8 -0.06 0.02
 -7 5 8 0.01 -0.01
 -1 6 -8 -0.20 0.02
 -5 -1 -8 -0.25 0.00
 6 -5 -8 -0.16 -0.02
 -6 5 8 -0.16 0.02
 -5 0 -8 -0.50 0.00
 5 -5 -8 -0.44 -0.04
 -5 5 8 -0.44 0.04
 4 -5 -8 -0.66 -0.04
 1 4 -8 -0.72 0.03
 -5 1 -8 -0.69 0.00
 -4 5 8 -0.66 0.04
 3 -5 -8 -0.77 -0.02
 -5 2 -8 -0.77 0.00
 -3 5 8 -0.77 0.02
 -5 3 -8 -0.76 0.00
 -2 5 8 -0.77 -0.01
 4 1 -8 -0.73 0.03
 -5 4 -8 -0.66 0.00
 1 -5 -8 -0.69 0.01
 -1 5 8 -0.69 -0.01
 -5 5 -8 -0.44 -0.01
 5 0 -8 -0.50 0.03
 -5 6 -8 -0.17 -0.02
 -1 -5 -8 -0.25 0.01
 6 -1 -8 -0.22 0.03
 -5 7 -8 0.00 -0.03
 7 -2 -8 -0.04 0.02
 -7 2 8 -0.04 -0.02
 8 -3 -8 -0.13 0.01
 -5 8 -8 -0.11 -0.04
 -8 3 8 -0.13 -0.01
 -5 9 -8 -0.50 -0.03
 9 -4 -8 -0.52 0.00
 -9 4 8 -0.52 0.00
 -5 10 -8 -0.99 -0.02
 10 -5 -8 -0.99 0.00
 -10 5 8 -0.99 0.00
 11 -6 -8 -1.29 0.00
 -5 11 -8 -1.28 0.00
 -11 6 8 -1.29 0.00
 10 -6 -8 -0.87 0.00
 -4 10 -8 -0.86 -0.01
 -10 6 8 -0.87 0.00
 9 -6 -8 -0.30 0.01
 -3 9 -8 -0.31 -0.01
 -9 6 8 -0.30 -0.01
 -2 8 -8 0.08 0.01
 8 -6 -8 0.13 0.01
 -8 6 8 0.13 -0.01
 -6 -1 -8 0.16 0.00
 -1 7 -8 0.18 0.03
 7 -6 -8 0.25 -0.01
 -7 6 8 0.25 0.01
 0 6 -8 0.01 0.05
 -6 0 -8 0.01 0.00
 6 -6 -8 0.09 -0.03
 -6 6 8 0.09 0.03
 -6 1 -8 -0.22 0.01
 5 -6 -8 -0.17 -0.04
 -5 6 8 -0.17 0.04
 -6 2 -8 -0.38 0.02
 4 -6 -8 -0.37 -0.02
 -4 6 8 -0.37 0.02
 3 -6 -8 -0.44 0.01
 -6 3 -8 -0.44 0.02
 -3 6 8 -0.44 -0.01
 1 -6 -8 -0.21 0.01
 -6 5 -8 -0.17 0.00
 5 1 -8 -0.25 0.02
 0 -6 -8 0.01 0.00
 6 0 -8 0.00 0.02
 -6 6 -8 0.08 -0.02
 7 -1 -8 0.16 0.02
 -1 -6 -8 0.16 0.00
 -6 7 -8 0.24 -0.03
 -7 1 8 0.16 -0.02
 8 -2 -8 0.07 0.01
 -6 8 -8 0.13 -0.03
 -8 2 8 0.07 -0.01
 9 -3 -8 -0.33 0.00
 -6 9 -8 -0.30 -0.02
 -9 3 8 -0.33 0.00
 10 -4 -8 -0.87 0.00
 -6 10 -8 -0.87 -0.01
 -10 4 8 -0.87 0.00
 -6 11 -8 -1.29 0.00
 11 -5 -8 -1.29 0.00
 -11 5 8 -1.29 0.00
 -6 12 -8 -1.35 0.01
 12 -6 -8 -1.35 0.01
 -12 6 8 -1.35 -0.01
 -6 13 -8 -1.06 0.01
 13 -7 -8 -1.08 0.02
 -13 7 8 -1.08 -0.02
 -5 12 -8 -1.23 0.01
 12 -7 -8 -1.25 0.01
 -12 7 8 -1.25 -0.01
 -4 11 -8 -1.03 0.01
 11 -7 -8 -1.05 0.00
 -11 7 8 -1.05 0.00
 -3 10 -8 -0.55 0.01
 10 -7 -8 -0.55 0.00
 -10 7 8 -0.55 0.00
 9 -7 -8 0.02 0.01
 -2 9 -8 -0.03 0.03
 -9 7 8 0.02 -0.01
 8 -7 -8 0.38 0.00
 -7 -1 -8 0.31 -0.01
 -1 8 -8 0.29 0.05
 -8 7 8 0.38 0.00
 -7 0 -8 0.34 0.00
 0 7 -8 0.33 0.06
 7 -7 -8 0.42 -0.02
 -7 7 8 0.42 0.02
 -7 1 -8 0.17 0.02
 6 -7 -8 0.24 -0.03
 -6 7 8 0.24 0.03
 5 -7 -8 -0.01 -0.02
 -7 2 -8 -0.04 0.04
 -5 7 8 -0.01 0.02
 4 -7 -8 -0.16 0.00
 -7 3 -8 -0.17 0.05
 -4 7 8 -0.16 0.00
 3 -7 -8 -0.17 0.02
 -7 4 -8 -0.16 0.04
 2 -7 -8 -0.04 0.02
 -7 5 -8 -0.01 0.02
 -7 6 -8 0.23 -0.01
 1 -7 -8 0.17 0.00
 0 -7 -8 0.33 -0.01
 -7 7 -8 0.41 -0.02
 -1 -7 -8 0.30 0.00
 -7 8 -8 0.37 -0.02
 -8 1 8 0.29 0.00
 9 -2 -8 -0.04 0.00
 -7 9 -8 0.01 -0.02
 -9 2 8 -0.04 0.00
 10 -3 -8 -0.56 0.00
 -7 10 -8 -0.55 0.00
 -10 3 8 -0.56 0.00
 11 -4 -8 -1.04 0.00
 -7 11 -8 -1.05 0.01
 -11 4 8 -1.04 0.00
 12 -5 -8 -1.24 0.01
 -7 12 -8 -1.24 0.01
 -12 5 8 -1.24 -0.01
 13 -6 -8 -1.07 0.02
 -7 13 -8 -1.07 0.01
 -13 6 8 -1.07 -0.02
 -7 14 -8 -0.68 0.00
 14 -7 -8 -0.69 0.02
 -14 7 8 -0.69 -0.02
 15 -8 -8 -0.31 0.02
 -7 15 -8 -0.30 -0.01
 -15 8 8 -0.31 -0.02
 -6 14 -8 -0.65 0.01
 14 -8 -8 -0.65 0.02
 -14 8 8 -0.65 -0.02
 13 -8 -8 -0.94 0.01
 -5 13 -8 -0.92 0.02
 -13 8 8 -0.94 -0.01
 -4 12 -8 -0.95 0.03
 12 -8 -8 -0.98 0.00
 -12 8 8 -0.98 0.00
 -3 11 -8 -0.67 0.03
 11 -8 -8 -0.69 0.00
 -11 8 8 -0.69 0.00
 10 -8 -8 -0.19 0.00
 -2 10 -8 -0.21 0.04
 -10 8 8 -0.19 0.00
 9 -8 -8 0.26 0.00
 -1 9 -8 0.19 0.05
 -9 8 8 0.26 0.00
 -8 0 -8 0.38 -0.02
 0 8 -8 0.37 0.05
 8 -8 -8 0.46 -0.01
 -8 8 8 0.46 0.01
 -8 1 -8 0.30 0.00
 7 -8 -8 0.37 -0.02
 -7 8 8 0.37 0.02
 -8 2 -8 0.08 0.03
 6 -8 -8 0.12 -0.02
 -6 8 8 0.12 0.02
 5 -8 -8 -0.12 0.00
 -8 3 -8 -0.13 0.06
 4 -8 -8 -0.21 0.02
 -8 4 -8 -0.21 0.06
 -8 5 -8 -0.12 0.04
 3 -8 -8 -0.13 0.03
 2 -8 -8 0.08 0.02
 -8 6 -8 0.11 0.01
 1 -8 -8 0.29 0.00
 -8 7 -8 0.36 -0.01
 0 -8 -8 0.37 -0.01
 -8 8 -8 0.45 -0.02
 -8 0 8 0.37 0.00
 -8 9 -8 0.25 -0.02
 -1 -8 -8 0.21 0.00
 -9 1 8 0.19 0.00
 -8 10 -8 -0.19 0.00
 -10 2 8 -0.22 0.00
 -8 11 -8 -0.68 0.01
 -11 3 8 -0.68 0.00
 -8 12 -8 -0.98 0.02
 -12 4 8 -0.96 -0.01
 -8 13 -8 -0.94 0.01
 -13 5 8 -0.94 -0.01
 -8 14 -8 -0.64 0.01
 -14 6 8 -0.66 -0.01
 -8 15 -8 -0.29 -0.01
 -15 7 8 -0.32 -0.01
 15 -9 -8 -0.30 0.02
 -6 15 -8 -0.31 0.00
 -15 9 8 -0.30 -0.02
 -5 14 -8 -0.58 0.02
 14 -9 -8 -0.58 0.02
 -14 9 8 -0.58 -0.02
 13 -9 -8 -0.75 0.00
 -4 13 -8 -0.74 0.03
 -13 9 8 -0.75 0.00
 -3 12 -8 -0.66 0.03
 12 -9 -8 -0.68 -0.01
 -12 9 8 -0.68 0.01
 -2 11 -8 -0.36 0.03
 11 -9 -8 -0.37 0.00
 -11 9 8 -0.37 0.00
 10 -9 -8 0.03 0.00
 -1 10 -8 -0.01 0.03
 -10 9 8 0.03 0.00
 9 -9 -8 0.28 0.00
 0 9 -8 0.21 0.03
 -9 0 -8 0.23 -0.04
 -9 9 8 0.28 0.00
 8 -9 -8 0.26 -0.02
 -9 1 -8 0.20 -0.03
 -8 9 8 0.26 0.02
 -9 2 -8 -0.02 0.00
 7 -9 -8 0.00 -0.02
 -9 3 -8 -0.31 0.04
 6 -9 -8 -0.31 -0.01
 5 -9 -8 -0.52 0.02
 -9 4 -8 -0.51 0.06
 4 -9 -8 -0.52 0.03
 -9 5 -8 -0.51 0.06
 -9 6 -8 -0.31 0.03
 3 -9 -8 -0.32 0.02
 2 -9 -8 -0.03 0.00
 -9 7 -8 0.00 0.01
 1 -9 -8 0.20 -0.01
 -9 8 -8 0.24 -0.01
 -8 -1 8 0.21 0.00
 -9 9 -8 0.26 -0.02
 0 -9 -8 0.23 -0.01
 -9 0 8 0.22 -0.01
 -1 -9 -8 0.02 0.00
 -9 10 -8 0.02 -0.01
 -10 1 8 0.00 0.00
 -9 11 -8 -0.37 0.00
 -11 2 8 -0.36 0.00
 -9 12 -8 -0.68 0.01
 -12 3 8 -0.66 0.00
 -9 13 -8 -0.75 0.01
 -13 4 8 -0.74 0.00
 -9 14 -8 -0.57 0.01
 -14 5 8 -0.59 0.00
 -9 15 -8 -0.29 0.00
 -15 6 8 -0.32 0.01
 -4 14 -8 -0.55 0.02
 14 -10 -8 -0.55 0.01
 -14 10 8 -0.55 -0.01
 13 -10 -8 -0.63 0.00
 -3 13 -8 -0.61 0.02
 -13 10 8 -0.63 0.00
 -2 12 -8 -0.48 0.01
 12 -10 -8 -0.50 -0.01
 -12 10 8 -0.50 0.01
 -1 11 -8 -0.23 0.00
 11 -10 -8 -0.23 0.00
 -11 10 8 -0.23 0.00
 10 -10 -8 0.00 0.00
 -10 10 8 0.00 0.00
 9 -10 -8 0.03 -0.01
 -10 1 -8 0.01 -0.04
 -9 10 8 0.03 0.01
 8 -10 -8 -0.20 -0.02
 -10 2 -8 -0.20 -0.03
 -10 3 -8 -0.55 0.00
 7 -10 -8 -0.56 -0.02
 -10 4 -8 -0.86 0.03
 6 -10 -8 -0.88 0.00
 5 -10 -8 -1.00 0.02
 -10 5 -8 -0.99 0.05
 4 -10 -8 -0.87 0.02
 -10 6 -8 -0.87 0.04
 3 -10 -8 -0.55 0.01
 -10 7 -8 -0.56 0.02
 2 -10 -8 -0.21 -0.01
 -10 8 -8 -0.21 0.00
 -8 -2 8 -0.19 -0.01
 1 -10 -8 0.01 -0.01
 -10 9 -8 0.01 -0.01
 -9 -1 8 0.01 -0.01
 0 -10 -8 0.00 0.00
 -10 10 -8 -0.02 -0.01
 -10 0 8 -0.01 0.00
 -10 11 -8 -0.24 0.00
 -1 -10 -8 -0.20 0.00
 -11 1 8 -0.22 0.01
 -10 12 -8 -0.50 0.00
 -12 2 8 -0.48 0.01
 -10 13 -8 -0.62 0.00
 -13 3 8 -0.61 0.02
 -10 14 -8 -0.54 0.01
 -14 4 8 -0.55 0.02
 14 -11 -8 -0.60 0.00
 -3 14 -8 -0.60 0.01
 -14 11 8 -0.60 0.00
 -2 13 -8 -0.62 -0.01
 13 -11 -8 -0.63 0.00
 -13 11 8 -0.63 0.00
 12 -11 -8 -0.50 0.00
 -12 11 8 -0.50 0.00
 11 -11 -8 -0.31 0.01
 -11 11 8 -0.31 -0.01
 -11 1 -8 -0.22 -0.02
 10 -11 -8 -0.23 0.00
 9 -11 -8 -0.37 -0.01
 -11 2 -8 -0.35 -0.04
 -11 3 -8 -0.67 -0.03
 8 -11 -8 -0.70 -0.02
 7 -11 -8 -1.07 -0.01
 -11 4 -8 -1.03 -0.01
 6 -11 -8 -1.30 0.01
 -11 5 -8 -1.27 0.01
 5 -11 -8 -1.28 0.02
 -11 6 -8 -1.28 0.02
 4 -11 -8 -1.03 0.01
 -11 7 -8 -1.05 0.02
 3 -11 -8 -0.67 0.00
 -11 8 -8 -0.69 0.01
 -11 9 -8 -0.38 0.00
 2 -11 -8 -0.35 -0.01
 -9 -2 8 -0.34 -0.02
 -11 10 -8 -0.25 0.00
 1 -11 -8 -0.21 0.00
 -10 -1 8 -0.21 0.00
 -11 11 -8 -0.33 0.00
 0 -11 -8 -0.27 0.00
 -11 0 8 -0.28 0.01
 -1 -11 -8 -0.45 0.00
 -11 12 -8 -0.51 0.00
 -12 1 8 -0.47 0.02
 -11 13 -8 -0.63 0.00
 -13 2 8 -0.61 0.03
 -11 14 -8 -0.60 -0.01
 -14 3 8 -0.59 0.03
 14 -12 -8 -0.72 0.00
 -14 12 8 -0.72 0.00
 13 -12 -8 -0.73 0.00
 -13 12 8 -0.73 0.00
 12 -12 -8 -0.62 0.01
 11 -12 -8 -0.50 0.01
 -12 2 -8 -0.48 -0.02
 10 -12 -8 -0.50 0.00
 9 -12 -8 -0.69 -0.01
 -12 3 -8 -0.66 -0.04
 -12 4 -8 -0.95 -0.03
 8 -12 -8 -0.99 -0.02
 -12 5 -8 -1.22 -0.01
 7 -12 -8 -1.26 0.00
 -12 6 -8 -1.34 0.00
 6 -12 -8 -1.35 0.01
 -12 7 -8 -1.24 0.00
 5 -12 -8 -1.23 0.01
 -12 8 -8 -0.98 0.00
 4 -12 -8 -0.95 0.00
 -12 9 -8 -0.69 0.01
 3 -12 -8 -0.65 -0.01
 -9 -3 8 -0.64 -0.02
 2 -12 -8 -0.47 -0.01
 -12 10 -8 -0.51 0.01
 -10 -2 8 -0.46 0.00
 -12 11 -8 -0.52 0.01
 1 -12 -8 -0.46 0.00
 -11 -1 8 -0.45 0.01
 0 -12 -8 -0.57 0.01
 -12 12 -8 -0.64 0.01
 -12 0 8 -0.58 0.03
 -12 13 -8 -0.74 0.00
 -13 1 8 -0.70 0.03
 -12 14 -8 -0.73 -0.01
 -14 2 8 -0.71 0.03
 13 -13 -8 -0.83 0.00
 12 -13 -8 -0.73 0.01
 -13 2 -8 -0.61 0.00
 11 -13 -8 -0.63 0.00
 10 -13 -8 -0.63 -0.01
 -13 3 -8 -0.61 -0.02
 9 -13 -8 -0.77 -0.02
 -13 4 -8 -0.74 -0.03
 -13 5 -8 -0.93 -0.02
 8 -13 -8 -0.95 -0.01
 7 -13 -8 -1.08 0.01
 -13 6 -8 -1.06 -0.01
 -13 7 -8 -1.06 -0.01
 6 -13 -8 -1.07 0.01
 5 -13 -8 -0.92 0.01
 -13 8 -8 -0.93 -0.01
 -13 9 -8 -0.75 0.00
 4 -13 -8 -0.73 0.00
 -9 -4 8 -0.72 -0.01
 3 -13 -8 -0.60 -0.01
 -13 10 -8 -0.63 0.00
 -10 -3 8 -0.58 0.00
 2 -13 -8 -0.60 0.00
 -13 11 -8 -0.64 0.01
 -11 -2 8 -0.58 0.01
 -13 12 -8 -0.75 0.02
 1 -13 -8 -0.70 0.01
 -12 -1 8 -0.68 0.03
 0 -13 -8 -0.81 0.01
 -13 13 -8 -0.85 0.01
 -13 0 8 -0.80 0.03
 12 -14 -8 -0.72 0.00
 11 -14 -8 -0.61 -0.01
 -14 3 -8 -0.60 -0.01
 10 -14 -8 -0.56 -0.02
 -14 4 -8 -0.55 -0.02
 9 -14 -8 -0.59 -0.01
 -14 5 -8 -0.58 -0.01
 -14 6 -8 -0.65 0.00
 8 -14 -8 -0.65 0.01
 -14 7 -8 -0.68 0.00
 7 -14 -8 -0.68 0.02
 6 -14 -8 -0.64 0.02
 -14 8 -8 -0.64 -0.01
 -14 9 -8 -0.57 -0.01
 5 -14 -8 -0.57 0.01
 -9 -5 8 -0.57 0.00
 -14 10 -8 -0.54 -0.01
 4 -14 -8 -0.54 0.00
 -10 -4 8 -0.52 0.00
 3 -14 -8 -0.59 0.00
 -14 11 -8 -0.60 0.00
 -11 -3 8 -0.56 0.01
 2 -14 -8 -0.71 0.00
 -14 12 -8 -0.73 0.01
 -12 -2 8 -0.68 0.02
 9 -15 -8 -0.30 0.00
 -15 6 -8 -0.31 0.01
 8 -15 -8 -0.30 0.02
 -15 7 -8 -0.30 0.01
 7 -15 -8 -0.30 0.03
 -15 8 -8 -0.29 0.01
 -8 -7 8 -0.29 0.01
 -15 9 -8 -0.29 0.00
 6 -15 -8 -0.30 0.02
 -9 -6 8 -0.30 0.01
 1 -1 -9 0.00 0.02
 -1 0 -9 -0.01 0.01
 0 1 -9 -0.01 0.00
 0 -1 -9 0.02 0.02
 -1 1 -9 0.00 0.00
 3 -2 -9 -0.07 0.04
 -1 3 -9 -0.09 -0.02
 -2 -1 -9 -0.08 0.02
 0 2 -9 -0.08 -0.01
 2 -2 -9 -0.05 0.03
 -2 0 -9 -0.08 0.02
 -2 2 -9 0.06 0.00
 2 0 -9 0.08 0.02
 0 -2 -9 0.08 0.01
 -1 -2 -9 0.08 0.01
 3 -1 -9 0.09 0.03
 -2 3 -9 0.07 -0.01
 5 -3 -9 -0.13 0.04
 -3 -2 -9 -0.12 0.02
 -2 5 -9 -0.12 -0.03
 -3 -1 -9 -0.20 0.03
 -1 4 -9 -0.21 -0.03
 4 -3 -9 -0.20 0.04
 3 -3 -9 -0.18 0.03
 0 3 -9 -0.20 -0.03
 -3 0 -9 -0.19 0.02
 2 -3 -9 -0.06 0.02
 -3 1 -9 -0.08 0.02
 1 -3 -9 0.09 0.01
 -3 2 -9 0.07 0.01
 -3 3 -9 0.18 0.01
 0 -3 -9 0.20 0.00
 3 0 -9 0.19 0.02
 4 -1 -9 0.20 0.03
 -3 4 -9 0.20 0.00
 -2 -3 -9 0.12 0.00
 5 -2 -9 0.11 0.03
 -3 5 -9 0.12 -0.02
 -3 7 -9 -0.09 -0.01
 7 -4 -9 -0.10 0.00
 -7 4 9 -0.10 0.00
 -4 -2 -9 -0.22 0.04
 6 -4 -9 -0.23 0.03
 -2 6 -9 -0.22 -0.04
 -6 4 9 -0.23 -0.03
 5 -4 -9 -0.32 0.04
 -1 5 -9 -0.32 -0.05
 -4 -1 -9 -0.31 0.04
 -5 4 9 -0.32 -0.04
 4 -4 -9 -0.31 0.03
 0 4 -9 -0.32 -0.04
 -4 0 -9 -0.32 0.04
 -4 4 9 -0.31 -0.03
 3 -4 -9 -0.19 0.01
 -4 1 -9 -0.20 0.03
 3 1 -9 0.20 0.01
 1 -4 -9 0.21 -0.02
 -4 3 -9 0.20 0.01
 -4 4 -9 0.32 0.01
 4 0 -9 0.31 0.03
 5 -1 -9 0.31 0.03
 -4 5 -9 0.31 0.00
 -1 -4 -9 0.31 -0.03
 -4 6 -9 0.22 -0.01
 6 -2 -9 0.21 0.02
 7 -3 -9 0.09 0.00
 -4 7 -9 0.10 -0.01
 -7 3 9 0.09 0.00
 -4 9 -9 0.00 0.07
 9 -5 -9 -0.02 -0.02
 -9 5 9 -0.02 0.02
 8 -5 -9 -0.12 0.00
 -3 8 -9 -0.11 0.02
 -8 5 9 -0.12 0.00
 -2 7 -9 -0.24 -0.03
 7 -5 -9 -0.25 0.02
 -7 5 9 -0.25 -0.02
 -5 -1 -9 -0.36 0.07
 6 -5 -9 -0.36 0.04
 -1 6 -9 -0.36 -0.07
 -6 5 9 -0.36 -0.04
 -5 0 -9 -0.39 0.06
 5 -5 -9 -0.39 0.03
 -5 5 9 -0.39 -0.03
 4 -5 -9 -0.31 0.01
 -5 1 -9 -0.31 0.04
 -4 5 9 -0.31 -0.01
 3 -5 -9 -0.12 -0.02
 -5 2 -9 -0.12 0.02
 -3 5 9 -0.12 0.02
 2 -5 -9 0.12 -0.03
 -5 3 -9 0.12 0.01
 -2 5 9 0.12 0.03
 -5 4 -9 0.32 0.01
 4 1 -9 0.31 0.02
 1 -5 -9 0.31 -0.05
 5 0 -9 0.39 0.03
 -5 5 -9 0.40 0.01
 0 -5 -9 0.39 -0.05
 -1 -5 -9 0.36 -0.05
 6 -1 -9 0.36 0.03
 -5 6 -9 0.36 0.00
 7 -2 -9 0.24 0.01
 -5 7 -9 0.25 -0.01
 -7 2 9 0.24 -0.01
 -5 8 -9 0.12 0.00
 8 -3 -9 0.11 -0.02
 -8 3 9 0.11 0.02
 -5 9 -9 0.02 0.03
 9 -4 -9 0.01 -0.04
 -9 4 9 0.01 0.04
 11 -6 -9 0.08 0.00
 -5 11 -9 0.12 0.13
 -11 6 9 0.08 0.00
 -4 10 -9 0.11 0.13
 10 -6 -9 0.08 0.01
 -10 6 9 0.08 -0.01
 9 -6 -9 -0.01 0.02
 -3 9 -9 0.00 0.07
 -9 6 9 -0.01 -0.02
 8 -6 -9 -0.15 0.03
 -2 8 -9 -0.15 -0.01
 -8 6 9 -0.15 -0.03
 -1 7 -9 -0.29 -0.07
 -6 -1 -9 -0.29 0.08
 7 -6 -9 -0.29 0.04
 -7 6 9 -0.29 -0.04
 -6 0 -9 -0.38 0.08
 0 6 -9 -0.38 -0.08
 6 -6 -9 -0.37 0.03
 -6 6 9 -0.37 -0.03
 -6 1 -9 -0.36 0.05
 5 -6 -9 -0.35 0.01
 -5 6 9 -0.35 -0.01
 4 -6 -9 -0.22 -0.02
 -6 2 -9 -0.22 0.02
 -4 6 9 -0.22 0.02
 -6 4 -9 0.23 0.01
 2 -6 -9 0.21 -0.05
 -6 5 -9 0.36 0.01
 1 -6 -9 0.35 -0.06
 0 -6 -9 0.37 -0.07
 6 0 -9 0.38 0.04
 -6 6 -9 0.38 0.01
 -1 -6 -9 0.29 -0.06
 7 -1 -9 0.29 0.04
 -6 7 -9 0.29 0.00
 -6 8 -9 0.15 -0.01
 8 -2 -9 0.15 0.01
 -8 2 9 0.15 -0.01
 9 -3 -9 0.00 -0.03
 -6 9 -9 0.01 -0.01
 -9 3 9 0.00 0.03
 -6 10 -9 -0.08 0.01
 10 -4 -9 -0.11 -0.06
 -10 4 9 -0.11 0.06
 11 -5 -9 -0.12 -0.05
 -6 11 -9 -0.08 0.04
 -11 5 9 -0.12 0.05
 13 -7 -9 0.11 0.02
 -6 13 -9 0.16 0.10
 -13 7 9 0.11 -0.02
 12 -7 -9 0.25 0.04
 -5 12 -9 0.29 0.16
 -12 7 9 0.25 -0.04
 11 -7 -9 0.30 0.04
 -4 11 -9 0.33 0.18
 -11 7 9 0.30 -0.04
 10 -7 -9 0.24 0.05
 -3 10 -9 0.25 0.12
 -10 7 9 0.24 -0.05
 -2 9 -9 0.10 0.03
 9 -7 -9 0.09 0.05
 -9 7 9 0.09 -0.05
 -1 8 -9 -0.08 -0.05
 8 -7 -9 -0.08 0.05
 -8 7 9 -0.08 -0.05
 0 7 -9 -0.23 -0.09
 7 -7 -9 -0.22 0.04
 -7 0 -9 -0.23 0.09
 -7 7 9 -0.22 -0.04
 -7 1 -9 -0.29 0.06
 6 -7 -9 -0.28 0.01
 -6 7 9 -0.28 -0.01
 -7 2 -9 -0.24 0.02
 5 -7 -9 -0.24 -0.02
 -5 7 9 -0.24 0.02
 -7 3 -9 -0.09 -0.01
 4 -7 -9 -0.10 -0.03
 3 -7 -9 0.09 -0.04
 -7 4 -9 0.10 -0.01
 2 -7 -9 0.24 -0.04
 -7 5 -9 0.25 0.01
 -7 6 -9 0.29 0.02
 1 -7 -9 0.29 -0.06
 -7 7 -9 0.22 0.02
 0 -7 -9 0.22 -0.08
 -1 -7 -9 0.08 -0.06
 -7 8 -9 0.07 0.00
 -8 1 9 0.09 -0.04
 -7 9 -9 -0.10 -0.03
 -9 2 9 -0.09 0.00
 -7 10 -9 -0.24 -0.04
 -10 3 9 -0.25 0.04
 -7 11 -9 -0.30 -0.03
 -11 4 9 -0.33 0.07
 -7 12 -9 -0.25 -0.01
 -12 5 9 -0.30 0.07
 -7 13 -9 -0.12 0.01
 -13 6 9 -0.17 0.04
 14 -8 -9 0.20 0.03
 -6 14 -9 0.24 0.09
 -14 8 9 0.20 -0.03
 -5 13 -9 0.44 0.16
 13 -8 -9 0.40 0.06
 -13 8 9 0.40 -0.06
 12 -8 -9 0.55 0.07
 -4 12 -9 0.58 0.19
 -12 8 9 0.55 -0.07
 -3 11 -9 0.59 0.15
 11 -8 -9 0.57 0.07
 -11 8 9 0.57 -0.07
 10 -8 -9 0.47 0.07
 -2 10 -9 0.47 0.06
 -10 8 9 0.47 -0.07
 -1 9 -9 0.28 -0.03
 9 -8 -9 0.29 0.06
 -9 8 9 0.29 -0.06
 0 8 -9 0.07 -0.08
 8 -8 -9 0.09 0.04
 -8 0 -9 0.07 0.07
 -8 8 9 0.09 -0.04
 7 -8 -9 -0.07 0.01
 -8 1 -9 -0.08 0.05
 -7 8 9 -0.07 -0.01
 6 -8 -9 -0.14 -0.01
 -8 2 -9 -0.15 0.00
 -8 3 -9 -0.11 -0.03
 5 -8 -9 -0.11 -0.02
 3 -8 -9 0.10 0.00
 -8 5 -9 0.11 0.00
 -8 6 -9 0.15 0.03
 2 -8 -9 0.14 -0.01
 1 -8 -9 0.08 -0.04
 -8 7 -9 0.07 0.04
 -8 8 -9 -0.09 0.02
 0 -8 -9 -0.07 -0.07
 -8 0 9 -0.07 -0.04
 -8 9 -9 -0.29 -0.01
 -1 -8 -9 -0.27 -0.06
 -9 1 9 -0.27 -0.03
 -8 10 -9 -0.47 -0.04
 -10 2 9 -0.47 0.01
 -8 11 -9 -0.57 -0.06
 -11 3 9 -0.59 0.06
 -8 12 -9 -0.55 -0.07
 -12 4 9 -0.58 0.08
 -8 13 -9 -0.41 -0.06
 -13 5 9 -0.44 0.07
 -8 14 -9 -0.20 -0.04
 -14 6 9 -0.24 0.05
 14 -9 -9 0.42 0.05
 -5 14 -9 0.44 0.12
 -14 9 9 0.42 -0.05
 -4 13 -9 0.71 0.15
 13 -9 -9 0.69 0.07
 -13 9 9 0.69 -0.07
 12 -9 -9 0.85 0.08
 -3 12 -9 0.86 0.13
 -12 9 9 0.85 -0.08
 11 -9 -9 0.86 0.07
 -2 11 -9 0.86 0.06
 -11 9 9 0.86 -0.07
 10 -9 -9 0.74 0.06
 -1 10 -9 0.72 -0.03
 -10 9 9 0.74 -0.06
 9 -9 -9 0.52 0.04
 -9 9 9 0.52 -0.04
 8 -9 -9 0.29 0.01
 -9 1 -9 0.28 0.02
 -9 2 -9 0.10 -0.03
 7 -9 -9 0.10 -0.02
 6 -9 -9 0.00 -0.02
 -9 3 -9 0.00 -0.07
 -9 4 -9 -0.01 -0.06
 5 -9 -9 -0.02 0.00
 -9 5 -9 0.02 -0.01
 4 -9 -9 0.00 0.04
 3 -9 -9 -0.01 0.06
 -9 6 -9 0.01 0.04
 2 -9 -9 -0.10 0.03
 -9 7 -9 -0.10 0.07
 1 -9 -9 -0.28 -0.02
 -9 8 -9 -0.29 0.06
 -8 -1 9 -0.26 0.00
 -9 9 -9 -0.52 0.02
 0 -9 -9 -0.50 -0.06
 -9 0 9 -0.50 -0.02
 -1 -9 -9 -0.71 -0.05
 -9 10 -9 -0.74 -0.02
 -10 1 9 -0.72 -0.02
 -9 11 -9 -0.86 -0.05
 -11 2 9 -0.86 0.01
 -9 12 -9 -0.85 -0.07
 -12 3 9 -0.86 0.05
 -9 13 -9 -0.69 -0.07
 -13 4 9 -0.71 0.07
 -9 14 -9 -0.43 -0.06
 -14 5 9 -0.44 0.06
 -4 14 -9 0.62 0.09
 14 -10 -9 0.62 0.04
 -14 10 9 0.62 -0.04
 -3 13 -9 0.93 0.08
 13 -10 -9 0.93 0.06
 -13 10 9 0.93 -0.06
 12 -10 -9 1.11 0.06
 -2 12 -9 1.10 0.03
 -12 10 9 1.11 -0.06
 11 -10 -9 1.12 0.05
 -1 11 -9 1.10 -0.04
 -11 10 9 1.12 -0.05
 10 -10 -9 0.98 0.04
 -10 10 9 0.98 -0.04
 -10 1 -9 0.72 0.00
 9 -10 -9 0.74 0.01
 -10 2 -9 0.47 -0.07
 8 -10 -9 0.47 -0.02
 -10 3 -9 0.25 -0.11
 7 -10 -9 0.24 -0.04
 6 -10 -9 0.09 -0.01
 -10 4 -9 0.10 -0.11
 4 -10 -9 -0.11 0.10
 -10 6 -9 -0.08 0.03
 -10 7 -9 -0.24 0.09
 3 -10 -9 -0.25 0.11
 2 -10 -9 -0.47 0.07
 -10 8 -9 -0.47 0.10
 1 -10 -9 -0.72 -0.01
 -10 9 -9 -0.74 0.07
 -9 -1 9 -0.70 0.02
 0 -10 -9 -0.95 -0.06
 -10 10 -9 -0.98 0.02
 -10 0 9 -0.94 -0.02
 -1 -10 -9 -1.08 -0.05
 -10 11 -9 -1.12 -0.02
 -11 1 9 -1.09 -0.02
 -10 12 -9 -1.11 -0.05
 -12 2 9 -1.09 0.01
 -10 13 -9 -0.93 -0.05
 -13 3 9 -0.92 0.04
 -10 14 -9 -0.62 -0.05
 -14 4 9 -0.61 0.04
 13 -11 -9 1.07 0.03
 -2 13 -9 1.04 -0.02
 -13 11 9 1.07 -0.03
 12 -11 -9 1.25 0.04
 -12 11 9 1.25 -0.04
 11 -11 -9 1.27 0.03
 10 -11 -9 1.12 0.01
 -11 2 -9 0.87 -0.08
 9 -11 -9 0.87 -0.02
 -11 3 -9 0.59 -0.15
 8 -11 -9 0.57 -0.05
 7 -11 -9 0.30 -0.04
 -11 4 -9 0.33 -0.16
 -11 5 -9 0.12 -0.10
 6 -11 -9 0.08 0.02
 5 -11 -9 -0.11 0.10
 -11 6 -9 -0.08 0.01
 4 -11 -9 -0.33 0.16
 -11 7 -9 -0.30 0.10
 3 -11 -9 -0.58 0.15
 -11 8 -9 -0.57 0.13
 -11 9 -9 -0.86 0.11
 2 -11 -9 -0.86 0.07
 -9 -2 9 -0.83 0.08
 -11 10 -9 -1.12 0.06
 1 -11 -9 -1.10 -0.01
 -10 -1 9 -1.07 0.01
 -11 11 -9 -1.27 0.01
 0 -11 -9 -1.23 -0.06
 -11 0 9 -1.22 -0.03
 -11 12 -9 -1.25 -0.02
 -12 1 9 -1.21 -0.04
 -11 13 -9 -1.07 -0.03
 -13 2 9 -1.03 -0.01
 13 -12 -9 1.05 0.02
 12 -12 -9 1.24 0.02
 11 -12 -9 1.25 0.01
 10 -12 -9 1.11 -0.01
 -12 2 -9 1.10 -0.06
 -12 3 -9 0.87 -0.15
 9 -12 -9 0.86 -0.05
 -12 4 -9 0.58 -0.18
 8 -12 -9 0.55 -0.06
 -12 5 -9 0.30 -0.14
 7 -12 -9 0.25 -0.03
 5 -12 -9 -0.29 0.14
 -12 7 -9 -0.25 0.07
 -12 8 -9 -0.55 0.14
 4 -12 -9 -0.58 0.18
 3 -12 -9 -0.86 0.14
 -12 9 -9 -0.85 0.14
 -9 -3 9 -0.84 0.12
 -12 10 -9 -1.11 0.09
 2 -12 -9 -1.09 0.05
 -10 -2 9 -1.08 0.05
 -12 11 -9 -1.25 0.03
 1 -12 -9 -1.22 -0.03
 -11 -1 9 -1.20 -0.02
 0 -12 -9 -1.19 -0.06
 -12 12 -9 -1.24 0.00
 -12 0 9 -1.18 -0.05
 -12 13 -9 -1.05 -0.01
 -13 1 9 -1.00 -0.05
 12 -13 -9 1.05 0.02
 11 -13 -9 1.07 0.01
 10 -13 -9 0.94 -0.03
 -13 3 -9 0.93 -0.10
 9 -13 -9 0.70 -0.06
 -13 4 -9 0.71 -0.17
 8 -13 -9 0.41 -0.06
 -13 5 -9 0.44 -0.16
 7 -13 -9 0.12 0.00
 -13 6 -9 0.17 -0.08
 6 -13 -9 -0.16 0.08
 -13 7 -9 -0.11 0.03
 -13 8 -9 -0.40 0.11
 5 -13 -9 -0.44 0.14
 4 -13 -9 -0.71 0.15
 -13 9 -9 -0.69 0.13
 -9 -4 9 -0.71 0.12
 3 -13 -9 -0.92 0.09
 -13 10 -9 -0.93 0.10
 -10 -3 9 -0.93 0.07
 2 -13 -9 -1.04 0.02
 -13 11 -9 -1.07 0.05
 -11 -2 9 -1.03 0.00
 1 -13 -9 -1.00 -0.04
 -13 12 -9 -1.05 0.00
 -12 -1 9 -1.00 -0.05
 -14 4 -9 0.62 -0.11
 10 -14 -9 0.63 -0.03
 9 -14 -9 0.43 -0.05
 -14 5 -9 0.45 -0.13
 8 -14 -9 0.20 -0.04
 -14 6 -9 0.24 -0.10
 6 -14 -9 -0.24 0.08
 -14 8 -9 -0.20 0.06
 -14 9 -9 -0.43 0.10
 5 -14 -9 -0.45 0.11
 -9 -5 9 -0.46 0.09
 4 -14 -9 -0.62 0.09
 -14 10 -9 -0.62 0.09
 -10 -4 9 -0.65 0.07
 0 0 -10 -1.76 -0.01
 -1 0 -10 -1.47 -0.02
 0 1 -10 -1.46 0.00
 -1 1 -10 -1.45 -0.02
 -1 2 -10 -0.93 -0.01
 -1 -1 -10 -0.97 -0.01
 2 -1 -10 -0.93 0.01
 3 -2 -10 -0.18 0.00
 -1 3 -10 -0.22 -0.01
 -2 -1 -10 -0.26 0.01
 2 -2 -10 -0.70 0.00
 -2 0 -10 -0.75 0.00
 0 2 -10 -0.74 0.00
 -2 1 -10 -0.94 -0.02
 1 -2 -10 -0.94 0.00
 -2 2 -10 -0.70 -0.02
 3 -1 -10 -0.22 0.00
 -2 3 -10 -0.19 -0.02
 -1 -2 -10 -0.26 0.01
 4 -2 -10 0.30 -0.01
 -2 -2 -10 0.24 0.03
 -2 4 -10 0.30 -0.02
 -2 5 -10 0.55 -0.02
 5 -3 -10 0.60 -0.03
 -3 -2 -10 0.53 0.05
 -1 4 -10 0.33 -0.02
 4 -3 -10 0.41 0.00
 -3 -1 -10 0.31 0.04
 0 3 -10 0.00 -0.01
 3 -3 -10 0.09 0.01
 -3 0 -10 -0.01 0.02
 -3 1 -10 -0.23 0.00
 2 -3 -10 -0.19 0.01
 -3 2 -10 -0.20 -0.02
 1 -3 -10 -0.23 0.00
 0 -3 -10 -0.01 0.01
 3 0 -10 0.00 -0.01
 -3 3 -10 0.08 -0.03
 -3 4 -10 0.41 -0.03
 4 -1 -10 0.33 -0.02
 5 -2 -10 0.55 -0.03
 -3 5 -10 0.60 -0.03
 6 -3 -10 0.63 -0.04
 -3 6 -10 0.62 -0.02
 -6 3 10 0.63 0.04
 -3 7 -10 0.60 0.00
 7 -4 -10 0.64 -0.04
 -7 4 10 0.64 0.04
 6 -4 -10 0.68 -0.03
 -2 6 -10 0.59 -0.01
 -6 4 10 0.68 0.03
 -1 5 -10 0.56 -0.02
 -4 -1 -10 0.57 0.04
 5 -4 -10 0.68 -0.01
 -5 4 10 0.68 0.01
 0 4 -10 0.46 -0.02
 -4 0 -10 0.46 0.03
 4 -4 -10 0.59 0.01
 3 -4 -10 0.41 0.02
 -4 1 -10 0.32 0.01
 -4 2 -10 0.29 -0.01
 2 -4 -10 0.29 0.01
 -4 3 -10 0.40 -0.02
 1 -4 -10 0.32 0.01
 -4 4 -10 0.58 -0.03
 0 -4 -10 0.45 0.03
 4 0 -10 0.46 -0.02
 -4 5 -10 0.68 -0.03
 5 -1 -10 0.57 -0.02
 -4 6 -10 0.67 -0.02
 6 -2 -10 0.59 -0.03
 7 -3 -10 0.61 -0.03
 -4 7 -10 0.64 -0.01
 -7 3 10 0.61 0.03
 8 -4 -10 0.69 -0.02
 -4 8 -10 0.68 0.00
 -8 4 10 0.69 0.02
 9 -5 -10 0.80 -0.01
 -4 9 -10 0.77 0.01
 -9 5 10 0.80 0.01
 -3 8 -10 0.64 0.00
 8 -5 -10 0.70 -0.03
 -8 5 10 0.70 0.03
 7 -5 -10 0.66 -0.03
 -2 7 -10 0.57 -0.01
 -7 5 10 0.66 0.03
 -1 6 -10 0.57 -0.02
 6 -5 -10 0.70 -0.02
 -5 -1 -10 0.59 0.03
 -6 5 10 0.70 0.02
 -5 0 -10 0.59 0.03
 5 -5 -10 0.73 0.01
 0 5 -10 0.59 -0.03
 -5 5 10 0.73 -0.01
 4 -5 -10 0.68 0.02
 -5 1 -10 0.56 0.02
 -4 5 10 0.68 -0.02
 3 -5 -10 0.59 0.02
 -5 2 -10 0.55 0.00
 -3 5 10 0.59 -0.02
 -5 3 -10 0.59 -0.01
 2 -5 -10 0.54 0.02
 -5 4 -10 0.67 -0.02
 4 1 -10 0.57 0.00
 1 -5 -10 0.55 0.02
 0 -5 -10 0.58 0.04
 -5 5 -10 0.72 -0.02
 5 0 -10 0.59 -0.01
 6 -1 -10 0.58 -0.01
 -1 -5 -10 0.59 0.03
 -5 6 -10 0.69 -0.02
 7 -2 -10 0.57 0.00
 -5 7 -10 0.66 -0.02
 -7 2 10 0.57 0.00
 -5 8 -10 0.69 -0.01
 8 -3 -10 0.64 0.00
 -8 3 10 0.64 0.00
 -5 9 -10 0.80 0.00
 9 -4 -10 0.77 0.01
 -9 4 10 0.77 -0.01
 10 -5 -10 0.85 0.02
 -5 10 -10 0.85 0.00
 -10 5 10 0.85 -0.02
 -5 11 -10 0.71 0.01
 11 -6 -10 0.72 0.02
 -11 6 10 0.72 -0.02
 10 -6 -10 0.83 0.00
 -4 10 -10 0.79 0.01
 -10 6 10 0.83 0.00
 -3 9 -10 0.70 0.00
 9 -6 -10 0.76 -0.02
 -9 6 10 0.76 0.02
 -2 8 -10 0.58 -0.01
 8 -6 -10 0.67 -0.03
 -8 6 10 0.67 0.03
 -1 7 -10 0.54 -0.03
 7 -6 -10 0.64 -0.02
 -7 6 10 0.64 0.02
 -6 0 -10 0.57 0.02
 6 -6 -10 0.68 0.01
 0 6 -10 0.56 -0.03
 -6 6 10 0.68 -0.01
 -6 1 -10 0.58 0.01
 5 -6 -10 0.70 0.02
 -5 6 10 0.70 -0.02
 4 -6 -10 0.67 0.02
 -6 2 -10 0.59 -0.01
 -4 6 10 0.67 -0.02
 3 -6 -10 0.61 0.02
 -6 3 -10 0.62 -0.02
 -6 4 -10 0.67 -0.02
 2 -6 -10 0.58 0.02
 1 -6 -10 0.57 0.02
 -6 5 -10 0.69 -0.01
 0 -6 -10 0.56 0.03
 -6 6 -10 0.67 -0.01
 -1 -6 -10 0.56 0.01
 -6 7 -10 0.63 -0.01
 -6 8 -10 0.65 -0.01
 -8 2 10 0.58 -0.03
 -6 9 -10 0.75 -0.01
 -9 3 10 0.70 -0.03
 -6 10 -10 0.82 -0.01
 -10 4 10 0.78 -0.03
 -6 11 -10 0.73 -0.01
 11 -5 -10 0.70 0.02
 -11 5 10 0.70 -0.02
 -6 12 -10 0.41 0.00
 12 -6 -10 0.40 0.02
 -12 6 10 0.40 -0.02
 -6 13 -10 0.00 0.01
 -13 7 10 -0.01 -0.01
 12 -7 -10 0.38 0.02
 -5 12 -10 0.38 0.01
 -12 7 10 0.38 -0.02
 -4 11 -10 0.62 0.01
 11 -7 -10 0.65 0.01
 -11 7 10 0.65 -0.01
 10 -7 -10 0.72 0.00
 -3 10 -10 0.67 0.00
 -10 7 10 0.72 0.00
 -2 9 -10 0.60 -0.02
 9 -7 -10 0.66 -0.02
 -9 7 10 0.66 0.02
 -1 8 -10 0.53 -0.03
 8 -7 -10 0.60 -0.01
 -8 7 10 0.60 0.01
 -7 0 -10 0.53 0.01
 7 -7 -10 0.60 0.00
 0 7 -10 0.53 -0.04
 -7 7 10 0.60 0.00
 -7 1 -10 0.55 0.00
 6 -7 -10 0.64 0.02
 -6 7 10 0.64 -0.02
 5 -7 -10 0.65 0.03
 -7 2 -10 0.57 -0.02
 4 -7 -10 0.63 0.02
 -7 3 -10 0.60 -0.03
 3 -7 -10 0.59 0.01
 -7 4 -10 0.64 -0.02
 -7 5 -10 0.66 -0.01
 2 -7 -10 0.56 0.01
 1 -7 -10 0.54 0.02
 -7 6 -10 0.64 0.00
 0 -7 -10 0.53 0.01
 -7 7 -10 0.59 0.00
 -1 -7 -10 0.57 -0.01
 -7 8 -10 0.59 0.00
 -8 1 10 0.53 -0.04
 -7 9 -10 0.64 -0.01
 -9 2 10 0.59 -0.04
 -7 10 -10 0.70 -0.02
 -10 3 10 0.66 -0.04
 -7 11 -10 0.65 -0.02
 -11 4 10 0.61 -0.03
 -7 12 -10 0.39 -0.02
 -12 5 10 0.36 -0.02
 -7 13 -10 0.00 -0.01
 -13 6 10 -0.01 -0.01
 -7 14 -10 -0.32 0.01
 -14 7 10 -0.34 0.00
 -6 14 -10 -0.29 0.02
 -14 8 10 -0.32 0.00
 13 -8 -10 -0.01 0.01
 -5 13 -10 0.00 0.01
 -13 8 10 -0.01 -0.01
 12 -8 -10 0.32 0.02
 -4 12 -10 0.31 0.01
 -12 8 10 0.32 -0.02
 11 -8 -10 0.53 0.01
 -3 11 -10 0.49 0.00
 -11 8 10 0.53 -0.01
 10 -8 -10 0.57 0.00
 -2 10 -10 0.53 -0.01
 -10 8 10 0.57 0.00
 9 -8 -10 0.55 -0.01
 -1 9 -10 0.52 -0.03
 -9 8 10 0.55 0.01
 8 -8 -10 0.54 0.00
 0 8 -10 0.52 -0.03
 -8 8 10 0.54 0.00
 -8 1 -10 0.54 0.00
 7 -8 -10 0.59 0.02
 -8 2 -10 0.59 -0.02
 6 -8 -10 0.65 0.03
 5 -8 -10 0.68 0.02
 -8 3 -10 0.64 -0.04
 4 -8 -10 0.67 0.01
 -8 4 -10 0.68 -0.04
 -8 5 -10 0.69 -0.02
 3 -8 -10 0.63 0.00
 2 -8 -10 0.58 0.00
 -8 6 -10 0.66 0.00
 -8 7 -10 0.59 0.02
 1 -8 -10 0.54 0.00
 0 -8 -10 0.53 -0.01
 -8 8 -10 0.54 0.02
 -8 0 10 0.51 -0.04
 -8 9 -10 0.53 0.00
 -1 -8 -10 0.55 -0.03
 -9 1 10 0.50 -0.04
 -8 10 -10 0.55 -0.01
 -10 2 10 0.52 -0.03
 -8 11 -10 0.51 -0.02
 -11 3 10 0.48 -0.03
 -8 12 -10 0.32 -0.03
 -12 4 10 0.30 -0.02
 -8 13 -10 0.00 -0.02
 -13 5 10 -0.01 -0.01
 -8 14 -10 -0.31 -0.01
 -14 6 10 -0.31 0.00
 13 -9 -10 0.01 0.02
 -4 13 -10 0.03 0.01
 -13 9 10 0.01 -0.02
 12 -9 -10 0.26 0.02
 -3 12 -10 0.25 0.01
 -12 9 10 0.26 -0.02
 -2 11 -10 0.38 0.00
 11 -9 -10 0.40 0.00
 -11 9 10 0.40 0.00
 -1 10 -10 0.43 -0.01
 10 -9 -10 0.44 -0.01
 -10 9 10 0.44 0.01
 9 -9 -10 0.47 -0.01
 8 -9 -10 0.54 0.01
 -9 1 -10 0.52 0.01
 7 -9 -10 0.65 0.02
 -9 2 -10 0.60 -0.01
 6 -9 -10 0.74 0.02
 -9 3 -10 0.70 -0.03
 5 -9 -10 0.78 0.01
 -9 4 -10 0.77 -0.04
 4 -9 -10 0.76 0.00
 -9 5 -10 0.80 -0.03
 -9 6 -10 0.75 0.00
 3 -9 -10 0.69 0.00
 -9 7 -10 0.65 0.02
 2 -9 -10 0.60 0.00
 -9 8 -10 0.54 0.02
 1 -9 -10 0.53 -0.01
 -9 9 -10 0.46 0.02
 0 -9 -10 0.48 -0.02
 -9 0 10 0.46 -0.02
 -1 -9 -10 0.47 -0.03
 -9 10 -10 0.43 0.01
 -10 1 10 0.42 -0.02
 -9 11 -10 0.38 -0.01
 -11 2 10 0.37 -0.02
 -9 12 -10 0.25 -0.02
 -12 3 10 0.25 -0.02
 -9 13 -10 0.01 -0.03
 -13 4 10 0.02 -0.01
 13 -10 -10 0.09 0.02
 -3 13 -10 0.11 0.02
 -13 10 10 0.09 -0.02
 12 -10 -10 0.25 0.01
 -2 12 -10 0.25 0.02
 -12 10 10 0.25 -0.01
 11 -10 -10 0.33 -0.01
 10 -10 -10 0.36 -0.01
 9 -10 -10 0.43 0.00
 8 -10 -10 0.55 0.01
 -10 2 -10 0.54 0.00
 -10 3 -10 0.67 -0.01
 7 -10 -10 0.70 0.02
 -10 4 -10 0.79 -0.02
 6 -10 -10 0.81 0.02
 5 -10 -10 0.84 0.00
 -10 5 -10 0.85 -0.02
 4 -10 -10 0.78 0.00
 -10 6 -10 0.82 -0.01
 3 -10 -10 0.67 0.00
 -10 7 -10 0.71 0.01
 2 -10 -10 0.54 0.00
 -10 8 -10 0.57 0.03
 1 -10 -10 0.45 -0.01
 -10 9 -10 0.44 0.03
 -9 -1 10 0.45 0.00
 0 -10 -10 0.39 -0.03
 -10 10 -10 0.36 0.02
 -10 0 10 0.37 0.00
 -10 11 -10 0.31 0.00
 -11 1 10 0.33 -0.01
 -10 12 -10 0.23 -0.01
 -12 2 10 0.25 -0.01
 -10 13 -10 0.07 -0.02
 -13 3 10 0.10 -0.01
 13 -11 -10 0.21 0.01
 12 -11 -10 0.29 -0.01
 11 -11 -10 0.30 -0.02
 10 -11 -10 0.32 -0.02
 9 -11 -10 0.38 0.00
 -11 2 -10 0.38 0.00
 8 -11 -10 0.51 0.01
 -11 3 -10 0.49 0.01
 -11 4 -10 0.62 0.00
 7 -11 -10 0.64 0.02
 -11 5 -10 0.71 0.00
 6 -11 -10 0.71 0.01
 5 -11 -10 0.70 0.01
 -11 6 -10 0.72 0.00
 -11 7 -10 0.65 0.01
 4 -11 -10 0.62 0.01
 -11 8 -10 0.52 0.02
 3 -11 -10 0.50 0.01
 -11 9 -10 0.40 0.03
 2 -11 -10 0.40 0.00
 -9 -2 10 0.43 0.03
 -11 10 -10 0.32 0.02
 1 -11 -10 0.34 -0.02
 -10 -1 10 0.35 0.02
 -11 11 -10 0.30 0.01
 0 -11 -10 0.32 -0.03
 -11 0 10 0.32 0.01
 -11 12 -10 0.27 0.00
 -12 1 10 0.30 0.00
 -11 13 -10 0.19 -0.01
 -13 2 10 0.24 -0.01
 12 -12 -10 0.33 -0.02
 11 -12 -10 0.27 -0.03
 10 -12 -10 0.23 -0.02
 -12 3 -10 0.26 0.00
 9 -12 -10 0.25 0.00
 -12 4 -10 0.31 0.01
 8 -12 -10 0.31 0.01
 7 -12 -10 0.38 0.01
 -12 5 -10 0.37 0.01
 6 -12 -10 0.40 0.01
 -12 6 -10 0.41 0.01
 5 -12 -10 0.37 0.01
 -12 7 -10 0.38 0.02
 -12 8 -10 0.32 0.03
 4 -12 -10 0.31 0.01
 3 -12 -10 0.27 0.01
 -12 9 -10 0.26 0.03
 -9 -3 10 0.32 0.04
 2 -12 -10 0.26 -0.01
 -12 10 -10 0.24 0.02
 -10 -2 10 0.29 0.03
 1 -12 -10 0.31 -0.02
 -12 11 -10 0.28 0.01
 -11 -1 10 0.31 0.02
 -12 12 -10 0.33 0.01
 0 -12 -10 0.35 -0.03
 -12 0 10 0.36 0.00
 11 -13 -10 0.19 -0.03
 10 -13 -10 0.07 -0.01
 9 -13 -10 0.00 0.01
 -13 4 -10 0.03 0.00
 -13 5 -10 0.00 0.00
 8 -13 -10 -0.01 0.01
 7 -13 -10 -0.01 0.01
 -13 6 -10 0.00 0.01
 6 -13 -10 0.00 0.01
 -13 7 -10 0.00 0.02
 -13 8 -10 -0.01 0.03
 5 -13 -10 0.01 0.01
 4 -13 -10 0.04 0.01
 -13 9 -10 0.01 0.03
 -9 -4 10 0.10 0.04
 3 -13 -10 0.12 0.00
 -13 10 -10 0.08 0.03
 -10 -3 10 0.14 0.04
 2 -13 -10 0.24 -0.02
 -13 11 -10 0.21 0.02
 -11 -2 10 0.24 0.02
 8 -14 -10 -0.32 0.01
 -14 6 -10 -0.29 -0.01
 7 -14 -10 -0.33 0.00
 -14 7 -10 -0.33 0.00
 6 -14 -10 -0.29 0.00
 -14 8 -10 -0.31 0.01
 -1 0 -11 -0.01 -0.01
 0 1 -11 -0.01 0.01
 -1 1 -11 0.02 0.00
 3 -2 -11 -0.10 0.00
 -1 3 -11 -0.10 0.00
 -2 -1 -11 -0.10 -0.01
 -2 0 -11 -0.09 -0.01
 2 -2 -11 -0.09 0.00
 0 2 -11 -0.09 0.01
 -2 2 -11 0.09 -0.01
 3 -1 -11 0.10 0.02
 -2 3 -11 0.10 -0.01
 -2 5 -11 -0.17 0.00
 5 -3 -11 -0.14 0.00
 -3 -1 -11 -0.27 0.00
 4 -3 -11 -0.26 0.00
 -1 4 -11 -0.27 0.01
 0 3 -11 -0.25 0.01
 3 -3 -11 -0.24 -0.01
 -3 0 -11 -0.25 -0.01
 -3 1 -11 -0.10 -0.01
 2 -3 -11 -0.10 -0.01
 -3 2 -11 0.10 -0.01
 1 -3 -11 0.10 -0.02
 3 0 -11 0.25 0.02
 -3 3 -11 0.24 -0.02
 -3 4 -11 0.26 -0.01
 4 -1 -11 0.27 0.02
 5 -2 -11 0.17 0.01
 -3 5 -11 0.15 0.00
 -3 7 -11 -0.09 0.01
 7 -4 -11 -0.09 0.01
 -7 4 11 -0.09 -0.01
 -2 6 -11 -0.27 0.01
 6 -4 -11 -0.25 0.00
 -6 4 11 -0.25 0.00
 -1 5 -11 -0.42 0.01
 -4 -1 -11 -0.42 0.00
 5 -4 -11 -0.40 0.00
 -5 4 11 -0.40 0.00
 4 -4 -11 -0.41 -0.01
 -4 0 -11 -0.43 0.00
 0 4 -11 -0.43 0.01
 -4 1 -11 -0.27 -0.01
 3 -4 -11 -0.26 -0.01
 1 -4 -11 0.27 -0.02
 -4 3 -11 0.26 -0.02
 0 -4 -11 0.43 -0.02
 -4 4 -11 0.41 -0.02
 4 0 -11 0.43 0.01
 5 -1 -11 0.42 0.01
 -4 5 -11 0.40 -0.01
 -4 6 -11 0.26 0.00
 6 -2 -11 0.27 0.01
 -4 7 -11 0.09 0.01
 7 -3 -11 0.09 0.01
 -7 3 11 0.09 -0.01
 9 -5 -11 0.01 0.00
 -4 9 -11 0.05 -0.01
 -9 5 11 0.01 0.00
 -3 8 -11 -0.04 0.00
 8 -5 -11 -0.05 0.00
 -8 5 11 -0.05 0.00
 7 -5 -11 -0.22 0.00
 -2 7 -11 -0.23 0.01
 -7 5 11 -0.22 0.00
 6 -5 -11 -0.41 -0.01
 -1 6 -11 -0.43 0.02
 -6 5 11 -0.41 0.01
 5 -5 -11 -0.49 -0.01
 -5 0 -11 -0.51 -0.01
 0 5 -11 -0.51 0.01
 -5 5 11 -0.49 0.01
 4 -5 -11 -0.40 0.00
 -5 1 -11 -0.42 -0.01
 -4 5 11 -0.40 0.00
 -5 2 -11 -0.17 -0.01
 3 -5 -11 -0.15 0.00
 2 -5 -11 0.17 -0.01
 -5 3 -11 0.15 -0.02
 -5 4 -11 0.40 -0.02
 1 -5 -11 0.42 -0.01
 -5 5 -11 0.49 -0.02
 0 -5 -11 0.51 0.00
 -5 6 -11 0.42 0.00
 -5 7 -11 0.23 0.01
 7 -2 -11 0.22 -0.01
 -7 2 11 0.22 0.01
 8 -3 -11 0.03 0.00
 -5 8 -11 0.05 0.02
 -8 3 11 0.03 0.00
 -5 9 -11 -0.02 0.02
 9 -4 -11 -0.05 0.00
 -9 4 11 -0.05 0.00
 -5 11 -11 0.09 -0.03
 11 -6 -11 0.04 -0.03
 -11 6 11 0.04 0.03
 -4 10 -11 0.14 -0.05
 10 -6 -11 0.10 -0.03
 -10 6 11 0.10 0.03
 -3 9 -11 0.11 -0.03
 9 -6 -11 0.08 -0.02
 -9 6 11 0.08 0.02
 -2 8 -11 -0.05 0.00
 8 -6 -11 -0.05 -0.01
 -8 6 11 -0.05 0.01
 -1 7 -11 -0.26 0.02
 7 -6 -11 -0.25 -0.01
 -7 6 11 -0.25 0.01
 6 -6 -11 -0.40 -0.01
 0 6 -11 -0.42 0.02
 -6 0 -11 -0.42 -0.02
 -6 6 11 -0.40 0.01
 -6 1 -11 -0.43 -0.02
 5 -6 -11 -0.41 0.00
 -5 6 11 -0.41 0.00
 4 -6 -11 -0.26 0.01
 -6 2 -11 -0.27 -0.01
 2 -6 -11 0.27 0.00
 -6 4 -11 0.25 -0.02
 1 -6 -11 0.43 0.00
 -6 5 -11 0.41 -0.02
 -6 6 -11 0.41 -0.01
 0 -6 -11 0.42 0.01
 -6 7 -11 0.26 0.01
 -6 8 -11 0.06 0.03
 -8 2 11 0.04 0.02
 -6 9 -11 -0.08 0.04
 -9 3 11 -0.11 0.01
 -6 10 -11 -0.11 0.04
 -10 4 11 -0.14 0.00
 -6 11 -11 -0.05 0.02
 -11 5 11 -0.09 0.01
 -6 13 -11 0.04 -0.02
 -13 7 11 0.00 0.05
 12 -7 -11 0.06 -0.05
 -5 12 -11 0.10 -0.06
 -12 7 11 0.06 0.05
 -4 11 -11 0.18 -0.08
 11 -7 -11 0.15 -0.05
 -11 7 11 0.15 0.05
 10 -7 -11 0.19 -0.03
 -3 10 -11 0.22 -0.06
 -10 7 11 0.19 0.03
 9 -7 -11 0.15 -0.02
 -2 9 -11 0.16 -0.02
 -9 7 11 0.15 0.02
 8 -7 -11 0.00 -0.02
 -1 8 -11 0.01 0.02
 -8 7 11 0.00 0.02
 7 -7 -11 -0.16 -0.01
 0 7 -11 -0.17 0.02
 -7 7 11 -0.16 0.01
 -7 1 -11 -0.26 -0.03
 6 -7 -11 -0.26 0.01
 -7 2 -11 -0.23 -0.02
 5 -7 -11 -0.23 0.02
 -7 3 -11 -0.09 -0.01
 4 -7 -11 -0.09 0.02
 -7 4 -11 0.09 -0.01
 3 -7 -11 0.09 0.01
 -7 5 -11 0.23 -0.02
 2 -7 -11 0.23 0.00
 -7 6 -11 0.26 -0.02
 1 -7 -11 0.26 0.01
 -7 7 -11 0.16 0.00
 0 -7 -11 0.17 0.02
 -7 8 -11 0.00 0.02
 -8 1 11 -0.01 0.04
 -7 9 -11 -0.14 0.04
 -9 2 11 -0.16 0.03
 -7 10 -11 -0.20 0.05
 -10 3 11 -0.22 0.00
 -7 11 -11 -0.15 0.06
 -11 4 11 -0.18 -0.01
 -7 12 -11 -0.06 0.05
 -12 5 11 -0.10 0.00
 -7 13 -11 0.00 0.03
 -13 6 11 -0.04 0.01
 -5 13 -11 0.05 -0.07
 13 -8 -11 0.02 -0.06
 -13 8 11 0.02 0.06
 12 -8 -11 0.09 -0.05
 -4 12 -11 0.11 -0.10
 -12 8 11 0.09 0.05
 -3 11 -11 0.19 -0.08
 11 -8 -11 0.18 -0.04
 -11 8 11 0.18 0.04
 10 -8 -11 0.23 -0.03
 -2 10 -11 0.24 -0.04
 -10 8 11 0.23 0.03
 9 -8 -11 0.20 -0.02
 -1 9 -11 0.20 0.00
 -9 8 11 0.20 0.02
 8 -8 -11 0.11 -0.01
 -8 1 -11 0.01 -0.03
 7 -8 -11 0.00 0.01
 6 -8 -11 -0.06 0.03
 -8 2 -11 -0.04 -0.01
 5 -8 -11 -0.05 0.03
 -8 3 -11 -0.04 0.00
 3 -8 -11 0.04 -0.01
 -8 5 -11 0.05 -0.02
 -8 6 -11 0.06 -0.03
 2 -8 -11 0.05 -0.01
 -8 7 -11 0.00 -0.02
 1 -8 -11 -0.01 0.01
 -8 8 -11 -0.10 0.00
 0 -8 -11 -0.10 0.02
 -8 0 11 -0.10 0.03
 -8 9 -11 -0.20 0.02
 -9 1 11 -0.20 0.03
 -8 10 -11 -0.23 0.04
 -10 2 11 -0.23 0.01
 -8 11 -11 -0.18 0.05
 -11 3 11 -0.19 -0.02
 -8 12 -11 -0.09 0.06
 -12 4 11 -0.11 -0.03
 -8 13 -11 -0.02 0.05
 -13 5 11 -0.05 -0.02
 -4 13 -11 -0.02 -0.09
 13 -9 -11 -0.03 -0.04
 -13 9 11 -0.03 0.04
 12 -9 -11 0.04 -0.03
 -3 12 -11 0.04 -0.09
 -12 9 11 0.04 0.03
 -2 11 -11 0.12 -0.05
 11 -9 -11 0.13 -0.02
 -11 9 11 0.13 0.02
 -1 10 -11 0.19 0.00
 10 -9 -11 0.21 -0.02
 9 -9 -11 0.23 0.00
 8 -9 -11 0.20 0.02
 -9 2 -11 0.16 0.00
 7 -9 -11 0.15 0.04
 6 -9 -11 0.08 0.04
 -9 3 -11 0.11 0.01
 -9 4 -11 0.05 0.00
 5 -9 -11 0.02 0.02
 -9 5 -11 -0.02 -0.02
 4 -9 -11 -0.05 -0.01
 3 -9 -11 -0.11 -0.04
 -9 6 -11 -0.08 -0.04
 2 -9 -11 -0.16 -0.03
 -9 7 -11 -0.15 -0.04
 -9 8 -11 -0.20 -0.03
 1 -9 -11 -0.20 0.00
 -9 9 -11 -0.22 0.00
 0 -9 -11 -0.22 0.03
 -9 0 11 -0.21 0.02
 -9 10 -11 -0.20 0.02
 -10 1 11 -0.19 0.02
 -9 11 -11 -0.13 0.03
 -11 2 11 -0.11 -0.01
 -9 12 -11 -0.04 0.04
 -12 3 11 -0.03 -0.04
 -9 13 -11 0.03 0.04
 -13 4 11 0.02 -0.04
 -2 12 -11 -0.11 -0.04
 12 -10 -11 -0.08 -0.01
 11 -10 -11 0.02 0.00
 10 -10 -11 0.13 0.00
 9 -10 -11 0.21 0.01
 8 -10 -11 0.23 0.04
 7 -10 -11 0.20 0.05
 -10 3 -11 0.22 0.04
 -10 4 -11 0.14 0.03
 6 -10 -11 0.11 0.04
 -10 6 -11 -0.11 -0.05
 4 -10 -11 -0.14 -0.05
 -10 7 -11 -0.20 -0.06
 3 -10 -11 -0.22 -0.07
 -10 8 -11 -0.23 -0.05
 2 -10 -11 -0.24 -0.04
 1 -10 -11 -0.19 0.00
 -10 9 -11 -0.20 -0.03
 -9 -1 11 -0.18 -0.02
 0 -10 -11 -0.11 0.03
 -10 10 -11 -0.13 0.00
 -10 0 11 -0.10 0.00
 -10 11 -11 -0.02 0.01
 -11 1 11 0.01 0.00
 -10 12 -11 0.08 0.01
 -12 2 11 0.11 -0.03
 12 -11 -11 -0.22 0.01
 11 -11 -11 -0.11 0.01
 10 -11 -11 0.02 0.01
 9 -11 -11 0.13 0.03
 8 -11 -11 0.18 0.05
 -11 3 -11 0.19 0.07
 7 -11 -11 0.15 0.05
 -11 4 -11 0.18 0.06
 -11 5 -11 0.09 0.02
 6 -11 -11 0.05 0.02
 5 -11 -11 -0.09 -0.04
 -11 6 -11 -0.05 -0.04
 4 -11 -11 -0.18 -0.09
 -11 7 -11 -0.15 -0.08
 -11 8 -11 -0.19 -0.08
 3 -11 -11 -0.20 -0.09
 -11 9 -11 -0.13 -0.05
 2 -11 -11 -0.13 -0.04
 -9 -2 11 -0.11 -0.06
 1 -11 -11 0.00 0.01
 -11 10 -11 -0.02 -0.02
 -10 -1 11 0.01 -0.02
 0 -11 -11 0.14 0.04
 -11 11 -11 0.11 0.00
 -11 0 11 0.14 0.00
 -11 12 -11 0.22 -0.01
 -12 1 11 0.25 -0.01
 11 -12 -11 -0.21 0.00
 10 -12 -11 -0.08 0.01
 9 -12 -11 0.04 0.03
 -12 4 -11 0.11 0.09
 8 -12 -11 0.09 0.05
 -12 5 -11 0.10 0.05
 7 -12 -11 0.06 0.04
 -12 7 -11 -0.07 -0.07
 5 -12 -11 -0.10 -0.07
 -12 8 -11 -0.10 -0.08
 4 -12 -11 -0.12 -0.10
 3 -12 -11 -0.04 -0.08
 -12 9 -11 -0.04 -0.06
 -9 -3 11 -0.02 -0.09
 2 -12 -11 0.10 -0.03
 -12 10 -11 0.08 -0.03
 -10 -2 11 0.11 -0.04
 1 -12 -11 0.25 0.01
 -12 11 -11 0.22 0.00
 -11 -1 11 0.25 -0.01
 -13 4 -11 -0.02 0.09
 9 -13 -11 -0.03 0.03
 8 -13 -11 0.02 0.04
 -13 5 -11 0.05 0.07
 7 -13 -11 0.00 0.02
 -13 6 -11 0.04 0.01
 -13 7 -11 0.00 -0.04
 6 -13 -11 -0.04 -0.03
 -13 8 -11 -0.02 -0.07
 5 -13 -11 -0.05 -0.08
 -13 9 -11 0.03 -0.06
 4 -13 -11 0.01 -0.09
 -9 -4 11 0.05 -0.08
 -1 0 -12 0.31 0.02
 -1 1 -12 0.30 0.02
 -1 2 -12 -0.03 0.02
 -2 -1 -12 -0.44 -0.02
 3 -2 -12 -0.46 -0.01
 -1 3 -12 -0.45 0.02
 2 -2 -12 -0.16 0.00
 -2 0 -12 -0.14 0.01
 -2 1 -12 -0.02 0.02
 -2 2 -12 -0.16 0.03
 3 -1 -12 -0.45 0.00
 -2 3 -12 -0.46 0.03
 -2 4 -12 -0.70 0.03
 4 -2 -12 -0.69 0.00
 5 -3 -12 -0.76 0.00
 -2 5 -12 -0.75 0.02
 4 -3 -12 -0.73 -0.01
 -1 4 -12 -0.72 0.02
 -3 -1 -12 -0.73 -0.04
 3 -3 -12 -0.60 -0.01
 0 3 -12 -0.58 0.01
 -3 0 -12 -0.57 -0.02
 -3 1 -12 -0.43 0.00
 2 -3 -12 -0.45 0.00
 -3 2 -12 -0.44 0.02
 1 -3 -12 -0.44 0.00
 -3 3 -12 -0.59 0.03
 4 -1 -12 -0.71 0.01
 -3 4 -12 -0.73 0.04
 -3 5 -12 -0.76 0.03
 5 -2 -12 -0.75 0.01
 -3 6 -12 -0.70 0.02
 6 -3 -12 -0.69 0.01
 7 -4 -12 -0.65 0.01
 -3 7 -12 -0.65 0.00
 -7 4 12 -0.65 -0.01
 6 -4 -12 -0.68 0.01
 -2 6 -12 -0.67 0.01
 -6 4 12 -0.68 -0.01
 -1 5 -12 -0.74 0.01
 5 -4 -12 -0.76 0.00
 -5 4 12 -0.76 0.00
 4 -4 -12 -0.78 -0.01
 0 4 -12 -0.76 0.01
 -4 0 -12 -0.75 -0.03
 3 -4 -12 -0.73 -0.01
 -4 1 -12 -0.70 -0.02
 -4 2 -12 -0.68 0.00
 2 -4 -12 -0.69 0.00
 1 -4 -12 -0.70 -0.01
 -4 3 -12 -0.72 0.02
 -4 4 -12 -0.77 0.03
 5 -1 -12 -0.74 0.01
 -4 5 -12 -0.76 0.04
 6 -2 -12 -0.67 0.01
 -4 6 -12 -0.69 0.03
 7 -3 -12 -0.64 0.01
 -4 7 -12 -0.65 0.02
 -7 3 12 -0.64 -0.01
 8 -4 -12 -0.73 0.00
 -4 8 -12 -0.73 -0.01
 -8 4 12 -0.73 0.00
 -4 9 -12 -0.88 -0.02
 9 -5 -12 -0.87 -0.01
 -9 5 12 -0.87 0.01
 8 -5 -12 -0.68 0.00
 -3 8 -12 -0.68 -0.02
 -8 5 12 -0.68 0.00
 7 -5 -12 -0.59 0.00
 -2 7 -12 -0.59 -0.01
 -7 5 12 -0.59 0.00
 -1 6 -12 -0.62 0.01
 6 -5 -12 -0.63 0.00
 -6 5 12 -0.63 0.00
 -5 0 -12 -0.70 -0.03
 5 -5 -12 -0.71 -0.01
 0 5 -12 -0.70 0.02
 -5 5 12 -0.71 0.01
 -5 1 -12 -0.73 -0.02
 4 -5 -12 -0.76 -0.01
 -5 2 -12 -0.74 -0.01
 3 -5 -12 -0.76 -0.01
 -5 3 -12 -0.75 0.00
 2 -5 -12 -0.74 -0.01
 -5 4 -12 -0.75 0.01
 1 -5 -12 -0.72 -0.02
 0 -5 -12 -0.69 -0.04
 -5 5 -12 -0.70 0.03
 -5 6 -12 -0.62 0.03
 -5 7 -12 -0.59 0.03
 -7 2 12 -0.59 0.00
 -5 8 -12 -0.69 0.01
 -8 3 12 -0.68 0.01
 -5 9 -12 -0.88 -0.01
 -9 4 12 -0.87 0.02
 -5 10 -12 -1.03 -0.02
 -10 5 12 -1.02 0.02
 -5 11 -12 -0.97 -0.02
 -11 6 12 -0.97 0.02
 -4 10 -12 -0.93 -0.02
 10 -6 -12 -0.94 -0.02
 -10 6 12 -0.94 0.02
 -3 9 -12 -0.74 -0.02
 9 -6 -12 -0.74 -0.01
 -9 6 12 -0.74 0.01
 -2 8 -12 -0.56 -0.01
 8 -6 -12 -0.55 0.00
 -8 6 12 -0.55 0.00
 -1 7 -12 -0.50 0.00
 7 -6 -12 -0.48 0.00
 -7 6 12 -0.48 0.00
 6 -6 -12 -0.54 -0.01
 -6 6 12 -0.54 0.01
 -6 1 -12 -0.62 -0.01
 5 -6 -12 -0.63 -0.01
 4 -6 -12 -0.68 -0.01
 -6 2 -12 -0.67 -0.01
 -6 3 -12 -0.69 -0.01
 3 -6 -12 -0.69 0.00
 2 -6 -12 -0.66 -0.01
 -6 4 -12 -0.67 0.00
 -6 5 -12 -0.62 0.01
 1 -6 -12 -0.61 -0.03
 -6 6 -12 -0.53 0.02
 -6 7 -12 -0.48 0.02
 -6 8 -12 -0.55 0.02
 -8 2 12 -0.56 0.02
 -6 9 -12 -0.74 0.01
 -9 3 12 -0.73 0.02
 -6 10 -12 -0.95 0.00
 -10 4 12 -0.92 0.02
 -6 11 -12 -0.99 -0.01
 -11 5 12 -0.96 0.01
 -6 12 -12 -0.77 -0.02
 -12 6 12 -0.76 0.00
 -5 12 -12 -0.67 -0.02
 -12 7 12 -0.69 0.01
 -4 11 -12 -0.78 -0.02
 11 -7 -12 -0.80 -0.02
 -11 7 12 -0.80 0.02
 10 -7 -12 -0.71 -0.02
 -3 10 -12 -0.69 -0.02
 -10 7 12 -0.71 0.02
 9 -7 -12 -0.52 -0.01
 -2 9 -12 -0.53 -0.01
 -9 7 12 -0.52 0.01
 8 -7 -12 -0.38 0.00
 -1 8 -12 -0.42 0.00
 -8 7 12 -0.38 0.00
 7 -7 -12 -0.39 -0.01
 6 -7 -12 -0.48 -0.01
 5 -7 -12 -0.59 -0.01
 -7 2 -12 -0.59 0.00
 -7 3 -12 -0.64 0.00
 4 -7 -12 -0.64 0.00
 3 -7 -12 -0.63 0.00
 -7 4 -12 -0.64 0.00
 -7 5 -12 -0.58 0.00
 2 -7 -12 -0.58 -0.01
 1 -7 -12 -0.50 -0.02
 -7 6 -12 -0.47 0.01
 0 -7 -12 -0.43 -0.02
 -7 7 -12 -0.38 0.01
 -7 8 -12 -0.37 0.01
 -8 1 12 -0.42 0.02
 -7 9 -12 -0.51 0.01
 -9 2 12 -0.53 0.02
 -7 10 -12 -0.71 0.01
 -10 3 12 -0.69 0.02
 -7 11 -12 -0.81 0.00
 -11 4 12 -0.77 0.01
 -7 12 -12 -0.71 0.00
 -12 5 12 -0.67 0.00
 -4 12 -12 -0.45 -0.01
 12 -8 -12 -0.49 -0.02
 -12 8 12 -0.49 0.02
 -3 11 -12 -0.48 -0.01
 11 -8 -12 -0.51 -0.03
 -11 8 12 -0.51 0.03
 10 -8 -12 -0.40 -0.02
 -2 10 -12 -0.40 0.00
 -10 8 12 -0.40 0.02
 9 -8 -12 -0.28 -0.01
 -1 9 -12 -0.32 0.01
 8 -8 -12 -0.27 0.00
 7 -8 -12 -0.38 -0.01
 -8 2 -12 -0.56 0.00
 6 -8 -12 -0.55 0.00
 -8 3 -12 -0.68 0.01
 5 -8 -12 -0.68 0.01
 4 -8 -12 -0.72 0.01
 -8 4 -12 -0.72 0.01
 -8 5 -12 -0.68 0.01
 3 -8 -12 -0.67 0.01
 2 -8 -12 -0.56 -0.01
 -8 6 -12 -0.54 0.00
 -8 7 -12 -0.37 0.00
 1 -8 -12 -0.43 -0.01
 -8 8 -12 -0.26 0.00
 0 -8 -12 -0.34 -0.01
 -8 9 -12 -0.27 0.01
 -9 1 12 -0.32 0.02
 -8 10 -12 -0.39 0.01
 -10 2 12 -0.40 0.01
 -8 11 -12 -0.51 0.01
 -11 3 12 -0.48 0.00
 -8 12 -12 -0.50 0.00
 -12 4 12 -0.46 -0.01
 -3 12 -12 -0.20 0.00
 12 -9 -12 -0.24 -0.03
 -12 9 12 -0.24 0.03
 11 -9 -12 -0.21 -0.02
 -2 11 -12 -0.19 0.00
 10 -9 -12 -0.14 -0.01
 9 -9 -12 -0.14 0.00
 8 -9 -12 -0.28 0.00
 7 -9 -12 -0.51 0.00
 6 -9 -12 -0.74 0.01
 -9 3 -12 -0.74 0.00
 5 -9 -12 -0.87 0.02
 -9 4 -12 -0.87 0.01
 -9 5 -12 -0.87 0.01
 4 -9 -12 -0.86 0.01
 3 -9 -12 -0.73 0.00
 -9 6 -12 -0.74 0.01
 -9 7 -12 -0.51 0.00
 2 -9 -12 -0.53 -0.01
 1 -9 -12 -0.33 -0.01
 -9 8 -12 -0.28 0.00
 0 -9 -12 -0.20 0.01
 -9 9 -12 -0.14 0.00
 -9 0 12 -0.19 0.01
 -9 10 -12 -0.13 0.00
 -10 1 12 -0.16 0.00
 -9 11 -12 -0.20 0.00
 -11 2 12 -0.19 0.00
 -9 12 -12 -0.24 0.00
 -12 3 12 -0.21 -0.01
 11 -10 -12 0.02 -0.01
 10 -10 -12 0.01 0.01
 9 -10 -12 -0.13 0.01
 8 -10 -12 -0.40 0.01
 7 -10 -12 -0.70 0.01
 -10 3 -12 -0.70 -0.01
 6 -10 -12 -0.93 0.01
 -10 4 -12 -0.93 0.00
 5 -10 -12 -1.01 0.01
 -10 5 -12 -1.02 0.00
 4 -10 -12 -0.92 0.01
 -10 6 -12 -0.93 0.00
 -10 7 -12 -0.70 0.00
 3 -10 -12 -0.69 -0.01
 -10 8 -12 -0.39 0.00
 2 -10 -12 -0.41 -0.01
 -10 9 -12 -0.13 0.00
 1 -10 -12 -0.17 0.00
 -9 -1 12 -0.16 0.00
 0 -10 -12 -0.02 0.01
 -10 10 -12 0.01 0.00
 -10 0 12 -0.02 -0.01
 -10 11 -12 0.03 0.00
 -11 1 12 0.02 -0.01
 10 -11 -12 0.03 0.02
 9 -11 -12 -0.20 0.02
 8 -11 -12 -0.51 0.02
 -11 4 -12 -0.78 -0.02
 7 -11 -12 -0.80 0.01
 6 -11 -12 -0.97 0.01
 -11 5 -12 -0.96 -0.01
 5 -11 -12 -0.96 0.00
 -11 6 -12 -0.97 0.00
 4 -11 -12 -0.77 -0.01
 -11 7 -12 -0.80 0.00
 3 -11 -12 -0.49 -0.01
 -11 8 -12 -0.51 0.00
 2 -11 -12 -0.20 -0.01
 -11 9 -12 -0.20 0.01
 -9 -2 12 -0.20 -0.01
 -11 10 -12 0.03 0.00
 1 -11 -12 0.01 0.01
 -10 -1 12 0.01 -0.01
 9 -12 -12 -0.23 0.02
 -12 4 -12 -0.47 -0.02
 8 -12 -12 -0.49 0.01
 -12 5 -12 -0.68 -0.02
 7 -12 -12 -0.69 0.01
 -12 6 -12 -0.77 -0.01
 6 -12 -12 -0.76 0.00
 5 -12 -12 -0.67 -0.01
 -12 7 -12 -0.70 -0.01
 4 -12 -12 -0.46 -0.02
 -12 8 -12 -0.49 -0.01
 3 -12 -12 -0.22 -0.01
 -12 9 -12 -0.23 0.00
 -9 -3 12 -0.23 -0.02
 -1 1 -13 -0.02 -0.02
 -1 3 -13 0.11 -0.02
 3 -2 -13 0.12 0.00
 -2 -1 -13 0.10 0.00
 -2 0 -13 0.09 0.00
 -2 2 -13 -0.11 -0.02
 -2 3 -13 -0.11 -0.02
 5 -3 -13 0.15 0.00
 -2 5 -13 0.16 0.00
 -1 4 -13 0.29 -0.02
 4 -3 -13 0.28 0.00
 3 -3 -13 0.27 0.00
 -3 0 -13 0.27 0.00
 -3 1 -13 0.10 0.00
 2 -3 -13 0.11 0.00
 -3 2 -13 -0.12 -0.01
 -3 3 -13 -0.27 -0.01
 4 -1 -13 -0.28 0.00
 -3 4 -13 -0.28 0.00
 5 -2 -13 -0.16 0.00
 -3 5 -13 -0.15 0.00
 7 -4 -13 0.07 -0.02
 -3 7 -13 0.06 0.02
 -7 4 13 0.07 0.02
 -2 6 -13 0.24 0.00
 6 -4 -13 0.23 -0.01
 -6 4 13 0.23 0.01
 -1 5 -13 0.41 -0.01
 5 -4 -13 0.39 0.00
 -5 4 13 0.39 0.00
 4 -4 -13 0.43 0.01
 -4 1 -13 0.28 0.00
 3 -4 -13 0.28 0.00
 -4 3 -13 -0.28 0.00
 -4 4 -13 -0.43 0.00
 -4 5 -13 -0.39 0.01
 -4 6 -13 -0.23 0.01
 -4 7 -13 -0.06 0.02
 -7 3 13 -0.05 0.02
 -4 9 -13 -0.09 0.05
 -9 5 13 -0.05 0.03
 -3 8 -13 -0.05 0.03
 8 -5 -13 -0.02 -0.03
 -8 5 13 -0.02 0.03
 7 -5 -13 0.13 -0.01
 -2 7 -13 0.13 0.01
 -7 5 13 0.13 0.01
 6 -5 -13 0.34 0.00
 -1 6 -13 0.35 -0.01
 -6 5 13 0.34 0.00
 5 -5 -13 0.46 0.00
 -5 1 -13 0.40 0.01
 4 -5 -13 0.39 0.00
 3 -5 -13 0.15 0.00
 -5 2 -13 0.16 0.00
 -5 3 -13 -0.16 -0.01
 2 -5 -13 -0.16 0.00
 -5 4 -13 -0.39 0.00
 1 -5 -13 -0.41 0.00
 -5 5 -13 -0.46 0.00
 -5 6 -13 -0.34 0.01
 -5 7 -13 -0.13 0.02
 -7 2 13 -0.12 0.00
 -5 8 -13 0.03 0.02
 -8 3 13 0.06 0.02
 -5 9 -13 0.06 0.03
 -9 4 13 0.10 0.03
 -5 11 -13 -0.11 0.04
 -11 6 13 -0.08 0.00
 -4 10 -13 -0.22 0.06
 -10 6 13 -0.18 0.01
 9 -6 -13 -0.21 -0.02
 -3 9 -13 -0.24 0.05
 -9 6 13 -0.21 0.02
 -2 8 -13 -0.12 0.02
 8 -6 -13 -0.11 -0.01
 -8 6 13 -0.11 0.01
 -1 7 -13 0.10 -0.01
 7 -6 -13 0.09 0.00
 6 -6 -13 0.28 0.00
 5 -6 -13 0.34 0.00
 4 -6 -13 0.23 0.00
 -6 2 -13 0.23 0.00
 -6 4 -13 -0.23 -0.01
 2 -6 -13 -0.24 0.00
 1 -6 -13 -0.35 0.00
 -6 5 -13 -0.34 -0.01
 -6 6 -13 -0.28 0.00
 -6 7 -13 -0.10 0.01
 -6 8 -13 0.11 0.01
 -8 2 13 0.12 0.00
 -6 9 -13 0.22 0.01
 -9 3 13 0.25 0.02
 -6 10 -13 0.19 0.01
 -10 4 13 0.23 0.03
 -6 11 -13 0.08 0.01
 -4 11 -13 -0.27 0.07
 -11 7 13 -0.25 -0.02
 -3 10 -13 -0.37 0.05
 10 -7 -13 -0.36 0.00
 -10 7 13 -0.36 0.00
 9 -7 -13 -0.36 0.00
 -2 9 -13 -0.37 0.02
 -1 8 -13 -0.23 -0.01
 8 -7 -13 -0.24 0.00
 7 -7 -13 -0.05 0.00
 6 -7 -13 0.09 0.00
 5 -7 -13 0.13 0.00
 -7 2 -13 0.13 0.01
 4 -7 -13 0.06 0.00
 -7 3 -13 0.05 -0.01
 -7 4 -13 -0.07 -0.02
 3 -7 -13 -0.06 0.01
 2 -7 -13 -0.13 0.01
 -7 5 -13 -0.14 -0.02
 -7 6 -13 -0.10 -0.01
 1 -7 -13 -0.10 0.00
 -7 7 -13 0.05 0.00
 -7 8 -13 0.24 0.00
 -8 1 13 0.23 -0.03
 -7 9 -13 0.36 0.00
 -9 2 13 0.36 -0.01
 -7 10 -13 0.36 -0.01
 -10 3 13 0.37 0.02
 -7 11 -13 0.25 -0.02
 -11 4 13 0.27 0.03
 -3 11 -13 -0.34 0.05
 11 -8 -13 -0.34 0.02
 -2 10 -13 -0.45 0.02
 10 -8 -13 -0.46 0.01
 9 -8 -13 -0.47 0.00
 8 -8 -13 -0.38 0.00
 7 -8 -13 -0.24 -0.01
 6 -8 -13 -0.11 -0.01
 -8 3 -13 -0.06 -0.01
 5 -8 -13 -0.03 0.00
 3 -8 -13 0.05 0.03
 -8 5 -13 0.02 -0.02
 -8 6 -13 0.11 -0.01
 2 -8 -13 0.12 0.02
 -8 7 -13 0.24 0.00
 1 -8 -13 0.23 0.00
 -8 8 -13 0.38 0.00
 -8 9 -13 0.47 -0.01
 -9 1 13 0.45 -0.03
 -8 10 -13 0.46 -0.02
 -10 2 13 0.44 0.00
 -8 11 -13 0.34 -0.03
 -11 3 13 0.33 0.02
 10 -9 -13 -0.47 0.01
 9 -9 -13 -0.52 0.00
 8 -9 -13 -0.47 -0.01
 7 -9 -13 -0.36 -0.02
 6 -9 -13 -0.22 -0.01
 -9 3 -13 -0.24 -0.02
 -9 4 -13 -0.10 -0.03
 5 -9 -13 -0.06 0.01
 4 -9 -13 0.09 0.04
 -9 5 -13 0.05 -0.02
 -9 6 -13 0.21 -0.01
 3 -9 -13 0.24 0.05
 2 -9 -13 0.37 0.03
 -9 7 -13 0.36 0.00
 1 -9 -13 0.46 0.00
 -9 8 -13 0.47 0.00
 -9 9 -13 0.51 -0.01
 -9 0 13 0.48 -0.03
 -9 10 -13 0.47 -0.02
 -10 1 13 0.43 -0.02
 9 -10 -13 -0.47 -0.01
 8 -10 -13 -0.46 -0.03
 7 -10 -13 -0.36 -0.03
 6 -10 -13 -0.19 -0.01
 -10 4 -13 -0.22 -0.03
 4 -10 -13 0.22 0.06
 -10 6 -13 0.19 0.00
 -10 7 -13 0.36 0.02
 3 -10 -13 0.38 0.07
 -10 8 -13 0.46 0.01
 2 -10 -13 0.45 0.04
 1 -10 -13 0.44 -0.01
 -10 9 -13 0.47 0.00
 -9 -1 13 0.44 0.00
 8 -11 -13 -0.34 -0.04
 7 -11 -13 -0.25 -0.03
 -11 5 -13 -0.11 -0.02
 6 -11 -13 -0.08 0.00
 5 -11 -13 0.11 0.05
 -11 6 -13 0.08 0.01
 4 -11 -13 0.27 0.08
 -11 7 -13 0.25 0.03
 3 -11 -13 0.34 0.07
 -11 8 -13 0.34 0.03
 -1 3 -14 -1.26 0.02
 -2 0 -14 -1.35 -0.01
 -2 1 -14 -1.42 0.00
 -2 2 -14 -1.36 0.00
 -2 3 -14 -1.26 0.01
 4 -2 -14 -1.27 0.00
 -2 4 -14 -1.26 0.01
 5 -3 -14 -1.42 -0.01
 -2 5 -14 -1.41 0.01
 -1 4 -14 -1.26 0.01
 4 -3 -14 -1.26 0.01
 3 -3 -14 -1.23 0.02
 -3 1 -14 -1.26 -0.01
 -3 2 -14 -1.26 0.00
 -3 3 -14 -1.23 0.00
 -3 4 -14 -1.26 0.01
 -3 5 -14 -1.41 0.01
 6 -3 -14 -1.62 -0.03
 -3 6 -14 -1.61 0.01
 -3 7 -14 -1.71 0.01
 7 -4 -14 -1.72 -0.04
 -7 4 14 -1.72 0.04
 6 -4 -14 -1.60 -0.02
 -2 6 -14 -1.59 0.01
 -6 4 14 -1.60 0.02
 -1 5 -14 -1.40 0.00
 5 -4 -14 -1.42 0.00
 -5 4 14 -1.42 0.00
 4 -4 -14 -1.29 0.02
 -4 1 -14 -1.24 -0.01
 3 -4 -14 -1.25 0.02
 2 -4 -14 -1.25 0.00
 -4 2 -14 -1.26 0.00
 -4 3 -14 -1.26 0.00
 -4 4 -14 -1.29 0.01
 -4 5 -14 -1.41 0.01
 -4 6 -14 -1.59 0.01
 -4 7 -14 -1.71 0.01
 -7 3 14 -1.71 0.04
 -4 8 -14 -1.64 0.02
 -8 4 14 -1.64 0.04
 -4 9 -14 -1.37 0.02
 -9 5 14 -1.38 0.03
 8 -5 -14 -1.60 -0.03
 -3 8 -14 -1.58 0.01
 -8 5 14 -1.60 0.03
 7 -5 -14 -1.65 -0.02
 -2 7 -14 -1.62 0.00
 -7 5 14 -1.65 0.02
 6 -5 -14 -1.57 0.00
 -1 6 -14 -1.53 -0.01
 5 -5 -14 -1.46 0.02
 4 -5 -14 -1.40 0.02
 3 -5 -14 -1.40 0.01
 -5 2 -14 -1.40 -0.01
 2 -5 -14 -1.40 0.00
 -5 3 -14 -1.40 0.00
 -5 4 -14 -1.40 0.01
 -5 5 -14 -1.46 0.01
 -5 6 -14 -1.56 0.01
 -5 7 -14 -1.64 0.01
 -7 2 14 -1.61 0.03
 -5 8 -14 -1.59 0.02
 -8 3 14 -1.57 0.03
 -5 9 -14 -1.38 0.02
 -9 4 14 -1.37 0.03
 -5 10 -14 -1.07 0.01
 -10 5 14 -1.06 0.02
 -4 10 -14 -1.01 0.01
 -10 6 14 -1.01 0.02
 9 -6 -14 -1.27 -0.02
 -3 9 -14 -1.25 0.00
 -9 6 14 -1.27 0.02
 8 -6 -14 -1.46 -0.02
 -2 8 -14 -1.42 -0.01
 7 -6 -14 -1.54 0.00
 6 -6 -14 -1.55 0.02
 5 -6 -14 -1.55 0.02
 4 -6 -14 -1.58 0.01
 -6 2 -14 -1.57 -0.02
 3 -6 -14 -1.60 0.00
 -6 3 -14 -1.60 -0.01
 2 -6 -14 -1.58 -0.01
 -6 4 -14 -1.58 0.00
 -6 5 -14 -1.55 0.01
 -6 6 -14 -1.54 0.02
 -6 7 -14 -1.53 0.02
 -6 8 -14 -1.45 0.02
 -8 2 14 -1.40 0.02
 -6 9 -14 -1.27 0.02
 -9 3 14 -1.24 0.02
 -6 10 -14 -1.01 0.01
 -10 4 14 -1.00 0.02
 -3 10 -14 -0.85 -0.01
 10 -7 -14 -0.86 -0.01
 -2 9 -14 -1.04 -0.02
 9 -7 -14 -1.08 -0.01
 8 -7 -14 -1.28 0.00
 7 -7 -14 -1.42 0.02
 6 -7 -14 -1.53 0.02
 5 -7 -14 -1.63 0.02
 4 -7 -14 -1.70 0.00
 -7 3 -14 -1.70 -0.03
 -7 4 -14 -1.70 -0.01
 3 -7 -14 -1.70 -0.01
 2 -7 -14 -1.61 -0.02
 -7 5 -14 -1.63 0.00
 -7 6 -14 -1.52 0.02
 1 -7 -14 -1.47 -0.01
 -7 7 -14 -1.41 0.02
 -7 8 -14 -1.27 0.02
 -8 1 14 -1.19 0.00
 -7 9 -14 -1.08 0.02
 -9 2 14 -1.03 0.01
 -7 10 -14 -0.86 0.02
 -10 3 14 -0.84 0.01
 9 -8 -14 -0.86 0.01
 8 -8 -14 -1.07 0.02
 7 -8 -14 -1.27 0.02
 6 -8 -14 -1.44 0.02
 5 -8 -14 -1.58 0.00
 -8 3 -14 -1.58 -0.04
 -8 4 -14 -1.63 -0.03
 4 -8 -14 -1.63 -0.01
 3 -8 -14 -1.57 -0.02
 -8 5 -14 -1.58 -0.01
 -8 6 -14 -1.44 0.00
 2 -8 -14 -1.41 -0.02
 -8 7 -14 -1.26 0.02
 1 -8 -14 -1.20 -0.02
 -8 8 -14 -1.06 0.02
 -8 9 -14 -0.85 0.02
 -9 1 14 -0.79 0.00
 8 -9 -14 -0.85 0.02
 7 -9 -14 -1.07 0.02
 6 -9 -14 -1.25 0.01
 -9 4 -14 -1.37 -0.03
 5 -9 -14 -1.36 -0.01
 4 -9 -14 -1.37 -0.02
 -9 5 -14 -1.37 -0.03
 -9 6 -14 -1.25 -0.02
 3 -9 -14 -1.24 -0.03
 -9 7 -14 -1.06 0.00
 2 -9 -14 -1.04 -0.02
 1 -9 -14 -0.80 -0.02
 -9 8 -14 -0.84 0.01
 7 -10 -14 -0.84 0.01
 6 -10 -14 -1.00 -0.01
 -10 5 -14 -1.07 -0.02
 5 -10 -14 -1.06 -0.02
 4 -10 -14 -1.01 -0.02
 -10 6 -14 -1.01 -0.02
 3 -10 -14 -0.85 -0.02
 -10 7 -14 -0.85 -0.02
 -2 2 -15 0.28 0.00
 -2 3 -15 0.31 0.00
 -2 5 -15 -0.52 0.01
 5 -3 -15 -0.52 -0.01
 4 -3 -15 -0.84 -0.01
 -3 1 -15 -0.28 -0.01
 -3 2 -15 0.31 -0.01
 -3 3 -15 0.76 0.00
 -3 4 -15 0.84 0.00
 -3 5 -15 0.53 0.01
 -3 7 -15 -0.51 0.01
 -7 4 15 -0.49 -0.01
 6 -4 -15 -1.05 0.00
 -2 6 -15 -1.06 0.01
 -6 4 15 -1.05 0.00
 5 -4 -15 -1.41 -0.01
 4 -4 -15 -1.36 0.00
 3 -4 -15 -0.84 0.00
 -4 3 -15 0.84 -0.01
 -4 4 -15 1.36 0.00
 -4 5 -15 1.42 0.00
 -4 6 -15 1.06 0.01
 -4 7 -15 0.49 0.01
 -7 3 15 0.51 -0.01
 -3 8 -15 -0.79 0.00
 -8 5 15 -0.77 -0.01
 7 -5 -15 -1.35 0.00
 -2 7 -15 -1.37 0.01
 6 -5 -15 -1.80 0.00
 5 -5 -15 -1.87 0.00
 4 -5 -15 -1.42 0.01
 3 -5 -15 -0.53 0.01
 -5 2 -15 -0.53 0.00
 -5 3 -15 0.53 0.00
 -5 4 -15 1.41 0.00
 -5 5 -15 1.87 0.00
 -5 6 -15 1.81 0.01
 -5 7 -15 1.36 0.01
 -7 2 15 1.37 0.00
 -5 8 -15 0.77 0.01
 -8 3 15 0.79 -0.01
 -2 8 -15 -1.35 0.00
 8 -6 -15 -1.34 0.00
 7 -6 -15 -1.86 0.00
 6 -6 -15 -2.07 0.00
 5 -6 -15 -1.81 0.01
 4 -6 -15 -1.06 0.02
 -6 4 -15 1.05 0.01
 2 -6 -15 1.06 0.02
 -6 5 -15 1.80 0.01
 -6 6 -15 2.07 0.01
 -6 7 -15 1.86 0.01
 -6 8 -15 1.35 0.01
 -8 2 15 1.35 0.00
 8 -7 -15 -1.59 0.00
 7 -7 -15 -1.91 0.00
 6 -7 -15 -1.86 0.01
 5 -7 -15 -1.36 0.02
 4 -7 -15 -0.50 0.02
 -7 4 -15 0.49 0.01
 3 -7 -15 0.51 0.01
 -7 5 -15 1.36 0.01
 2 -7 -15 1.37 0.01
 -7 6 -15 1.86 0.01
 -7 7 -15 1.91 0.01
 -7 8 -15 1.60 0.01
 -8 1 15 1.58 0.01
 7 -8 -15 -1.60 0.00
 6 -8 -15 -1.35 0.01
 5 -8 -15 -0.77 0.02
 3 -8 -15 0.79 0.00
 -8 5 -15 0.77 0.01
 2 -8 -15 1.36 0.00
 -8 6 -15 1.35 0.01
 -8 7 -15 1.59 0.01
 -2 5 -16 -0.40 0.01
 -3 2 -16 -0.34 -0.01
 -3 3 -16 -0.44 0.00
 -3 4 -16 -0.51 0.01
 -3 5 -16 -0.44 0.02
 -3 6 -16 -0.24 0.02
 -6 3 16 -0.24 -0.02
 -3 7 -16 -0.03 0.01
 5 -4 -16 -0.45 0.01
 -4 3 -16 -0.51 -0.02
 -4 4 -16 -0.53 0.00
 -4 5 -16 -0.45 0.02
 -4 6 -16 -0.27 0.03
 -4 7 -16 -0.06 0.03
 -7 3 16 -0.03 -0.01
 6 -5 -16 -0.26 0.01
 5 -5 -16 -0.40 0.00
 4 -5 -16 -0.46 0.00
 -5 3 -16 -0.44 -0.04
 -5 4 -16 -0.45 -0.03
 -5 5 -16 -0.40 0.00
 -5 6 -16 -0.26 0.02
 6 -6 -16 -0.18 0.00
 5 -6 -16 -0.26 -0.01
 4 -6 -16 -0.27 0.00
 3 -6 -16 -0.24 0.00
 -6 4 -16 -0.27 -0.04
 -6 5 -16 -0.26 -0.03
 -6 6 -16 -0.18 0.00
 4 -7 -16 -0.05 0.00
 3 -7 -16 -0.02 0.00
 -7 4 -16 -0.06 -0.04
 -3 3 -17 -0.38 0.01
 -3 4 -17 -0.40 0.01
 -4 3 -17 -0.40 0.01
 -4 3 -17 -0.40 0.01
 -4 3 -17 -0.40 0.01
 0 0 0 0.00 0.00
# SQUEEZE RESULTS (APPEND TO CIF)
# Note: Data are Listed for all Voids in the P1 Unit Cell
# i.e. Centre of Gravity, Solvent Accessible Volume,
# Recovered number of Electrons in the Void and
# Details about the Squeezed Material
;
_olex2_submission_special_instructions 'No special instructions were received'
loop_
_space_group_symop_operation_xyz
'x, y, z'
'-y, x-y, z'
'-x+y, -x, z'
'-x, -y, z+1/2'
'y, -x+y, z+1/2'
'x-y, x, z+1/2'
'y, x, -z'
'x-y, -y, -z'
'-x, -x+y, -z'
'-y, -x, -z+1/2'
'-x+y, y, -z+1/2'
'x, x-y, -z+1/2'
'-x, -y, -z'
'y, -x+y, -z'
'x-y, x, -z'
'x, y, -z-1/2'
'-y, x-y, -z-1/2'
'-x+y, -x, -z-1/2'
'-y, -x, z'
'-x+y, y, z'
'x, x-y, z'
'y, x, z-1/2'
'x-y, -y, z-1/2'
'-x, -x+y, z-1/2'
loop_
_atom_site_label
_atom_site_type_symbol
_atom_site_fract_x
_atom_site_fract_y
_atom_site_fract_z
_atom_site_U_iso_or_equiv
_atom_site_adp_type
_atom_site_occupancy
_atom_site_site_symmetry_order
_atom_site_calc_flag
_atom_site_refinement_flags_posn
_atom_site_refinement_flags_adp
_atom_site_refinement_flags_occupancy
_atom_site_disorder_assembly
_atom_site_disorder_group
Cd01 Cd 0.5000 0.0000 0.5000 0.0155(4) Uani 1 4 d S T P A .
Cd02 Cd 0.6667 0.3333 0.60209(12) 0.0233(5) Uani 1 6 d S T P . .
N1 N 0.5824(4) 0.1649(8) 0.7026(7) 0.0168(19) Uani 1 2 d S T P . .
N2 N 0.5259(4) 0.0518(8) 0.6689(7) 0.0142(18) Uani 1 2 d S T P . .
N3 N 0.4413(6) 0.1382(6) 0.4672(5) 0.0177(14) Uani 1 1 d . . . . .
N4 N 0.4978(8) 0.2489(4) 0.5002(7) 0.018(2) Uani 1 2 d S T P A .
C3 C 0.3513(7) 0.1255(8) 0.4140(6) 0.0281(19) Uani 0.5 1 d . . . A 1
N5 N 0.3513(7) 0.1255(8) 0.4140(6) 0.0281(19) Uani 0.5 1 d . . . A 2
C1 C 0.4927(6) -0.0146(13) 0.7500 0.017(3) Uani 1 4 d DS TU P . .
C2 C 0.4264(7) -0.1473(14) 0.7500 0.029(4) Uani 1 4 d DS TU P . .
H2A H 0.3527 -0.1755 0.7167 0.044 Uiso 0.25 1 d R . . . .
H2C H 0.4719 -0.1755 0.7167 0.044 Uiso 0.25 1 d R . . . .
H2B H 0.4123 -0.1754 0.8166 0.044 Uiso 0.5 2 d RS T P . .
C4 C 0.260(2) 0.024(2) 0.365(2) 0.043(6) Uani 0.5 1 d . U . . .
H4A H 0.2731 -0.0413 0.3722 0.064 Uiso 0.5 1 calc R . . A 2
H4B H 0.1844 0.0044 0.3938 0.064 Uiso 0.5 1 calc R . . A 2
H4C H 0.2593 0.0419 0.2957 0.064 Uiso 0.5 1 calc R . . A 2
loop_
_atom_site_aniso_label
_atom_site_aniso_U_11
_atom_site_aniso_U_22
_atom_site_aniso_U_33
_atom_site_aniso_U_23
_atom_site_aniso_U_13
_atom_site_aniso_U_12
Cd01 0.0195(6) 0.0149(6) 0.0106(7) 0.0002(4) 0.0001(2) 0.0075(3)
Cd02 0.0231(6) 0.0231(6) 0.0235(9) 0.000 0.000 0.0116(3)
N1 0.021(3) 0.015(4) 0.012(4) 0.004(4) 0.0019(19) 0.007(2)
N2 0.021(4) 0.011(4) 0.008(4) -0.001(4) -0.0005(18) 0.005(2)
N3 0.026(4) 0.016(3) 0.016(3) -0.003(3) -0.003(3) 0.014(3)
N4 0.018(5) 0.017(3) 0.020(6) 0.0007(18) 0.001(4) 0.009(3)
C3 0.025(4) 0.030(4) 0.024(5) -0.002(3) 0.001(3) 0.010(4)
N5 0.025(4) 0.030(4) 0.024(5) -0.002(3) 0.001(3) 0.010(4)
C1 0.017(4) 0.017(5) 0.017(5) 0.000 0.000 0.008(2)
C2 0.040(7) 0.021(7) 0.020(7) 0.000 0.000 0.010(3)
C4 0.042(7) 0.044(7) 0.044(7) 0.000(5) -0.007(4) 0.022(5)
loop_
_atom_type_symbol
_atom_type_description
_atom_type_scat_dispersion_real
_atom_type_scat_dispersion_imag
_atom_type_scat_source
C C 0.0033 0.0016 'International Tables Vol C Tables 4.2.6.8 and 6.1.1.4'
H H 0.0000 0.0000 'International Tables Vol C Tables 4.2.6.8 and 6.1.1.4'
Cd Cd -0.8075 1.2024 'International Tables Vol C Tables 4.2.6.8 and 6.1.1.4'
N N 0.0061 0.0033 'International Tables Vol C Tables 4.2.6.8 and 6.1.1.4'
loop_
_geom_angle_atom_site_label_1
_geom_angle_atom_site_label_2
_geom_angle_atom_site_label_3
_geom_angle
_geom_angle_site_symmetry_1
_geom_angle_site_symmetry_3
N2 Cd01 N2 180.00(11) . 13_656
N3 Cd01 N2 91.0(2) 13_656 13_656
N3 Cd01 N2 89.0(2) 20_655 13_656
N3 Cd01 N2 89.0(2) . 13_656
N3 Cd01 N2 91.0(2) 20_655 .
N3 Cd01 N2 89.0(2) 13_656 .
N3 Cd01 N2 89.0(2) 8_556 .
N3 Cd01 N2 91.0(2) 8_556 13_656
N3 Cd01 N2 91.0(2) . .
N3 Cd01 N3 88.4(4) 8_556 .
N3 Cd01 N3 88.4(4) 20_655 13_656
N3 Cd01 N3 180.0 20_655 8_556
N3 Cd01 N3 180.0 . 13_656
N3 Cd01 N3 91.6(4) 8_556 13_656
N3 Cd01 N3 91.6(4) 20_655 .
N1 Cd02 N1 89.7(4) . 2_655
N1 Cd02 N1 89.7(4) . 3_665
N1 Cd02 N1 89.7(4) 2_655 3_665
N1 Cd02 N4 90.5(2) . 2_655
N1 Cd02 N4 179.7(3) 3_665 2_655
N1 Cd02 N4 90.5(2) 2_655 2_655
N1 Cd02 N4 179.7(3) . 3_665
N1 Cd02 N4 90.5(2) 2_655 3_665
N1 Cd02 N4 90.5(2) . .
N1 Cd02 N4 90.5(2) 3_665 3_665
N1 Cd02 N4 179.7(4) 2_655 .
N1 Cd02 N4 90.5(2) 3_665 .
N4 Cd02 N4 89.3(3) 2_655 3_665
N4 Cd02 N4 89.3(3) . 3_665
N4 Cd02 N4 89.3(3) 2_655 .
N1 N1 Cd02 125.5(2) 16_557 .
N1 N1 N2 109.6(6) 16_557 .
N2 N1 Cd02 124.9(7) . .
N1 N2 Cd01 124.1(7) . .
C1 N2 Cd01 131.1(8) . .
C1 N2 N1 104.8(9) . .
N4 N3 Cd01 124.1(6) . .
C3 N3 Cd01 128.7(6) . .
C3 N3 N4 107.2(7) . .
N5 N3 Cd01 128.7(6) . .
N5 N3 N4 107.2(7) . .
N3 N4 Cd02 125.9(5) . .
N3 N4 Cd02 125.9(5) 21 .
N3 N4 N3 108.3(9) 21 .
N3 C3 C4 130.9(13) . .
C3 C3 N3 108.7(5) 21 .
C3 C3 C4 120.3(11) 21 .
N3 N5 C4 130.9(13) . .
N5 N5 N3 108.7(5) 21 .
N5 N5 C4 120.3(11) 21 .
N2 C1 N2 111.1(13) 16_557 .
N2 C1 C2 124.5(6) . .
N2 C1 C2 124.5(6) 16_557 .
C1 C2 H2A 109.6 . .
C1 C2 H2C 109.5 . .
C1 C2 H2B 109.5 . .
H2A C2 H2C 109.4 . .
H2A C2 H2B 109.4 . .
H2C C2 H2B 109.4 . .
N5 C4 H4A 109.5 . .
N5 C4 H4B 109.5 . .
N5 C4 H4C 109.5 . .
H4A C4 H4B 109.5 . .
H4A C4 H4C 109.5 . .
H4B C4 H4C 109.5 . .
loop_
_geom_bond_atom_site_label_1
_geom_bond_atom_site_label_2
_geom_bond_distance
_geom_bond_site_symmetry_2
Cd01 N2 2.371(9) 13_656
Cd01 N2 2.371(9) .
Cd01 N3 2.345(7) 8_556
Cd01 N3 2.345(7) 20_655
Cd01 N3 2.345(6) 13_656
Cd01 N3 2.345(6) .
Cd02 N1 2.356(9) .
Cd02 N1 2.356(9) 2_655
Cd02 N1 2.356(9) 3_665
Cd02 N4 2.370(10) 2_655
Cd02 N4 2.370(10) 3_665
Cd02 N4 2.370(10) .
N1 N1 1.29(2) 16_557
N1 N2 1.366(13) .
N2 C1 1.338(13) .
N3 N4 1.338(9) .
N3 C3 1.324(11) .
N3 N5 1.324(11) .
N4 N3 1.338(9) 21
C3 C3 1.32(2) 21
C3 C4 1.44(3) .
N5 N5 1.32(2) 21
N5 C4 1.44(3) .
C1 N2 1.338(13) 16_557
C1 C2 1.510(16) .
C2 H2A 0.9598 .
C2 H2C 0.9609 .
C2 H2B 0.9600 .
C4 H4A 0.9700 .
C4 H4B 0.9700 .
C4 H4C 0.9700 .
loop_
_platon_squeeze_void_nr
_platon_squeeze_void_average_x
_platon_squeeze_void_average_y
_platon_squeeze_void_average_z
_platon_squeeze_void_volume
_platon_squeeze_void_count_electrons
_platon_squeeze_void_content
1 0.000 0.000 -0.036 99 46 ' '
