#------------------------------------------------------------------------------
#$Date: 2017-08-03 05:20:19 +0300 (Thu, 03 Aug 2017) $
#$Revision: 199484 $
#$URL: file:///home/coder/svn-repositories/cod/cif/7/04/38/7043894.cif $
#------------------------------------------------------------------------------
#
# This file is available in the Crystallography Open Database (COD),
# http://www.crystallography.net/
#
# All data on this site have been placed in the public domain by the
# contributors.
#
data_7043894
loop_
_publ_author_name
'Wang, Peng'
'Chen, Kai'
'Liu, Qing'
'Wang, Huai-Wei'
'Azam, Mohammad'
'Al-Resayes, Saud I'
'Lu, Yi'
'Sun, Wei-Yin'
_publ_section_title
;
 Fine tuning catalytic and sorption properties of metal-organic frameworks
 via in situ ligand exchange
;
_journal_name_full               'Dalton Trans.'
_journal_paper_doi               10.1039/C7DT02231J
_journal_year                    2017
_chemical_formula_moiety         'C42 H28 Cu3 O15, 12 C3 H7 N O'
_chemical_formula_sum            'C78 H112 Cu3 N12 O27'
_chemical_formula_weight         1840.41
_space_group_crystal_system      tetragonal
_space_group_IT_number           141
_space_group_name_Hall           '-I 4bd 2'
_space_group_name_H-M_alt        'I 41/a m d'
_symmetry_space_group_name_Hall  '-I 4bd 2'
_symmetry_space_group_name_H-M   'I 41/a m d :2'
_atom_sites_solution_hydrogens   mixed
_audit_creation_method           SHELXL-2014/7
_audit_update_record
;
2017-07-15 deposited with the CCDC.
2017-08-02 downloaded from the CCDC.
;
_cell_angle_alpha                90
_cell_angle_beta                 90
_cell_angle_gamma                90
_cell_formula_units_Z            8
_cell_length_a                   20.009(1)
_cell_length_b                   20.009
_cell_length_c                   59.029(7)
_cell_measurement_reflns_used    5960
_cell_measurement_temperature    293(2)
_cell_measurement_theta_max      19.29
_cell_measurement_theta_min      2.30
_cell_volume                     23633(3)
_computing_cell_refinement       'Bruker SMART'
_computing_data_collection       'Bruker SMART'
_computing_data_reduction        'Bruker SAINT'
_computing_molecular_graphics    'Bruker SHELXTL'
_computing_publication_material  'Bruker SHELXTL'
_computing_structure_refinement  'SHELXL-2014/7 (Sheldrick, 2014)'
_computing_structure_solution    'Bruker SHELXTL'
_diffrn_ambient_temperature      293(2)
_diffrn_measured_fraction_theta_full 1.000
_diffrn_measured_fraction_theta_max 1.000
_diffrn_measurement_device_type  'CCD area detector'
_diffrn_measurement_method       'phi and omega scans'
_diffrn_radiation_type           MoK\a
_diffrn_radiation_wavelength     0.71073
_diffrn_reflns_av_R_equivalents  0.1584
_diffrn_reflns_av_unetI/netI     0.0736
_diffrn_reflns_Laue_measured_fraction_full 1.000
_diffrn_reflns_Laue_measured_fraction_max 1.000
_diffrn_reflns_limit_h_max       22
_diffrn_reflns_limit_h_min       -25
_diffrn_reflns_limit_k_max       25
_diffrn_reflns_limit_k_min       -25
_diffrn_reflns_limit_l_max       55
_diffrn_reflns_limit_l_min       -76
_diffrn_reflns_number            79082
_diffrn_reflns_point_group_measured_fraction_full 1.000
_diffrn_reflns_point_group_measured_fraction_max 1.000
_diffrn_reflns_theta_full        25.242
_diffrn_reflns_theta_max         27.486
_diffrn_reflns_theta_min         1.380
_exptl_absorpt_coefficient_mu    0.596
_exptl_absorpt_correction_T_max  0.7456
_exptl_absorpt_correction_T_min  0.5268
_exptl_absorpt_correction_type   multi-scan
_exptl_absorpt_process_details   sadabs
_exptl_crystal_colour            green
_exptl_crystal_density_diffrn    1.035
_exptl_crystal_description       block
_exptl_crystal_F_000             7736
_exptl_crystal_size_max          0.500
_exptl_crystal_size_mid          0.500
_exptl_crystal_size_min          0.400
_refine_diff_density_max         0.517
_refine_diff_density_min         -1.215
_refine_diff_density_rms         0.067
_refine_ls_extinction_method     none
_refine_ls_goodness_of_fit_ref   1.106
_refine_ls_hydrogen_treatment    constr
_refine_ls_matrix_type           full
_refine_ls_number_parameters     140
_refine_ls_number_reflns         7172
_refine_ls_number_restraints     15
_refine_ls_restrained_S_all      1.233
_refine_ls_R_factor_all          0.1232
_refine_ls_R_factor_gt           0.0643
_refine_ls_shift/su_max          0.058
_refine_ls_shift/su_mean         0.001
_refine_ls_structure_factor_coef Fsqd
_refine_ls_weighting_details
'w=1/[\s^2^(Fo^2^)+(0.1122P)^2^] where P=(Fo^2^+2Fc^2^)/3'
_refine_ls_weighting_scheme      calc
_refine_ls_wR_factor_gt          0.2132
_refine_ls_wR_factor_ref         0.2414
_reflns_Friedel_coverage         0.000
_reflns_number_gt                3095
_reflns_number_total             7172
_reflns_threshold_expression     'I > 2\s(I)'
_cod_data_source_file            c7dt02231j2.cif
_cod_data_source_block           swy4
_cod_original_cell_volume        23633(4)
_cod_database_code               7043894
_shelx_shelxl_version_number     2014/7
_shelx_space_group_comment
;
The symmetry employed for this shelxl refinement is uniquely defined
by the following loop, which should always be used as a source of
symmetry information in preference to the above space-group names.
They are only intended as comments.
;
_shelx_estimated_absorpt_t_min   0.755
_shelx_estimated_absorpt_t_max   0.796
_shelx_res_file
;

    swy4.res created by SHELXL-2014/7


TITL                             swy4 in I4(1)/amd
CELL 0.71073  20.009  20.009  59.029  90.000  90.000  90.000
ZERR  8.00   0.001   0.000   0.007   0.000   0.000   0.000
LATT 2
SYMM -X, 0.50000-Y,Z
SYMM X,-Y,-Z
SYMM -X, 0.50000+Y,-Z
SYMM  0.25000-Y, 0.25000-X, 0.75000-Z
SYMM  0.25000+Y, 0.75000+X, 0.25000-Z
SYMM  0.25000+Y, 0.25000-X, 0.75000+Z
SYMM  0.25000-Y, 0.75000+X, 0.25000+Z
SFAC C  H  O  N Cu
UNIT 624 896 216 96 24
MERG 2
L.S. 5 0  118
ACTA
bond $h
FMAP 2
list 4
PLAN 25
size .5 .5 .4
conf
DELU 0.01 CU2 O4
DELU 0.001 CU1 O5
delu 0.002 C4 C5
SIMU 0.001 CU1 O5
ISOR 0.002 O1W O2W
ISOR 0.002 O4
isor 0.001 O5
eadp O5 O4
temp 20
ABIN
WGHT    0.112200
FVAR       0.03258
CU1   5    1.000000    0.934852    1.003470    10.50000    0.07697    0.06157 =
         0.04794   -0.00324    0.00000    0.00000
CU2   5    0.500000    0.750000    0.897369    10.25000    0.06467    0.06149 =
         0.03942    0.00000    0.00000    0.00000
O1    3    0.932065    0.932756    0.979719    11.00000    0.10316    0.09052 =
         0.06732    0.00098   -0.01707   -0.01688
O2    3    0.932048    1.045752    0.973796    11.00000    0.09595    0.08687 =
         0.06692    0.00336   -0.01483   -0.00420
O3    3    0.568799    0.818802    0.893980    11.00000    0.08204    0.08212 =
         0.05690    0.01047   -0.00785   -0.01977
O4    3    0.500000    0.750000    0.933327    10.25000    0.17031    0.07485 =
         0.13461    0.00000    0.00000    0.00000
AFIX   3
H4A   2    0.526070    0.775950    0.940531    10.25000   -1.20000
H4B   2    0.473930    0.724050    0.940531    10.25000   -1.20000
AFIX   0
O5    3    1.000000    0.831969    1.009890    10.50000    0.17031    0.07485 =
         0.13461    0.00000    0.00000    0.00000
AFIX   3
H5A   2    0.973990    0.806307    1.002546    10.50000   -1.20000
H5B   2    1.026010    0.815862    1.019883    10.50000   -1.20000
AFIX   0
C1    1    0.913253    0.986394    0.969540    11.00000    0.07472    0.11575 =
         0.04974   -0.00428    0.00689   -0.00653
C2    1    0.862203    0.977555    0.950762    11.00000    0.08366    0.10823 =
         0.05155    0.00986   -0.01070   -0.01602
C3    1    0.841336    1.031411    0.938728    11.00000    0.11956    0.08892 =
         0.07723    0.00764   -0.03309   -0.02638
AFIX  43
H3    2    0.855928    1.073970    0.942682    11.00000   -1.20000
AFIX   0
C4    1    0.797801    1.022998    0.920336    11.00000    0.12863    0.08967 =
         0.09367    0.02379   -0.03652   -0.02875
AFIX  43
H4    2    0.784463    1.060298    0.912095    11.00000   -1.20000
AFIX   0
C5    1    0.774175    0.960670    0.914131    11.00000    0.09135    0.08925 =
         0.07254    0.01668   -0.01557   -0.02337
C6    1    0.795677    0.906547    0.927236    11.00000    0.12045    0.09398 =
         0.08237    0.00852   -0.03313   -0.02976
AFIX  43
H6    2    0.780033    0.863995    0.923763    11.00000   -1.20000
AFIX   0
C7    1    0.839549    0.914227    0.945237    11.00000    0.13117    0.09641 =
         0.06796    0.01367   -0.02879   -0.02957
AFIX  43
H7    2    0.853602    0.877247    0.953507    11.00000   -1.20000
AFIX   0
C8    1    0.731186    0.950932    0.894040    11.00000    0.08763    0.08601 =
         0.06358    0.01731   -0.01903   -0.02716
C9    1    0.738872    0.988872    0.875000    10.50000    0.09618    0.09618 =
         0.06869    0.01783   -0.01783   -0.03568
AFIX  43
H9    2    0.771736    1.021740    0.875001    10.50000   -1.20000
AFIX   0
C10   1    0.682518    0.903561    0.893945    11.00000    0.08347    0.09738 =
         0.05621    0.01633   -0.01700   -0.01434
AFIX  43
H10   2    0.675560    0.877715    0.906825    11.00000   -1.20000
AFIX   0
C11   1    0.643147    0.893147    0.875000    10.50000    0.07176    0.07176 =
         0.06338    0.00839   -0.00839   -0.01416
C12   1    0.589691    0.839691    0.875000    10.50000    0.07100    0.07100 =
         0.06705    0.01299   -0.01299    0.00139
HKLF      4

REM                              20140227WPP_0m in I4(1)/amd
REM R1 =  0.0643 for    3095 Fo > 4sig(Fo)  and  0.1232 for all    7172 data
REM    140 parameters refined using     15 restraints

END

WGHT      0.1436      0.0000

REM Highest difference peak  0.517,  deepest hole -1.215,  1-sigma level  0.067
Q1    1   0.9489  0.8300  1.0092  11.00000  0.05    0.52
Q2    1   1.0000  0.8929  1.0233  10.50000  0.05    0.34
Q3    1   1.0000  0.9358  0.9978  10.50000  0.05    0.29
Q4    1   0.5654  0.7500  0.9366  10.50000  0.05    0.28
Q5    1   1.0000  0.8332  0.9919  10.50000  0.05    0.28
Q6    1   0.5000  0.7083  0.9335  10.50000  0.05    0.27
Q7    1   0.7557  0.8604  0.9311  11.00000  0.05    0.26
Q8    1   0.6702  0.8984  0.9031  11.00000  0.05    0.25
Q9    1   0.6491  0.9099  0.8903  11.00000  0.05    0.25
Q10   1   1.0000  0.8358  1.0293  10.50000  0.05    0.24
Q11   1   0.8098  0.9347  0.8904  11.00000  0.05    0.23
Q12   1   0.6969  0.9387  0.8975  11.00000  0.05    0.23
Q13   1   0.5000  0.7095  0.8750  10.50000  0.05    0.22
Q14   1   1.0000  0.8137  1.0333  10.50000  0.05    0.22
Q15   1   0.7300  1.0102  0.8774  11.00000  0.05    0.22
Q16   1   0.7055  0.9818  0.8955  11.00000  0.05    0.22
Q17   1   1.0000  0.8784  1.0023  10.50000  0.05    0.20
Q18   1   0.7974  0.8776  0.9571  11.00000  0.05    0.19
Q19   1   0.6799  0.9299  0.8750  10.50000  0.05    0.19
Q20   1   0.4633  0.6936  0.9420  11.00000  0.05    0.19
Q21   1   0.6800  0.8786  0.8906  11.00000  0.05    0.19
Q22   1   0.7536  0.9409  0.8975  11.00000  0.05    0.18
Q23   1   0.7261  0.9455  0.9045  11.00000  0.05    0.18
Q24   1   0.5000  0.8769  0.8950  10.50000  0.05    0.18
Q25   1   1.0000  0.8913  0.9857  10.50000  0.05    0.18
;
_shelx_res_checksum              61813
_shelx_fab_file
;
    0    2    0   -426.02      0.00
    2    2    0    486.39      0.00
    0    4    0    509.28      0.00
    2    4    0    -80.91      0.00
    4    4    0     70.52      0.00
    0    6    0   -111.48      0.00
    2    6    0     24.65      0.00
    4    6    0     -1.31      0.00
    6    6    0     40.21      0.00
    0    8    0     95.24      0.00
    2    8    0     -7.44      0.00
    4    8    0      4.28      0.00
    6    8    0      9.71      0.00
    8    8    0      9.60      0.00
    0   10    0    -61.75      0.00
    2   10    0      3.16      0.00
    4   10    0     -4.43      0.00
    6   10    0     -8.68      0.00
    8   10    0     -8.27      0.00
   10   10    0    -20.66      0.00
    0   12    0     39.64      0.00
    2   12    0    -15.08      0.00
    4   12    0     10.68      0.00
    6   12    0      4.24      0.00
    8   12    0      1.40      0.00
   10   12    0      7.24      0.00
   12   12    0      4.56      0.00
    0   14    0    -21.65      0.00
    2   14    0     10.08      0.00
    4   14    0      0.47      0.00
    6   14    0      4.93      0.00
    8   14    0      0.09      0.00
   10   14    0      3.19      0.00
   12   14    0      8.94      0.00
   14   14    0      0.47      0.00
    0   16    0     17.52      0.00
    2   16    0     -2.68      0.00
    4   16    0      2.53      0.00
    6   16    0      4.57      0.00
    8   16    0     -6.74      0.00
   10   16    0      1.80      0.00
   12   16    0      0.23      0.00
   14   16    0      0.70      0.00
   16   16    0     10.43      0.00
    0   18    0     -2.82      0.00
    2   18    0     -4.91      0.00
    4   18    0     -5.42      0.00
    6   18    0     -4.24      0.00
    8   18    0     -1.43      0.00
   10   18    0     -1.42      0.00
   12   18    0     -4.12      0.00
   14   18    0     -5.25      0.00
   16   18    0    -10.39      0.00
   18   18    0     -6.40      0.00
    0   20    0     -3.49      0.00
    2   20    0      1.69      0.00
    4   20    0      9.46      0.00
    6   20    0      4.14      0.00
    8   20    0     -1.44      0.00
   10   20    0      2.56      0.00
   12   20    0      4.84      0.00
   14   20    0      9.68      0.00
   16   20    0     -4.93      0.00
    0   22    0     -7.21      0.00
    2   22    0      7.34      0.00
    4   22    0     -2.09      0.00
    6   22    0     10.57      0.00
    8   22    0     -3.33      0.00
   10   22    0     -0.49      0.00
   12   22    0      3.35      0.00
    0   24    0     14.20      0.00
    2   24    0      0.99      0.00
    4   24    0     15.99      0.00
    6   24    0      0.94      0.00
    8   24    0     -2.01      0.00
    1    2    1   -148.76      0.00
    0    3    1    -85.02      0.00
    2    3    1     22.80      0.00
    1    4    1    -21.32      0.00
    3    4    1    -19.42      0.00
    0    5    1    -43.79      0.00
    2    5    1     31.53      0.00
    4    5    1    -61.55      0.00
    1    6    1     -7.33      0.00
    3    6    1      6.22      0.00
    5    6    1      6.16      0.00
    0    7    1     28.41      0.00
    2    7    1    -23.04      0.00
    4    7    1      7.60      0.00
    6    7    1     -7.90      0.00
    1    8    1     16.61      0.00
    3    8    1      2.93      0.00
    5    8    1    -11.52      0.00
    7    8    1     -1.93      0.00
    0    9    1     -2.06      0.00
    2    9    1     25.11      0.00
    4    9    1      6.66      0.00
    6    9    1     19.36      0.00
    8    9    1      4.52      0.00
    1   10    1    -14.97      0.00
    3   10    1     -3.51      0.00
    5   10    1     -3.52      0.00
    7   10    1     -5.05      0.00
    9   10    1     -6.84      0.00
    0   11    1     -1.43      0.00
    2   11    1     -1.37      0.00
    4   11    1      7.23      0.00
    6   11    1      2.19      0.00
    8   11    1     -0.31      0.00
   10   11    1    -15.47      0.00
    1   12    1      8.52      0.00
    3   12    1     -0.73      0.00
    5   12    1      1.72      0.00
    7   12    1     -1.20      0.00
    9   12    1      2.96      0.00
   11   12    1      3.13      0.00
    0   13    1     -2.08      0.00
    2   13    1     -5.17      0.00
    4   13    1     -1.83      0.00
    6   13    1      4.48      0.00
    8   13    1     -1.24      0.00
   10   13    1     -8.30      0.00
   12   13    1      1.74      0.00
    1   14    1     -4.56      0.00
    3   14    1     -2.42      0.00
    5   14    1      1.41      0.00
    7   14    1      0.30      0.00
    9   14    1     -3.80      0.00
   11   14    1     -0.33      0.00
   13   14    1      4.79      0.00
    0   15    1      4.91      0.00
    2   15    1      2.67      0.00
    4   15    1     -1.93      0.00
    6   15    1     -1.37      0.00
    8   15    1      0.22      0.00
   10   15    1     -4.45      0.00
   12   15    1     -6.62      0.00
   14   15    1     -4.19      0.00
    1   16    1     -3.53      0.00
    3   16    1      3.65      0.00
    5   16    1    -12.63      0.00
    7   16    1      3.05      0.00
    9   16    1      1.75      0.00
   11   16    1     -6.23      0.00
   13   16    1      2.98      0.00
   15   16    1      6.58      0.00
    0   17    1     -3.38      0.00
    2   17    1      3.37      0.00
    4   17    1     -2.04      0.00
    6   17    1     -7.65      0.00
    8   17    1     -4.62      0.00
   10   17    1     -2.79      0.00
   12   17    1      0.26      0.00
   14   17    1     -9.01      0.00
   16   17    1    -13.88      0.00
    1   18    1      3.04      0.00
    3   18    1      0.71      0.00
    5   18    1      1.93      0.00
    7   18    1      2.52      0.00
    9   18    1      1.67      0.00
   11   18    1      0.82      0.00
   13   18    1      2.86      0.00
   15   18    1     -7.48      0.00
   17   18    1     -6.45      0.00
    0   19    1      8.90      0.00
    2   19    1     -1.39      0.00
    4   19    1     -1.49      0.00
    6   19    1     -7.62      0.00
    8   19    1     -2.51      0.00
   10   19    1      7.86      0.00
   12   19    1      2.49      0.00
   14   19    1     -3.99      0.00
   16   19    1    -18.91      0.00
    1   20    1     -0.60      0.00
    3   20    1     -2.72      0.00
    5   20    1     -4.79      0.00
    7   20    1      3.84      0.00
    9   20    1     -5.95      0.00
   11   20    1     10.19      0.00
   13   20    1     -3.49      0.00
   15   20    1      3.99      0.00
    0   21    1     -7.65      0.00
    2   21    1      5.63      0.00
    4   21    1      3.32      0.00
    6   21    1      2.48      0.00
    8   21    1      1.88      0.00
   10   21    1      3.80      0.00
   12   21    1      2.02      0.00
   14   21    1      2.73      0.00
    1   22    1     -0.91      0.00
    3   22    1     -4.35      0.00
    5   22    1     -3.79      0.00
    7   22    1     -2.94      0.00
    9   22    1     12.71      0.00
   11   22    1    -12.97      0.00
   13   22    1      2.44      0.00
    0   23    1     -1.35      0.00
    2   23    1     -0.55      0.00
    4   23    1      2.94      0.00
    6   23    1     -0.41      0.00
    8   23    1     -3.00      0.00
   10   23    1     -5.84      0.00
   12   23    1     -6.23      0.00
    1   24    1      4.25      0.00
    3   24    1      4.11      0.00
    5   24    1     -9.79      0.00
    7   24    1      5.56      0.00
    9   24    1     -0.13      0.00
    0   25    1     22.96      0.00
    2   25    1      7.58      0.00
    4   25    1     -5.73      0.00
    6   25    1     -5.90      0.00
    1    1    2   -155.62      0.00
    0    2    2   -194.43      0.00
    1    3    2    -11.13      0.00
    3    3    2     38.10      0.00
    0    4    2    -71.87      0.00
    2    4    2    -32.52      0.00
    1    5    2    -82.21      0.00
    3    5    2    -54.36      0.00
    5    5    2    -10.71      0.00
    0    6    2    -63.30      0.00
    2    6    2     20.37      0.00
    4    6    2     22.88      0.00
    1    7    2     -3.98      0.00
    3    7    2      1.48      0.00
    5    7    2     -9.53      0.00
    7    7    2     -6.48      0.00
    0    8    2     11.28      0.00
    2    8    2      3.86      0.00
    4    8    2    -17.83      0.00
    6    8    2     -2.50      0.00
    1    9    2    -11.14      0.00
    3    9    2    -13.20      0.00
    5    9    2     -4.86      0.00
    7    9    2     -0.09      0.00
    9    9    2     -3.02      0.00
    0   10    2    -16.31      0.00
    2   10    2      8.94      0.00
    4   10    2      9.96      0.00
    6   10    2      4.52      0.00
    8   10    2      3.31      0.00
    1   11    2     -2.60      0.00
    3   11    2     -5.01      0.00
    5   11    2     -3.83      0.00
    7   11    2     -3.41      0.00
    9   11    2     -0.96      0.00
   11   11    2     -0.83      0.00
    0   12    2     21.54      0.00
    2   12    2      1.50      0.00
    4   12    2     -4.28      0.00
    6   12    2      1.27      0.00
    8   12    2      0.03      0.00
   10   12    2      8.97      0.00
    1   13    2     -4.08      0.00
    3   13    2     -6.00      0.00
    5   13    2     -3.70      0.00
    7   13    2     -4.58      0.00
    9   13    2     -4.57      0.00
   11   13    2     -6.03      0.00
   13   13    2     -5.31      0.00
    0   14    2    -11.64      0.00
    2   14    2      1.92      0.00
    4   14    2     -8.09      0.00
    6   14    2     -3.47      0.00
    8   14    2     -1.05      0.00
   10   14    2     -6.02      0.00
   12   14    2     -5.18      0.00
    1   15    2      4.16      0.00
    3   15    2      7.08      0.00
    5   15    2     10.51      0.00
    7   15    2      3.54      0.00
    9   15    2     -3.21      0.00
   11   15    2     -0.22      0.00
   13   15    2      0.05      0.00
   15   15    2    -10.84      0.00
    0   16    2      0.34      0.00
    2   16    2      0.17      0.00
    4   16    2      0.62      0.00
    6   16    2     -0.30      0.00
    8   16    2     -2.67      0.00
   10   16    2     13.61      0.00
   12   16    2     -2.09      0.00
   14   16    2     -5.30      0.00
    1   17    2      3.54      0.00
    3   17    2     -2.37      0.00
    5   17    2     -3.47      0.00
    7   17    2     -3.16      0.00
    9   17    2     -1.91      0.00
   11   17    2     -9.56      0.00
   13   17    2     -3.21      0.00
   15   17    2     -2.21      0.00
   17   17    2     -4.20      0.00
    0   18    2      1.17      0.00
    2   18    2     -8.63      0.00
    4   18    2      1.46      0.00
    6   18    2      2.27      0.00
    8   18    2     -5.96      0.00
   10   18    2      6.93      0.00
   12   18    2     -4.88      0.00
   14   18    2      0.78      0.00
   16   18    2      3.52      0.00
    1   19    2      0.69      0.00
    3   19    2     -0.51      0.00
    5   19    2     -4.87      0.00
    7   19    2     -5.42      0.00
    9   19    2      1.53      0.00
   11   19    2     12.92      0.00
   13   19    2      8.79      0.00
   15   19    2      2.52      0.00
   17   19    2     -3.77      0.00
    0   20    2     -4.94      0.00
    2   20    2      0.56      0.00
    4   20    2     -0.82      0.00
    6   20    2      5.75      0.00
    8   20    2      5.45      0.00
   10   20    2      5.94      0.00
   12   20    2      7.25      0.00
   14   20    2     10.38      0.00
   16   20    2      8.50      0.00
    1   21    2     -0.82      0.00
    3   21    2     -2.66      0.00
    5   21    2      3.43      0.00
    7   21    2     -2.11      0.00
    9   21    2     -3.22      0.00
   11   21    2     -7.56      0.00
   13   21    2     -8.74      0.00
   15   21    2     -3.11      0.00
    0   22    2     -8.01      0.00
    2   22    2     -2.69      0.00
    4   22    2     -4.84      0.00
    6   22    2     -1.32      0.00
    8   22    2    -12.01      0.00
   10   22    2      5.75      0.00
   12   22    2      6.29      0.00
    1   23    2     -2.00      0.00
    3   23    2     -4.00      0.00
    5   23    2     15.06      0.00
    7   23    2      4.33      0.00
    9   23    2     -5.76      0.00
   11   23    2    -11.59      0.00
    0   24    2      3.37      0.00
    2   24    2    -13.86      0.00
    4   24    2     -2.20      0.00
    6   24    2     -4.43      0.00
    8   24    2      2.44      0.00
    1   25    2     13.40      0.00
    3   25    2      6.83      0.00
    5   25    2     -2.13      0.00
    7   25    2     29.98      0.00
    0    1    3    485.21      0.00
    1    2    3   -169.59      0.00
    0    3    3    -99.28      0.00
    2    3    3    -67.54      0.00
    1    4    3     92.80      0.00
    3    4    3     28.63      0.00
    0    5    3      3.47      0.00
    2    5    3     33.56      0.00
    4    5    3     -8.30      0.00
    1    6    3    -39.14      0.00
    3    6    3     14.75      0.00
    5    6    3     -0.25      0.00
    0    7    3    102.90      0.00
    2    7    3     -5.46      0.00
    4    7    3     54.85      0.00
    6    7    3     -6.98      0.00
    1    8    3     19.23      0.00
    3    8    3      4.59      0.00
    5    8    3     -4.64      0.00
    7    8    3     -2.87      0.00
    0    9    3    -44.76      0.00
    2    9    3      9.42      0.00
    4    9    3    -16.67      0.00
    6    9    3      3.27      0.00
    8    9    3    -13.49      0.00
    1   10    3     -7.30      0.00
    3   10    3     -7.99      0.00
    5   10    3      5.98      0.00
    7   10    3      3.25      0.00
    9   10    3     -5.00      0.00
    0   11    3     13.75      0.00
    2   11    3    -10.25      0.00
    4   11    3      2.13      0.00
    6   11    3     -0.52      0.00
    8   11    3      2.04      0.00
   10   11    3      1.90      0.00
    1   12    3      4.47      0.00
    3   12    3      5.14      0.00
    5   12    3     -0.61      0.00
    7   12    3      0.55      0.00
    9   12    3      6.04      0.00
   11   12    3     -0.65      0.00
    0   13    3    -11.47      0.00
    2   13    3      3.66      0.00
    4   13    3      4.29      0.00
    6   13    3     -2.09      0.00
    8   13    3     -6.89      0.00
   10   13    3      2.13      0.00
   12   13    3      3.89      0.00
    1   14    3     -3.51      0.00
    3   14    3      2.30      0.00
    5   14    3     -1.93      0.00
    7   14    3      3.33      0.00
    9   14    3     -0.71      0.00
   11   14    3     -8.47      0.00
   13   14    3     -0.65      0.00
    0   15    3      1.21      0.00
    2   15    3     -3.61      0.00
    4   15    3     -0.49      0.00
    6   15    3     -0.76      0.00
    8   15    3      1.64      0.00
   10   15    3      4.55      0.00
   12   15    3      2.54      0.00
   14   15    3     -3.09      0.00
    1   16    3     -1.57      0.00
    3   16    3      4.72      0.00
    5   16    3      3.12      0.00
    7   16    3     -1.14      0.00
    9   16    3      5.28      0.00
   11   16    3      1.95      0.00
   13   16    3      0.37      0.00
   15   16    3      4.67      0.00
    0   17    3      8.71      0.00
    2   17    3      2.65      0.00
    4   17    3     -1.58      0.00
    6   17    3      6.38      0.00
    8   17    3     -1.18      0.00
   10   17    3      6.91      0.00
   12   17    3      0.94      0.00
   14   17    3      8.05      0.00
   16   17    3     14.22      0.00
    1   18    3      6.65      0.00
    3   18    3     10.11      0.00
    5   18    3      0.59      0.00
    7   18    3      4.39      0.00
    9   18    3      3.85      0.00
   11   18    3     -7.32      0.00
   13   18    3      3.23      0.00
   15   18    3      9.10      0.00
   17   18    3      3.97      0.00
    0   19    3      2.55      0.00
    2   19    3      2.38      0.00
    4   19    3     -3.45      0.00
    6   19    3      3.28      0.00
    8   19    3     16.78      0.00
   10   19    3      2.28      0.00
   12   19    3     -2.42      0.00
   14   19    3      4.34      0.00
   16   19    3     12.42      0.00
    1   20    3     -1.31      0.00
    3   20    3     -1.51      0.00
    5   20    3    -12.33      0.00
    7   20    3      1.41      0.00
    9   20    3     -4.20      0.00
   11   20    3      1.80      0.00
   13   20    3     -1.37      0.00
   15   20    3     -6.30      0.00
    0   21    3    -10.23      0.00
    2   21    3      0.47      0.00
    4   21    3      8.07      0.00
    6   21    3     -3.02      0.00
    8   21    3      3.90      0.00
   10   21    3      4.12      0.00
   12   21    3     -3.38      0.00
   14   21    3      5.66      0.00
    1   22    3      7.66      0.00
    3   22    3     -4.75      0.00
    5   22    3      0.58      0.00
    7   22    3     -1.08      0.00
    9   22    3     -7.62      0.00
   11   22    3     -9.07      0.00
   13   22    3     -2.03      0.00
    0   23    3     -1.82      0.00
    2   23    3      1.82      0.00
    4   23    3     -1.48      0.00
    6   23    3     10.55      0.00
    8   23    3     19.83      0.00
   10   23    3      3.30      0.00
   12   23    3     -1.10      0.00
    1   24    3     -2.60      0.00
    3   24    3     12.40      0.00
    5   24    3     -5.15      0.00
    7   24    3     -7.69      0.00
    9   24    3     -3.28      0.00
    0   25    3      1.83      0.00
    2   25    3      4.14      0.00
    4   25    3     -4.96      0.00
    6   25    3     -1.20      0.00
    0    0    4   -148.60      0.00
    0    2    4    285.35      0.00
    2    2    4   -390.96      0.00
    1    3    4    -21.25      0.00
    0    4    4     -0.82      0.00
    2    4    4     10.08      0.00
    4    4    4   -152.73      0.00
    1    5    4     13.06      0.00
    3    5    4      4.72      0.00
    0    6    4    -22.01      0.00
    2    6    4    -53.46      0.00
    4    6    4     -1.61      0.00
    6    6    4    -24.75      0.00
    1    7    4    -16.01      0.00
    3    7    4      2.61      0.00
    5    7    4     -2.75      0.00
    0    8    4     26.31      0.00
    2    8    4      7.33      0.00
    4    8    4     -9.96      0.00
    6    8    4      0.02      0.00
    8    8    4     -3.39      0.00
    1    9    4     -0.57      0.00
    3    9    4     -4.64      0.00
    5    9    4     -1.52      0.00
    7    9    4      2.42      0.00
    0   10    4      0.09      0.00
    2   10    4    -25.56      0.00
    4   10    4      0.73      0.00
    6   10    4     -3.51      0.00
    8   10    4     -7.49      0.00
   10   10    4     -0.79      0.00
    1   11    4      3.17      0.00
    3   11    4      6.30      0.00
    5   11    4      3.47      0.00
    7   11    4      9.82      0.00
    9   11    4      9.43      0.00
    0   12    4    -11.83      0.00
    2   12    4      6.38      0.00
    4   12    4     -0.34      0.00
    6   12    4     -2.19      0.00
    8   12    4     -4.52      0.00
   10   12    4     -4.20      0.00
   12   12    4     -4.50      0.00
    1   13    4      7.86      0.00
    3   13    4     -2.84      0.00
    5   13    4     -2.77      0.00
    7   13    4     -3.19      0.00
    9   13    4     -2.26      0.00
   11   13    4      0.69      0.00
    0   14    4      7.05      0.00
    2   14    4      0.55      0.00
    4   14    4      8.80      0.00
    6   14    4      8.84      0.00
    8   14    4      6.18      0.00
   10   14    4     -7.06      0.00
   12   14    4      8.46      0.00
   14   14    4      2.59      0.00
    1   15    4     -2.87      0.00
    3   15    4     -2.37      0.00
    5   15    4      1.51      0.00
    7   15    4      1.23      0.00
    9   15    4      6.81      0.00
   11   15    4     -4.96      0.00
   13   15    4      5.54      0.00
    0   16    4     -1.74      0.00
    2   16    4      0.86      0.00
    4   16    4     -1.57      0.00
    6   16    4      2.49      0.00
    8   16    4     -8.47      0.00
   10   16    4      6.12      0.00
   12   16    4     -2.33      0.00
   14   16    4      2.40      0.00
   16   16    4     -2.83      0.00
    1   17    4     -5.48      0.00
    3   17    4      0.76      0.00
    5   17    4      0.34      0.00
    7   17    4      0.50      0.00
    9   17    4      5.36      0.00
   11   17    4      1.23      0.00
   13   17    4     -1.29      0.00
   15   17    4      2.88      0.00
    0   18    4      0.66      0.00
    2   18    4     -2.41      0.00
    4   18    4      2.59      0.00
    6   18    4     -6.95      0.00
    8   18    4     -0.78      0.00
   10   18    4      3.41      0.00
   12   18    4     -9.81      0.00
   14   18    4      3.73      0.00
   16   18    4     13.27      0.00
   18   18    4      5.23      0.00
    1   19    4     -1.49      0.00
    3   19    4     -3.57      0.00
    5   19    4     -4.97      0.00
    7   19    4      5.43      0.00
    9   19    4     -3.48      0.00
   11   19    4      0.17      0.00
   13   19    4      4.21      0.00
   15   19    4      3.51      0.00
   17   19    4      1.49      0.00
    0   20    4      0.76      0.00
    2   20    4      3.83      0.00
    4   20    4      4.38      0.00
    6   20    4      4.79      0.00
    8   20    4     -6.81      0.00
   10   20    4     -4.83      0.00
   12   20    4     -5.98      0.00
   14   20    4    -11.26      0.00
   16   20    4    -14.24      0.00
    1   21    4      4.69      0.00
    3   21    4     -2.21      0.00
    5   21    4      8.09      0.00
    7   21    4      1.65      0.00
    9   21    4     -0.92      0.00
   11   21    4      3.40      0.00
   13   21    4     -6.50      0.00
   15   21    4     -2.62      0.00
    0   22    4     -0.75      0.00
    2   22    4     13.60      0.00
    4   22    4     15.84      0.00
    6   22    4     14.38      0.00
    8   22    4      9.24      0.00
   10   22    4    -10.68      0.00
   12   22    4      3.56      0.00
    1   23    4    -10.41      0.00
    3   23    4     -1.49      0.00
    5   23    4      5.18      0.00
    7   23    4     10.96      0.00
    9   23    4     -3.87      0.00
   11   23    4     -5.05      0.00
    0   24    4      3.84      0.00
    2   24    4     -2.57      0.00
    4   24    4      2.89      0.00
    6   24    4     15.85      0.00
    8   24    4      2.42      0.00
    1   25    4      3.00      0.00
    3   25    4      7.99      0.00
    5   25    4     -2.13      0.00
    0    1    5   -168.34      0.00
    1    2    5     41.52      0.00
    0    3    5     70.02      0.00
    2    3    5     38.60      0.00
    1    4    5     23.65      0.00
    3    4    5     25.91      0.00
    0    5    5      5.13      0.00
    2    5    5     18.16      0.00
    4    5    5    -45.26      0.00
    1    6    5     31.59      0.00
    3    6    5     35.21      0.00
    5    6    5     30.04      0.00
    0    7    5     24.18      0.00
    2    7    5     -0.74      0.00
    4    7    5      1.33      0.00
    6    7    5      2.04      0.00
    1    8    5      3.80      0.00
    3    8    5     -1.78      0.00
    5    8    5      9.54      0.00
    7    8    5     14.93      0.00
    0    9    5    -26.00      0.00
    2    9    5     19.21      0.00
    4    9    5    -11.90      0.00
    6    9    5      3.48      0.00
    8    9    5      8.59      0.00
    1   10    5     -3.48      0.00
    3   10    5      4.28      0.00
    5   10    5      1.67      0.00
    7   10    5      1.94      0.00
    9   10    5     -1.42      0.00
    0   11    5     19.42      0.00
    2   11    5    -12.64      0.00
    4   11    5      6.98      0.00
    6   11    5     -2.69      0.00
    8   11    5      4.63      0.00
   10   11    5      1.79      0.00
    1   12    5     -2.35      0.00
    3   12    5     -5.33      0.00
    5   12    5     -4.07      0.00
    7   12    5     -1.08      0.00
    9   12    5      0.45      0.00
   11   12    5      3.75      0.00
    0   13    5    -17.26      0.00
    2   13    5      4.84      0.00
    4   13    5     -8.37      0.00
    6   13    5     -4.05      0.00
    8   13    5     -3.71      0.00
   10   13    5     -3.96      0.00
   12   13    5     -0.44      0.00
    1   14    5      0.48      0.00
    3   14    5     -5.17      0.00
    5   14    5     -8.49      0.00
    7   14    5     -5.40      0.00
    9   14    5     -0.09      0.00
   11   14    5     -0.68      0.00
   13   14    5      7.21      0.00
    0   15    5      1.48      0.00
    2   15    5     -8.64      0.00
    4   15    5      2.19      0.00
    6   15    5     -1.83      0.00
    8   15    5     -0.57      0.00
   10   15    5     -1.69      0.00
   12   15    5      9.07      0.00
   14   15    5     -4.08      0.00
    1   16    5     -2.80      0.00
    3   16    5      2.71      0.00
    5   16    5     -3.87      0.00
    7   16    5      3.25      0.00
    9   16    5      3.10      0.00
   11   16    5      0.34      0.00
   13   16    5      5.96      0.00
   15   16    5      2.22      0.00
    0   17    5     -1.12      0.00
    2   17    5      3.57      0.00
    4   17    5     -3.69      0.00
    6   17    5     -5.54      0.00
    8   17    5      4.26      0.00
   10   17    5      0.41      0.00
   12   17    5     -0.78      0.00
   14   17    5     10.29      0.00
   16   17    5      0.96      0.00
    1   18    5      0.17      0.00
    3   18    5      5.28      0.00
    5   18    5     -2.67      0.00
    7   18    5      0.28      0.00
    9   18    5      2.56      0.00
   11   18    5     -8.76      0.00
   13   18    5     -9.33      0.00
   15   18    5      4.31      0.00
   17   18    5     -2.49      0.00
    0   19    5     -5.87      0.00
    2   19    5     -2.16      0.00
    4   19    5     -2.97      0.00
    6   19    5      1.83      0.00
    8   19    5     -8.74      0.00
   10   19    5     -0.70      0.00
   12   19    5      4.58      0.00
   14   19    5     -2.49      0.00
   16   19    5     -4.27      0.00
    1   20    5      1.59      0.00
    3   20    5     -6.97      0.00
    5   20    5     -5.69      0.00
    7   20    5     -0.31      0.00
    9   20    5    -11.76      0.00
   11   20    5      0.99      0.00
   13   20    5      6.56      0.00
   15   20    5      0.63      0.00
    0   21    5     -2.25      0.00
    2   21    5      8.08      0.00
    4   21    5      3.09      0.00
    6   21    5    -11.08      0.00
    8   21    5      5.12      0.00
   10   21    5     -7.06      0.00
   12   21    5     -0.73      0.00
   14   21    5      7.06      0.00
    1   22    5     -1.05      0.00
    3   22    5     -0.63      0.00
    5   22    5     -6.33      0.00
    7   22    5     -3.71      0.00
    9   22    5      3.17      0.00
   11   22    5     -5.57      0.00
   13   22    5      0.22      0.00
    0   23    5    -11.56      0.00
    2   23    5     -3.08      0.00
    4   23    5     -0.26      0.00
    6   23    5     -2.95      0.00
    8   23    5    -11.82      0.00
   10   23    5     14.38      0.00
    1   24    5     -2.80      0.00
    3   24    5    -13.29      0.00
    5   24    5     -8.06      0.00
    7   24    5    -12.34      0.00
    9   24    5    -11.19      0.00
    0   25    5     -6.13      0.00
    2   25    5     -2.77      0.00
    4   25    5     -2.48      0.00
    6   25    5    -11.18      0.00
    1    1    6    120.19      0.00
    0    2    6   -196.50      0.00
    1    3    6    122.90      0.00
    3    3    6    232.33      0.00
    0    4    6     -1.46      0.00
    2    4    6     52.13      0.00
    1    5    6     44.69      0.00
    3    5    6    -13.69      0.00
    5    5    6     27.69      0.00
    0    6    6    -57.63      0.00
    2    6    6     17.48      0.00
    4    6    6      5.73      0.00
    1    7    6    -10.42      0.00
    3    7    6     35.15      0.00
    5    7    6     13.98      0.00
    7    7    6     10.88      0.00
    0    8    6      4.35      0.00
    2    8    6     -1.59      0.00
    4    8    6    -14.92      0.00
    6    8    6    -13.23      0.00
    1    9    6      2.00      0.00
    3    9    6     -7.07      0.00
    5    9    6     -5.68      0.00
    7    9    6      9.01      0.00
    9    9    6     -1.84      0.00
    0   10    6     -6.74      0.00
    2   10    6      0.75      0.00
    4   10    6      5.75      0.00
    6   10    6      5.50      0.00
    8   10    6      2.74      0.00
    1   11    6      3.85      0.00
    3   11    6     -1.96      0.00
    5   11    6     -9.26      0.00
    7   11    6     -6.85      0.00
    9   11    6     -1.58      0.00
   11   11    6     -2.65      0.00
    0   12    6     -3.71      0.00
    2   12    6     10.11      0.00
    4   12    6     -5.05      0.00
    6   12    6      2.48      0.00
    8   12    6      1.50      0.00
   10   12    6      6.53      0.00
    1   13    6     -2.29      0.00
    3   13    6     -5.55      0.00
    5   13    6      0.83      0.00
    7   13    6     -4.23      0.00
    9   13    6      4.58      0.00
   11   13    6     -3.80      0.00
   13   13    6     -4.15      0.00
    0   14    6     -0.89      0.00
    2   14    6     -7.02      0.00
    4   14    6      2.58      0.00
    6   14    6      0.53      0.00
    8   14    6     -3.87      0.00
   10   14    6      0.46      0.00
   12   14    6     -3.39      0.00
    1   15    6      0.46      0.00
    3   15    6      5.01      0.00
    5   15    6      0.20      0.00
    7   15    6      2.52      0.00
    9   15    6     -2.09      0.00
   11   15    6     -3.75      0.00
   13   15    6      6.58      0.00
   15   15    6      2.51      0.00
    0   16    6    -10.14      0.00
    2   16    6      3.77      0.00
    4   16    6      1.13      0.00
    6   16    6      4.21      0.00
    8   16    6      2.45      0.00
   10   16    6     -7.36      0.00
   12   16    6     -6.44      0.00
   14   16    6     -1.23      0.00
    1   17    6      2.37      0.00
    3   17    6      3.69      0.00
    5   17    6      9.76      0.00
    7   17    6    -12.58      0.00
    9   17    6      2.88      0.00
   11   17    6     -3.03      0.00
   13   17    6     -8.39      0.00
   15   17    6     -7.03      0.00
   17   17    6      2.08      0.00
    0   18    6      5.90      0.00
    2   18    6    -10.91      0.00
    4   18    6     -8.40      0.00
    6   18    6      2.59      0.00
    8   18    6    -13.04      0.00
   10   18    6     11.88      0.00
   12   18    6      5.07      0.00
   14   18    6     -3.91      0.00
   16   18    6      1.13      0.00
    1   19    6      4.26      0.00
    3   19    6     -0.02      0.00
    5   19    6     -0.57      0.00
    7   19    6      0.79      0.00
    9   19    6     -8.05      0.00
   11   19    6      7.09      0.00
   13   19    6      3.86      0.00
   15   19    6      3.52      0.00
   17   19    6      3.00      0.00
    0   20    6     -2.10      0.00
    2   20    6      8.13      0.00
    4   20    6      4.44      0.00
    6   20    6      3.58      0.00
    8   20    6      4.06      0.00
   10   20    6      2.24      0.00
   12   20    6     -8.22      0.00
   14   20    6      1.42      0.00
   16   20    6    -10.18      0.00
    1   21    6     10.09      0.00
    3   21    6     -5.22      0.00
    5   21    6     10.37      0.00
    7   21    6     -0.82      0.00
    9   21    6     -1.84      0.00
   11   21    6     -3.89      0.00
   13   21    6      8.01      0.00
   15   21    6    -19.50      0.00
    0   22    6     -1.40      0.00
    2   22    6     -5.54      0.00
    4   22    6      2.57      0.00
    6   22    6      0.70      0.00
    8   22    6     -2.74      0.00
   10   22    6      3.05      0.00
   12   22    6      1.16      0.00
    1   23    6      5.96      0.00
    3   23    6    -11.80      0.00
    5   23    6     -7.92      0.00
    7   23    6     -3.91      0.00
    9   23    6    -14.95      0.00
   11   23    6     16.13      0.00
    0   24    6     14.75      0.00
    2   24    6      5.90      0.00
    4   24    6     -2.11      0.00
    6   24    6      9.24      0.00
    8   24    6      9.97      0.00
    1   25    6      3.51      0.00
    3   25    6     15.24      0.00
    5   25    6     10.48      0.00
    0    1    7    -23.39      0.00
    1    2    7     15.48      0.00
    0    3    7   -257.57      0.00
    2    3    7   -213.44      0.00
    1    4    7     60.23      0.00
    3    4    7     39.32      0.00
    0    5    7     91.54      0.00
    2    5    7    -81.87      0.00
    4    5    7    -29.15      0.00
    1    6    7    -21.90      0.00
    3    6    7     -8.67      0.00
    5    6    7    -12.78      0.00
    0    7    7    -56.74      0.00
    2    7    7     11.32      0.00
    4    7    7     -1.53      0.00
    6    7    7     14.53      0.00
    1    8    7      3.56      0.00
    3    8    7    -12.20      0.00
    5    8    7     -8.73      0.00
    7    8    7      4.68      0.00
    0    9    7      5.41      0.00
    2    9    7     -9.55      0.00
    4    9    7      2.62      0.00
    6    9    7    -12.78      0.00
    8    9    7      2.08      0.00
    1   10    7      0.62      0.00
    3   10    7     15.01      0.00
    5   10    7      3.22      0.00
    7   10    7      3.91      0.00
    9   10    7      2.54      0.00
    0   11    7      1.67      0.00
    2   11    7     -0.10      0.00
    4   11    7      4.51      0.00
    6   11    7     -1.80      0.00
    8   11    7     -7.96      0.00
   10   11    7     10.32      0.00
    1   12    7      2.34      0.00
    3   12    7     -2.48      0.00
    5   12    7      6.04      0.00
    7   12    7     -4.64      0.00
    9   12    7     -0.65      0.00
   11   12    7      0.55      0.00
    0   13    7      7.37      0.00
    2   13    7      3.22      0.00
    4   13    7      7.31      0.00
    6   13    7      1.95      0.00
    8   13    7     -0.12      0.00
   10   13    7      4.82      0.00
   12   13    7      4.96      0.00
    1   14    7     -2.49      0.00
    3   14    7     -2.10      0.00
    5   14    7     -1.34      0.00
    7   14    7      3.15      0.00
    9   14    7     -4.00      0.00
   11   14    7     -1.31      0.00
   13   14    7     -4.71      0.00
    0   15    7     -0.96      0.00
    2   15    7     -0.94      0.00
    4   15    7     -2.59      0.00
    6   15    7      1.79      0.00
    8   15    7     -1.28      0.00
   10   15    7     -2.25      0.00
   12   15    7     -1.56      0.00
   14   15    7     -2.13      0.00
    1   16    7      4.81      0.00
    3   16    7      3.66      0.00
    5   16    7     -1.40      0.00
    7   16    7     -8.97      0.00
    9   16    7     -2.52      0.00
   11   16    7    -13.03      0.00
   13   16    7      2.02      0.00
   15   16    7      5.83      0.00
    0   17    7     -1.20      0.00
    2   17    7      1.52      0.00
    4   17    7      1.95      0.00
    6   17    7      3.41      0.00
    8   17    7     -0.08      0.00
   10   17    7     -0.60      0.00
   12   17    7    -13.46      0.00
   14   17    7     -9.33      0.00
   16   17    7    -15.31      0.00
    1   18    7     -5.80      0.00
    3   18    7      7.06      0.00
    5   18    7      0.03      0.00
    7   18    7      6.79      0.00
    9   18    7      8.89      0.00
   11   18    7      5.94      0.00
   13   18    7     -3.87      0.00
   15   18    7      4.91      0.00
   17   18    7    -10.49      0.00
    0   19    7      6.65      0.00
    2   19    7     -0.85      0.00
    4   19    7     10.99      0.00
    6   19    7     10.21      0.00
    8   19    7      7.02      0.00
   10   19    7      7.57      0.00
   12   19    7     -1.87      0.00
   14   19    7      9.12      0.00
   16   19    7      4.40      0.00
    1   20    7      4.94      0.00
    3   20    7     -0.43      0.00
    5   20    7      6.10      0.00
    7   20    7      7.00      0.00
    9   20    7     -3.14      0.00
   11   20    7     -6.06      0.00
   13   20    7      3.92      0.00
   15   20    7     -0.39      0.00
    0   21    7     -9.94      0.00
    2   21    7      2.48      0.00
    4   21    7     -0.16      0.00
    6   21    7      1.65      0.00
    8   21    7      2.58      0.00
   10   21    7     -1.14      0.00
   12   21    7      9.55      0.00
   14   21    7     -7.29      0.00
    1   22    7    -15.09      0.00
    3   22    7     -5.06      0.00
    5   22    7      3.05      0.00
    7   22    7     -0.09      0.00
    9   22    7      5.90      0.00
   11   22    7     17.17      0.00
   13   22    7      9.12      0.00
    0   23    7     -9.75      0.00
    2   23    7     -2.14      0.00
    4   23    7     -2.43      0.00
    6   23    7    -22.42      0.00
    8   23    7     -4.19      0.00
   10   23    7      0.12      0.00
    1   24    7     -7.72      0.00
    3   24    7      6.45      0.00
    5   24    7     -6.10      0.00
    7   24    7     -3.97      0.00
    9   24    7      0.62      0.00
    0   25    7     -2.11      0.00
    2   25    7      1.74      0.00
    4   25    7     -6.90      0.00
    6   25    7      1.82      0.00
    0    0    8    351.38      0.00
    0    2    8    287.36      0.00
    2    2    8    122.34      0.00
    1    3    8     -1.07      0.00
    0    4    8     -3.96      0.00
    2    4    8    -74.49      0.00
    4    4    8     30.11      0.00
    1    5    8      4.35      0.00
    3    5    8    -16.45      0.00
    0    6    8     16.34      0.00
    2    6    8    -18.38      0.00
    4    6    8     -9.24      0.00
    6    6    8     30.83      0.00
    1    7    8    -18.64      0.00
    3    7    8     16.35      0.00
    5    7    8      0.43      0.00
    0    8    8      5.85      0.00
    2    8    8     -1.30      0.00
    4    8    8     13.85      0.00
    6    8    8      3.78      0.00
    8    8    8     16.87      0.00
    1    9    8      1.77      0.00
    3    9    8    -11.92      0.00
    5    9    8     -8.28      0.00
    7    9    8     -3.78      0.00
    0   10    8      8.75      0.00
    2   10    8      8.38      0.00
    4   10    8      1.41      0.00
    6   10    8      3.76      0.00
    8   10    8      6.68      0.00
   10   10    8     -1.38      0.00
    1   11    8     -0.46      0.00
    3   11    8      7.52      0.00
    5   11    8      9.73      0.00
    7   11    8      1.52      0.00
    9   11    8     -1.90      0.00
    0   12    8     -1.17      0.00
    2   12    8     -5.40      0.00
    4   12    8      0.26      0.00
    6   12    8     -5.76      0.00
    8   12    8      1.45      0.00
   10   12    8      3.38      0.00
   12   12    8     -0.47      0.00
    1   13    8      1.70      0.00
    3   13    8      0.86      0.00
    5   13    8     -0.69      0.00
    7   13    8      9.44      0.00
    9   13    8      5.68      0.00
   11   13    8      3.69      0.00
    0   14    8      9.07      0.00
    2   14    8      1.47      0.00
    4   14    8     -1.31      0.00
    6   14    8      9.67      0.00
    8   14    8      3.53      0.00
   10   14    8      9.08      0.00
   12   14    8     -5.79      0.00
   14   14    8     -0.68      0.00
    1   15    8      3.52      0.00
    3   15    8     -4.56      0.00
    5   15    8      3.38      0.00
    7   15    8     -4.25      0.00
    9   15    8     -2.11      0.00
   11   15    8     -1.42      0.00
   13   15    8      7.29      0.00
    0   16    8     -3.03      0.00
    2   16    8      1.78      0.00
    4   16    8      3.88      0.00
    6   16    8     -4.64      0.00
    8   16    8     -4.13      0.00
   10   16    8     -0.08      0.00
   12   16    8      0.83      0.00
   14   16    8     -0.69      0.00
   16   16    8    -10.53      0.00
    1   17    8      3.63      0.00
    3   17    8     -0.69      0.00
    5   17    8     -5.31      0.00
    7   17    8     -3.10      0.00
    9   17    8      5.54      0.00
   11   17    8     -0.07      0.00
   13   17    8      3.74      0.00
   15   17    8      0.62      0.00
    0   18    8      6.29      0.00
    2   18    8     -2.90      0.00
    4   18    8     -7.48      0.00
    6   18    8      3.56      0.00
    8   18    8      4.67      0.00
   10   18    8      9.79      0.00
   12   18    8      4.82      0.00
   14   18    8     -2.36      0.00
   16   18    8     -2.85      0.00
   18   18    8      0.25      0.00
    1   19    8     -2.88      0.00
    3   19    8      9.22      0.00
    5   19    8     -5.30      0.00
    7   19    8     -0.36      0.00
    9   19    8      0.06      0.00
   11   19    8      4.78      0.00
   13   19    8     -2.41      0.00
   15   19    8     -2.49      0.00
   17   19    8     -1.15      0.00
    0   20    8     -3.73      0.00
    2   20    8      4.14      0.00
    4   20    8      3.75      0.00
    6   20    8      0.06      0.00
    8   20    8     -6.46      0.00
   10   20    8     -6.45      0.00
   12   20    8      1.89      0.00
   14   20    8      4.43      0.00
   16   20    8     -1.81      0.00
    1   21    8      6.98      0.00
    3   21    8    -11.90      0.00
    5   21    8      4.76      0.00
    7   21    8      1.25      0.00
    9   21    8      2.47      0.00
   11   21    8     -1.64      0.00
   13   21    8     -5.67      0.00
   15   21    8      2.29      0.00
    0   22    8     -2.46      0.00
    2   22    8     -0.30      0.00
    4   22    8     -8.18      0.00
    6   22    8    -12.28      0.00
    8   22    8     -4.38      0.00
   10   22    8     -2.31      0.00
   12   22    8      0.18      0.00
    1   23    8     -4.00      0.00
    3   23    8      0.18      0.00
    5   23    8     -5.28      0.00
    7   23    8     12.94      0.00
    9   23    8     -2.44      0.00
   11   23    8      6.66      0.00
    0   24    8     -6.51      0.00
    2   24    8     -1.99      0.00
    4   24    8     -3.05      0.00
    6   24    8     -4.13      0.00
    8   24    8     -3.46      0.00
    1   25    8     -0.30      0.00
    3   25    8      1.30      0.00
    5   25    8      2.18      0.00
    0    1    9     79.68      0.00
    1    2    9     67.29      0.00
    0    3    9    129.26      0.00
    2    3    9     86.82      0.00
    1    4    9    -16.95      0.00
    3    4    9    -85.46      0.00
    0    5    9      9.93      0.00
    2    5    9     43.63      0.00
    4    5    9    -24.41      0.00
    1    6    9     -4.16      0.00
    3    6    9     13.81      0.00
    5    6    9    -20.22      0.00
    0    7    9      0.64      0.00
    2    7    9     15.65      0.00
    4    7    9     12.13      0.00
    6    7    9      7.88      0.00
    1    8    9     -1.70      0.00
    3    8    9    -16.30      0.00
    5    8    9      6.64      0.00
    7    8    9     -8.86      0.00
    0    9    9     15.41      0.00
    2    9    9     -3.56      0.00
    4    9    9     -2.11      0.00
    6    9    9     -5.45      0.00
    8    9    9      3.97      0.00
    1   10    9     -9.42      0.00
    3   10    9      3.56      0.00
    5   10    9     -3.24      0.00
    7   10    9     -3.75      0.00
    9   10    9    -11.25      0.00
    0   11    9     -8.69      0.00
    2   11    9      9.96      0.00
    4   11    9      0.51      0.00
    6   11    9      6.63      0.00
    8   11    9     -2.20      0.00
   10   11    9     -0.86      0.00
    1   12    9     13.59      0.00
    3   12    9     -7.87      0.00
    5   12    9     -4.30      0.00
    7   12    9      0.67      0.00
    9   12    9     -5.81      0.00
   11   12    9      4.73      0.00
    0   13    9      0.63      0.00
    2   13    9     -7.40      0.00
    4   13    9      2.82      0.00
    6   13    9     -1.83      0.00
    8   13    9      1.08      0.00
   10   13    9     -2.82      0.00
   12   13    9      7.12      0.00
    1   14    9     -1.32      0.00
    3   14    9      5.27      0.00
    5   14    9      4.59      0.00
    7   14    9      1.26      0.00
    9   14    9      1.96      0.00
   11   14    9      2.39      0.00
   13   14    9      5.89      0.00
    0   15    9      2.78      0.00
    2   15    9      6.65      0.00
    4   15    9     -9.98      0.00
    6   15    9      1.51      0.00
    8   15    9      0.53      0.00
   10   15    9     -1.49      0.00
   12   15    9      0.47      0.00
   14   15    9      3.92      0.00
    1   16    9     -1.14      0.00
    3   16    9      2.36      0.00
    5   16    9      0.58      0.00
    7   16    9     -1.72      0.00
    9   16    9      1.13      0.00
   11   16    9     -1.17      0.00
   13   16    9      9.97      0.00
   15   16    9     -5.25      0.00
    0   17    9    -11.67      0.00
    2   17    9     -8.73      0.00
    4   17    9      8.28      0.00
    6   17    9      3.43      0.00
    8   17    9     11.73      0.00
   10   17    9     -0.69      0.00
   12   17    9      1.28      0.00
   14   17    9      0.22      0.00
   16   17    9     -7.99      0.00
    1   18    9     -1.39      0.00
    3   18    9      1.40      0.00
    5   18    9     -2.31      0.00
    7   18    9      1.02      0.00
    9   18    9     -1.73      0.00
   11   18    9    -10.68      0.00
   13   18    9     -9.76      0.00
   15   18    9     -4.24      0.00
   17   18    9     -1.83      0.00
    0   19    9     -4.07      0.00
    2   19    9      2.81      0.00
    4   19    9      4.25      0.00
    6   19    9      1.85      0.00
    8   19    9     -1.97      0.00
   10   19    9     -0.78      0.00
   12   19    9      2.24      0.00
   14   19    9     -6.06      0.00
   16   19    9     -7.67      0.00
    1   20    9     -0.17      0.00
    3   20    9     -8.56      0.00
    5   20    9     -6.70      0.00
    7   20    9      0.33      0.00
    9   20    9     -6.05      0.00
   11   20    9      2.29      0.00
   13   20    9     -4.22      0.00
   15   20    9     -1.36      0.00
    0   21    9    -19.19      0.00
    2   21    9      8.51      0.00
    4   21    9      3.73      0.00
    6   21    9      1.11      0.00
    8   21    9      4.14      0.00
   10   21    9      3.99      0.00
   12   21    9     -9.83      0.00
   14   21    9      6.89      0.00
    1   22    9      1.74      0.00
    3   22    9     -3.44      0.00
    5   22    9     -4.04      0.00
    7   22    9      1.48      0.00
    9   22    9      0.64      0.00
   11   22    9      4.39      0.00
   13   22    9      3.43      0.00
    0   23    9      1.88      0.00
    2   23    9     -9.19      0.00
    4   23    9     -3.83      0.00
    6   23    9     -9.96      0.00
    8   23    9     16.60      0.00
   10   23    9     -6.44      0.00
    1   24    9     -7.02      0.00
    3   24    9     -6.07      0.00
    5   24    9     -0.37      0.00
    7   24    9     -4.24      0.00
    9   24    9      4.75      0.00
    0   25    9    -10.40      0.00
    2   25    9      7.43      0.00
    4   25    9     -4.82      0.00
    6   25    9     11.68      0.00
    1    1   10     60.36      0.00
    0    2   10    107.08      0.00
    1    3   10     -9.29      0.00
    3    3   10    -30.41      0.00
    0    4   10   -116.67      0.00
    2    4   10    107.37      0.00
    1    5   10    -37.01      0.00
    3    5   10     13.00      0.00
    5    5   10    -71.06      0.00
    0    6   10      7.05      0.00
    2    6   10      1.10      0.00
    4    6   10     18.05      0.00
    1    7   10    -19.63      0.00
    3    7   10    -25.45      0.00
    5    7   10     13.77      0.00
    7    7   10    -16.32      0.00
    0    8   10    -29.07      0.00
    2    8   10      7.96      0.00
    4    8   10     -6.81      0.00
    6    8   10    -10.96      0.00
    1    9   10      5.61      0.00
    3    9   10     -3.21      0.00
    5    9   10    -19.42      0.00
    7    9   10      2.43      0.00
    9    9   10      5.39      0.00
    0   10   10     -0.42      0.00
    2   10   10      2.90      0.00
    4   10   10     -1.61      0.00
    6   10   10      4.93      0.00
    8   10   10     -1.54      0.00
    1   11   10     -7.25      0.00
    3   11   10     -5.18      0.00
    5   11   10     -0.76      0.00
    7   11   10     -1.19      0.00
    9   11   10     -8.04      0.00
   11   11   10     -5.30      0.00
    0   12   10      0.51      0.00
    2   12   10      8.16      0.00
    4   12   10     -1.63      0.00
    6   12   10     -3.26      0.00
    8   12   10      0.55      0.00
   10   12   10     -0.08      0.00
    1   13   10     -1.69      0.00
    3   13   10      2.65      0.00
    5   13   10      2.23      0.00
    7   13   10     -0.08      0.00
    9   13   10      5.64      0.00
   11   13   10      0.57      0.00
   13   13   10     -5.12      0.00
    0   14   10     -5.79      0.00
    2   14   10     -0.20      0.00
    4   14   10      1.75      0.00
    6   14   10     -2.39      0.00
    8   14   10     -3.69      0.00
   10   14   10      1.26      0.00
   12   14   10     -0.15      0.00
    1   15   10      2.58      0.00
    3   15   10     -2.77      0.00
    5   15   10      2.15      0.00
    7   15   10     -4.21      0.00
    9   15   10     -3.20      0.00
   11   15   10     -8.21      0.00
   13   15   10     10.82      0.00
   15   15   10     -4.80      0.00
    0   16   10     11.71      0.00
    2   16   10      2.72      0.00
    4   16   10      4.91      0.00
    6   16   10      4.62      0.00
    8   16   10      1.17      0.00
   10   16   10     -1.89      0.00
   12   16   10      7.85      0.00
   14   16   10      5.25      0.00
    1   17   10     -1.31      0.00
    3   17   10     -5.16      0.00
    5   17   10      2.13      0.00
    7   17   10     -8.41      0.00
    9   17   10    -11.70      0.00
   11   17   10      2.17      0.00
   13   17   10     -1.24      0.00
   15   17   10     -0.67      0.00
   17   17   10     -1.53      0.00
    0   18   10     -6.71      0.00
    2   18   10      5.72      0.00
    4   18   10    -14.04      0.00
    6   18   10     -3.62      0.00
    8   18   10     -4.39      0.00
   10   18   10      4.61      0.00
   12   18   10     -7.73      0.00
   14   18   10      4.81      0.00
   16   18   10     -0.89      0.00
    1   19   10      1.07      0.00
    3   19   10     -0.10      0.00
    5   19   10    -16.93      0.00
    7   19   10     -0.83      0.00
    9   19   10     -3.99      0.00
   11   19   10     -5.53      0.00
   13   19   10      3.21      0.00
   15   19   10      0.57      0.00
   17   19   10      2.54      0.00
    0   20   10     11.48      0.00
    2   20   10     -1.00      0.00
    4   20   10      6.07      0.00
    6   20   10     -3.15      0.00
    8   20   10     -7.41      0.00
   10   20   10      6.24      0.00
   12   20   10     -1.17      0.00
   14   20   10      1.47      0.00
   16   20   10     -1.37      0.00
    1   21   10     16.95      0.00
    3   21   10    -11.37      0.00
    5   21   10      2.42      0.00
    7   21   10    -11.93      0.00
    9   21   10     -6.30      0.00
   11   21   10      3.21      0.00
   13   21   10     -2.99      0.00
    0   22   10     17.16      0.00
    2   22   10      2.24      0.00
    4   22   10     -2.25      0.00
    6   22   10      5.75      0.00
    8   22   10      4.81      0.00
   10   22   10     -6.74      0.00
   12   22   10     -2.03      0.00
    1   23   10      6.27      0.00
    3   23   10     -7.56      0.00
    5   23   10      3.44      0.00
    7   23   10     -4.88      0.00
    9   23   10     -3.83      0.00
   11   23   10     -8.75      0.00
    0   24   10      5.12      0.00
    2   24   10     10.00      0.00
    4   24   10      5.27      0.00
    6   24   10     11.69      0.00
    8   24   10      4.05      0.00
    1   25   10     -0.04      0.00
    3   25   10      1.77      0.00
    5   25   10      2.03      0.00
    0    1   11    -76.45      0.00
    1    2   11      5.63      0.00
    0    3   11     41.29      0.00
    2    3   11    -90.41      0.00
    1    4   11    -21.36      0.00
    3    4   11    -12.70      0.00
    0    5   11    -15.30      0.00
    2    5   11     45.51      0.00
    4    5   11     15.95      0.00
    1    6   11     12.46      0.00
    3    6   11     21.08      0.00
    5    6   11     -2.27      0.00
    0    7   11     32.64      0.00
    2    7   11    -28.88      0.00
    4    7   11     36.41      0.00
    6    7   11      6.69      0.00
    1    8   11     -5.33      0.00
    3    8   11    -11.12      0.00
    5    8   11     -4.57      0.00
    7    8   11     -2.93      0.00
    0    9   11     10.93      0.00
    2    9   11     10.78      0.00
    4    9   11     -2.30      0.00
    6    9   11      3.16      0.00
    8    9   11     -6.52      0.00
    1   10   11     10.00      0.00
    3   10   11     10.94      0.00
    5   10   11      7.09      0.00
    7   10   11      4.96      0.00
    9   10   11      5.79      0.00
    0   11   11     -9.66      0.00
    2   11   11      4.17      0.00
    4   11   11      8.91      0.00
    6   11   11      1.18      0.00
    8   11   11      1.56      0.00
   10   11   11    -19.56      0.00
    1   12   11      4.18      0.00
    3   12   11     -6.71      0.00
    5   12   11      2.05      0.00
    7   12   11      0.55      0.00
    9   12   11      0.28      0.00
   11   12   11     -5.51      0.00
    0   13   11      9.51      0.00
    2   13   11     -2.17      0.00
    4   13   11      7.17      0.00
    6   13   11      2.34      0.00
    8   13   11     -0.28      0.00
   10   13   11     -0.38      0.00
   12   13   11      2.35      0.00
    1   14   11     -4.63      0.00
    3   14   11      4.49      0.00
    5   14   11     -3.42      0.00
    7   14   11     -0.24      0.00
    9   14   11     -4.85      0.00
   11   14   11     -3.19      0.00
   13   14   11      3.34      0.00
    0   15   11      1.44      0.00
    2   15   11      1.90      0.00
    4   15   11     -6.14      0.00
    6   15   11      1.18      0.00
    8   15   11      1.25      0.00
   10   15   11      6.05      0.00
   12   15   11     -1.56      0.00
   14   15   11     12.16      0.00
    1   16   11     -0.57      0.00
    3   16   11      1.07      0.00
    5   16   11      4.61      0.00
    7   16   11     -1.31      0.00
    9   16   11      3.87      0.00
   11   16   11      6.78      0.00
   13   16   11     -3.36      0.00
   15   16   11      6.57      0.00
    0   17   11      6.66      0.00
    2   17   11     -5.71      0.00
    4   17   11      8.09      0.00
    6   17   11     -0.26      0.00
    8   17   11     -3.09      0.00
   10   17   11      4.29      0.00
   12   17   11    -10.36      0.00
   14   17   11      6.73      0.00
   16   17   11      9.53      0.00
    1   18   11      3.15      0.00
    3   18   11     -0.43      0.00
    5   18   11     -3.45      0.00
    7   18   11     -7.05      0.00
    9   18   11      3.58      0.00
   11   18   11     -6.04      0.00
   13   18   11      6.62      0.00
   15   18   11      2.71      0.00
   17   18   11      8.48      0.00
    0   19   11      6.85      0.00
    2   19   11     -1.40      0.00
    4   19   11     -4.14      0.00
    6   19   11     -0.12      0.00
    8   19   11      4.38      0.00
   10   19   11      1.97      0.00
   12   19   11     -0.52      0.00
   14   19   11    -14.79      0.00
   16   19   11     -0.78      0.00
    1   20   11     -1.97      0.00
    3   20   11     10.13      0.00
    5   20   11      8.42      0.00
    7   20   11     10.66      0.00
    9   20   11     -3.99      0.00
   11   20   11     -0.49      0.00
   13   20   11     -0.37      0.00
   15   20   11      4.65      0.00
    0   21   11    -10.12      0.00
    2   21   11     -0.26      0.00
    4   21   11     -0.72      0.00
    6   21   11     -1.75      0.00
    8   21   11      1.14      0.00
   10   21   11      2.78      0.00
   12   21   11      6.11      0.00
   14   21   11      8.57      0.00
    1   22   11      4.20      0.00
    3   22   11      5.77      0.00
    5   22   11      3.89      0.00
    7   22   11     -3.29      0.00
    9   22   11     10.92      0.00
   11   22   11     -5.03      0.00
   13   22   11      1.70      0.00
    0   23   11     -4.15      0.00
    2   23   11      1.70      0.00
    4   23   11     10.03      0.00
    6   23   11     -6.02      0.00
    8   23   11     -6.20      0.00
   10   23   11     -8.62      0.00
    1   24   11      6.79      0.00
    3   24   11      1.28      0.00
    5   24   11      5.02      0.00
    7   24   11      2.82      0.00
    9   24   11    -15.17      0.00
    0   25   11      1.30      0.00
    2   25   11      2.40      0.00
    4   25   11    -14.53      0.00
    0    0   12   -107.03      0.00
    0    2   12      1.53      0.00
    2    2   12   -184.94      0.00
    1    3   12    -16.86      0.00
    0    4   12     54.59      0.00
    2    4   12    -66.82      0.00
    4    4   12    -40.42      0.00
    1    5   12    -28.63      0.00
    3    5   12     19.00      0.00
    0    6   12      8.99      0.00
    2    6   12     12.28      0.00
    4    6   12     16.26      0.00
    6    6   12     -3.16      0.00
    1    7   12     10.39      0.00
    3    7   12    -15.26      0.00
    5    7   12     30.35      0.00
    0    8   12      1.26      0.00
    2    8   12     -6.21      0.00
    4    8   12      0.88      0.00
    6    8   12      3.77      0.00
    8    8   12     -4.21      0.00
    1    9   12     -7.34      0.00
    3    9   12      9.30      0.00
    5    9   12    -21.87      0.00
    7    9   12      8.50      0.00
    0   10   12      7.01      0.00
    2   10   12     -4.24      0.00
    4   10   12     10.00      0.00
    6   10   12     -6.65      0.00
    8   10   12     -1.13      0.00
   10   10   12    -12.34      0.00
    1   11   12      5.50      0.00
    3   11   12     -3.31      0.00
    5   11   12     11.70      0.00
    7   11   12      6.22      0.00
    9   11   12      5.91      0.00
    0   12   12     -9.24      0.00
    2   12   12     -3.52      0.00
    4   12   12    -15.93      0.00
    6   12   12      1.93      0.00
    8   12   12      2.27      0.00
   10   12   12     -2.92      0.00
   12   12   12     -8.38      0.00
    1   13   12     -0.54      0.00
    3   13   12      1.59      0.00
    5   13   12      4.06      0.00
    7   13   12      7.37      0.00
    9   13   12      5.63      0.00
   11   13   12      0.90      0.00
    0   14   12     -4.99      0.00
    2   14   12     -3.62      0.00
    4   14   12      6.53      0.00
    6   14   12     -7.71      0.00
    8   14   12     -2.66      0.00
   10   14   12      5.15      0.00
   12   14   12     -1.65      0.00
   14   14   12     12.19      0.00
    1   15   12     -0.37      0.00
    3   15   12     -5.41      0.00
    5   15   12      3.13      0.00
    7   15   12     -4.52      0.00
    9   15   12     -3.00      0.00
   11   15   12      2.04      0.00
   13   15   12    -14.75      0.00
    0   16   12     10.25      0.00
    2   16   12     -1.77      0.00
    4   16   12     -9.97      0.00
    6   16   12      1.55      0.00
    8   16   12      7.09      0.00
   10   16   12      5.71      0.00
   12   16   12      0.45      0.00
   14   16   12     -0.76      0.00
   16   16   12     -2.00      0.00
    1   17   12     -7.33      0.00
    3   17   12     -1.02      0.00
    5   17   12      4.99      0.00
    7   17   12     -2.52      0.00
    9   17   12      3.64      0.00
   11   17   12     -4.87      0.00
   13   17   12      3.83      0.00
   15   17   12      4.38      0.00
    0   18   12     -7.29      0.00
    2   18   12      2.05      0.00
    4   18   12     -3.45      0.00
    6   18   12     -4.00      0.00
    8   18   12     -2.81      0.00
   10   18   12      1.06      0.00
   12   18   12     -5.85      0.00
   14   18   12      3.99      0.00
   16   18   12      8.00      0.00
   18   18   12     15.32      0.00
    1   19   12      2.47      0.00
    3   19   12      1.27      0.00
    5   19   12     -7.51      0.00
    7   19   12      4.01      0.00
    9   19   12     -3.48      0.00
   11   19   12     -5.36      0.00
   13   19   12     -6.66      0.00
   15   19   12      8.26      0.00
   17   19   12     10.49      0.00
    0   20   12     -7.32      0.00
    2   20   12     -4.03      0.00
    4   20   12      2.40      0.00
    6   20   12     -4.22      0.00
    8   20   12     -5.68      0.00
   10   20   12      8.62      0.00
   12   20   12      2.73      0.00
   14   20   12     -8.47      0.00
   16   20   12     -4.97      0.00
    1   21   12    -11.55      0.00
    3   21   12    -13.89      0.00
    5   21   12     -1.98      0.00
    7   21   12     -4.28      0.00
    9   21   12     -3.49      0.00
   11   21   12     -1.83      0.00
   13   21   12     10.89      0.00
    0   22   12     -8.77      0.00
    2   22   12      5.38      0.00
    4   22   12      9.02      0.00
    6   22   12      0.56      0.00
    8   22   12      4.81      0.00
   10   22   12      0.81      0.00
   12   22   12      0.00      0.00
    1   23   12     10.78      0.00
    3   23   12     10.17      0.00
    5   23   12      4.05      0.00
    7   23   12      1.35      0.00
    9   23   12    -15.01      0.00
   11   23   12     14.19      0.00
    0   24   12     -1.19      0.00
    2   24   12     -1.17      0.00
    4   24   12     -4.88      0.00
    6   24   12     10.51      0.00
    8   24   12     10.14      0.00
    1   25   12     -8.24      0.00
    3   25   12     -3.41      0.00
    5   25   12      1.08      0.00
    0    1   13    152.52      0.00
    1    2   13    -26.61      0.00
    0    3   13    -19.23      0.00
    2    3   13    -31.97      0.00
    1    4   13    -51.07      0.00
    3    4   13    -38.43      0.00
    0    5   13     41.47      0.00
    2    5   13    -17.81      0.00
    4    5   13    -23.47      0.00
    1    6   13     -1.00      0.00
    3    6   13    -25.12      0.00
    5    6   13      5.96      0.00
    0    7   13    -27.15      0.00
    2    7   13      9.37      0.00
    4    7   13    -22.08      0.00
    6    7   13     -0.08      0.00
    1    8   13     -8.78      0.00
    3    8   13     -0.20      0.00
    5    8   13    -13.65      0.00
    7    8   13      9.12      0.00
    0    9   13      1.51      0.00
    2    9   13      5.35      0.00
    4    9   13     -6.93      0.00
    6    9   13    -11.70      0.00
    8    9   13     -0.33      0.00
    1   10   13      2.02      0.00
    3   10   13    -13.24      0.00
    5   10   13      4.28      0.00
    7   10   13     -5.17      0.00
    9   10   13     -0.36      0.00
    0   11   13     -8.00      0.00
    2   11   13     -1.56      0.00
    4   11   13     -1.23      0.00
    6   11   13     -0.45      0.00
    8   11   13     -1.23      0.00
   10   11   13     -6.60      0.00
    1   12   13     -5.35      0.00
    3   12   13     -4.14      0.00
    5   12   13    -10.61      0.00
    7   12   13     -0.84      0.00
    9   12   13     -0.88      0.00
   11   12   13      6.09      0.00
    0   13   13      1.84      0.00
    2   13   13      2.81      0.00
    4   13   13     -4.72      0.00
    6   13   13     -2.86      0.00
    8   13   13     -1.72      0.00
   10   13   13     -3.33      0.00
   12   13   13     -6.18      0.00
    1   14   13      6.72      0.00
    3   14   13     -1.89      0.00
    5   14   13      6.57      0.00
    7   14   13     -2.20      0.00
    9   14   13      4.81      0.00
   11   14   13      5.91      0.00
   13   14   13     -0.21      0.00
    0   15   13    -11.61      0.00
    2   15   13     -2.18      0.00
    4   15   13     -3.68      0.00
    6   15   13     -2.41      0.00
    8   15   13      1.39      0.00
   10   15   13      1.06      0.00
   12   15   13      8.04      0.00
   14   15   13     -4.99      0.00
    1   16   13     -1.34      0.00
    3   16   13      5.07      0.00
    5   16   13      0.61      0.00
    7   16   13     -0.82      0.00
    9   16   13     -0.68      0.00
   11   16   13     -6.12      0.00
   13   16   13     -1.19      0.00
   15   16   13      0.74      0.00
    0   17   13      2.70      0.00
    2   17   13      3.49      0.00
    4   17   13      4.15      0.00
    6   17   13     -0.06      0.00
    8   17   13      7.45      0.00
   10   17   13      3.20      0.00
   12   17   13     -5.92      0.00
   14   17   13     -2.72      0.00
   16   17   13     -4.66      0.00
    1   18   13     -1.04      0.00
    3   18   13     -2.31      0.00
    5   18   13      3.48      0.00
    7   18   13     -5.79      0.00
    9   18   13      0.38      0.00
   11   18   13     -5.20      0.00
   13   18   13     -7.48      0.00
   15   18   13     -8.30      0.00
   17   18   13      4.75      0.00
    0   19   13      1.38      0.00
    2   19   13      4.25      0.00
    4   19   13      0.52      0.00
    6   19   13     -2.54      0.00
    8   19   13      4.21      0.00
   10   19   13     -1.78      0.00
   12   19   13     -2.92      0.00
   14   19   13      5.55      0.00
   16   19   13      4.97      0.00
    1   20   13     -0.93      0.00
    3   20   13     -0.37      0.00
    5   20   13     -1.69      0.00
    7   20   13     12.67      0.00
    9   20   13     -2.57      0.00
   11   20   13      1.43      0.00
   13   20   13      4.13      0.00
   15   20   13      2.22      0.00
    0   21   13    -13.70      0.00
    2   21   13     -1.36      0.00
    4   21   13      2.32      0.00
    6   21   13      5.24      0.00
    8   21   13      9.87      0.00
   10   21   13      6.11      0.00
   12   21   13     -1.34      0.00
   14   21   13     -1.03      0.00
    1   22   13      2.37      0.00
    3   22   13      7.55      0.00
    5   22   13      2.45      0.00
    7   22   13      9.66      0.00
    9   22   13     -4.58      0.00
   11   22   13     11.59      0.00
   13   22   13      1.44      0.00
    0   23   13      5.69      0.00
    2   23   13     11.78      0.00
    4   23   13      6.08      0.00
    6   23   13      8.08      0.00
    8   23   13     14.63      0.00
   10   23   13      4.53      0.00
    1   24   13      3.29      0.00
    3   24   13    -12.76      0.00
    5   24   13     -7.59      0.00
    7   24   13    -15.25      0.00
    0   25   13     -7.46      0.00
    2   25   13     -0.70      0.00
    4   25   13      3.55      0.00
    1    1   14     43.38      0.00
    0    2   14   -148.49      0.00
    1    3   14     -5.09      0.00
    3    3   14     34.66      0.00
    0    4   14    -20.97      0.00
    2    4   14    -17.71      0.00
    1    5   14     14.68      0.00
    3    5   14     -7.35      0.00
    5    5   14      3.28      0.00
    0    6   14    -16.05      0.00
    2    6   14     57.52      0.00
    4    6   14    -13.61      0.00
    1    7   14     -4.83      0.00
    3    7   14     -4.20      0.00
    5    7   14     -9.72      0.00
    7    7   14      6.38      0.00
    0    8   14     -7.47      0.00
    2    8   14      8.89      0.00
    4    8   14     -1.60      0.00
    6    8   14     -2.61      0.00
    1    9   14      5.88      0.00
    3    9   14     20.14      0.00
    5    9   14      2.49      0.00
    7    9   14     -1.82      0.00
    9    9   14     -5.97      0.00
    0   10   14      2.14      0.00
    2   10   14     -1.73      0.00
    4   10   14      5.84      0.00
    6   10   14      3.18      0.00
    8   10   14     -0.80      0.00
    1   11   14      9.32      0.00
    3   11   14      0.66      0.00
    5   11   14      0.96      0.00
    7   11   14      3.24      0.00
    9   11   14      3.97      0.00
   11   11   14      2.41      0.00
    0   12   14    -22.64      0.00
    2   12   14     -1.18      0.00
    4   12   14      2.83      0.00
    6   12   14      2.57      0.00
    8   12   14      0.65      0.00
   10   12   14     -3.51      0.00
    1   13   14      2.46      0.00
    3   13   14     -7.00      0.00
    5   13   14     -4.00      0.00
    7   13   14    -19.50      0.00
    9   13   14      3.98      0.00
   11   13   14      2.20      0.00
   13   13   14      4.65      0.00
    0   14   14      4.12      0.00
    2   14   14     -1.51      0.00
    4   14   14     -1.93      0.00
    6   14   14      0.13      0.00
    8   14   14     -0.75      0.00
   10   14   14     -7.54      0.00
   12   14   14     -2.38      0.00
    1   15   14     -1.88      0.00
    3   15   14      1.34      0.00
    5   15   14     -3.19      0.00
    7   15   14     -4.62      0.00
    9   15   14     -6.38      0.00
   11   15   14      8.54      0.00
   13   15   14     -4.39      0.00
   15   15   14    -15.17      0.00
    0   16   14    -16.90      0.00
    2   16   14     -4.97      0.00
    4   16   14      2.25      0.00
    6   16   14      5.83      0.00
    8   16   14      2.79      0.00
   10   16   14     -2.53      0.00
   12   16   14     -9.33      0.00
   14   16   14      3.40      0.00
    1   17   14      0.83      0.00
    3   17   14      2.89      0.00
    5   17   14      1.39      0.00
    7   17   14     -0.08      0.00
    9   17   14      2.84      0.00
   11   17   14     -8.87      0.00
   13   17   14      7.80      0.00
   15   17   14      2.55      0.00
   17   17   14      6.92      0.00
    0   18   14     -3.09      0.00
    2   18   14      2.59      0.00
    4   18   14      3.59      0.00
    6   18   14      3.24      0.00
    8   18   14      1.95      0.00
   10   18   14      4.94      0.00
   12   18   14     -5.92      0.00
   14   18   14     -0.01      0.00
   16   18   14      0.12      0.00
    1   19   14      1.76      0.00
    3   19   14     -4.54      0.00
    5   19   14     -2.56      0.00
    7   19   14     -2.80      0.00
    9   19   14     -9.70      0.00
   11   19   14      7.18      0.00
   13   19   14      7.88      0.00
   15   19   14      5.35      0.00
   17   19   14     -3.97      0.00
    0   20   14      0.48      0.00
    2   20   14    -14.03      0.00
    4   20   14     -7.09      0.00
    6   20   14     -4.20      0.00
    8   20   14     -3.72      0.00
   10   20   14      3.95      0.00
   12   20   14      7.73      0.00
   14   20   14      1.45      0.00
    1   21   14     -2.93      0.00
    3   21   14     -1.87      0.00
    5   21   14      4.07      0.00
    7   21   14     -5.70      0.00
    9   21   14    -10.40      0.00
   11   21   14     -9.89      0.00
   13   21   14     -0.52      0.00
    0   22   14      5.74      0.00
    2   22   14      5.66      0.00
    4   22   14     -0.11      0.00
    6   22   14      3.09      0.00
    8   22   14     -1.45      0.00
   10   22   14      2.76      0.00
   12   22   14      3.95      0.00
    1   23   14      7.12      0.00
    3   23   14      3.24      0.00
    5   23   14      9.36      0.00
    7   23   14     -2.12      0.00
    9   23   14      2.05      0.00
   11   23   14      1.20      0.00
    0   24   14     -2.04      0.00
    2   24   14     -7.14      0.00
    4   24   14      4.05      0.00
    6   24   14      9.90      0.00
    8   24   14      0.47      0.00
    1   25   14     -4.15      0.00
    3   25   14     -4.89      0.00
    5   25   14      0.70      0.00
    0    1   15    -38.76      0.00
    1    2   15    -46.85      0.00
    0    3   15    -59.23      0.00
    2    3   15     32.96      0.00
    1    4   15     19.21      0.00
    3    4   15     33.54      0.00
    0    5   15     39.04      0.00
    2    5   15    -51.82      0.00
    4    5   15      8.18      0.00
    1    6   15     22.54      0.00
    3    6   15     21.88      0.00
    5    6   15     11.23      0.00
    0    7   15      3.71      0.00
    2    7   15     25.51      0.00
    4    7   15     -5.24      0.00
    6    7   15     -3.11      0.00
    1    8   15    -14.34      0.00
    3    8   15     -4.02      0.00
    5    8   15     -8.57      0.00
    7    8   15      5.91      0.00
    0    9   15      9.42      0.00
    2    9   15     -7.05      0.00
    4    9   15     13.47      0.00
    6    9   15    -13.50      0.00
    8    9   15     -2.28      0.00
    1   10   15      7.77      0.00
    3   10   15      2.49      0.00
    5   10   15     10.56      0.00
    7   10   15     -0.23      0.00
    9   10   15      1.91      0.00
    0   11   15      9.03      0.00
    2   11   15     -5.29      0.00
    4   11   15      1.22      0.00
    6   11   15      2.74      0.00
    8   11   15     -1.05      0.00
   10   11   15      2.78      0.00
    1   12   15     -2.35      0.00
    3   12   15      5.09      0.00
    5   12   15     -5.44      0.00
    7   12   15      5.75      0.00
    9   12   15      4.54      0.00
   11   12   15      6.08      0.00
    0   13   15     -1.75      0.00
    2   13   15      1.69      0.00
    4   13   15     -5.94      0.00
    6   13   15     -5.92      0.00
    8   13   15      2.40      0.00
   10   13   15      2.10      0.00
   12   13   15      2.16      0.00
    1   14   15      5.11      0.00
    3   14   15     -4.99      0.00
    5   14   15      1.65      0.00
    7   14   15     -4.66      0.00
    9   14   15     -0.78      0.00
   11   14   15     -1.53      0.00
   13   14   15      5.86      0.00
    0   15   15     -3.16      0.00
    2   15   15      6.16      0.00
    4   15   15      9.69      0.00
    6   15   15     -1.71      0.00
    8   15   15     -7.41      0.00
   10   15   15     -6.04      0.00
   12   15   15     -2.39      0.00
   14   15   15      7.17      0.00
    1   16   15     -0.86      0.00
    3   16   15      2.01      0.00
    5   16   15      0.93      0.00
    7   16   15     -0.91      0.00
    9   16   15      1.00      0.00
   11   16   15      1.36      0.00
   13   16   15     -4.72      0.00
   15   16   15     -9.99      0.00
    0   17   15     -0.62      0.00
    2   17   15    -12.05      0.00
    4   17   15     -5.52      0.00
    6   17   15      0.99      0.00
    8   17   15     -0.62      0.00
   10   17   15      2.66      0.00
   12   17   15     -4.05      0.00
   14   17   15      2.07      0.00
   16   17   15     -4.09      0.00
    1   18   15      3.85      0.00
    3   18   15     -1.33      0.00
    5   18   15     -0.90      0.00
    7   18   15      1.41      0.00
    9   18   15      2.93      0.00
   11   18   15      4.18      0.00
   13   18   15      7.21      0.00
   15   18   15     15.36      0.00
   17   18   15     -0.08      0.00
    0   19   15      3.99      0.00
    2   19   15     -3.84      0.00
    4   19   15     10.42      0.00
    6   19   15     -0.21      0.00
    8   19   15      9.44      0.00
   10   19   15     -4.38      0.00
   12   19   15      2.93      0.00
   14   19   15     -9.80      0.00
   16   19   15     -9.48      0.00
    1   20   15     -3.34      0.00
    3   20   15     -0.01      0.00
    5   20   15      4.03      0.00
    7   20   15      3.34      0.00
    9   20   15      1.50      0.00
   11   20   15      1.47      0.00
   13   20   15      7.95      0.00
   15   20   15      1.28      0.00
    0   21   15     -2.33      0.00
    2   21   15     -2.78      0.00
    4   21   15     -2.16      0.00
    6   21   15      1.55      0.00
    8   21   15    -13.23      0.00
   10   21   15      5.22      0.00
   12   21   15      8.19      0.00
   14   21   15     -9.08      0.00
    1   22   15     -8.82      0.00
    3   22   15     -5.24      0.00
    5   22   15     -8.91      0.00
    7   22   15      0.08      0.00
    9   22   15     -8.32      0.00
   11   22   15    -12.98      0.00
    0   23   15     -3.02      0.00
    2   23   15      7.58      0.00
    4   23   15      2.37      0.00
    6   23   15    -14.39      0.00
    8   23   15      3.60      0.00
   10   23   15      4.29      0.00
    1   24   15      2.89      0.00
    3   24   15      4.50      0.00
    5   24   15      2.09      0.00
    7   24   15    -14.10      0.00
    0   25   15      1.48      0.00
    2   25   15      0.77      0.00
    4   25   15      2.67      0.00
    0    0   16     21.51      0.00
    0    2   16     59.61      0.00
    2    2   16    -24.65      0.00
    1    3   16      0.79      0.00
    0    4   16     22.76      0.00
    2    4   16      0.20      0.00
    4    4   16     -2.08      0.00
    1    5   16     -3.23      0.00
    3    5   16      7.83      0.00
    0    6   16     16.35      0.00
    2    6   16    -54.58      0.00
    4    6   16      8.86      0.00
    6    6   16    -13.01      0.00
    1    7   16      4.44      0.00
    3    7   16      6.57      0.00
    5    7   16      1.88      0.00
    0    8   16      3.60      0.00
    2    8   16     -6.05      0.00
    4    8   16     -1.90      0.00
    6    8   16      3.29      0.00
    8    8   16     -0.81      0.00
    1    9   16    -35.26      0.00
    3    9   16    -16.27      0.00
    5    9   16      6.66      0.00
    7    9   16     -6.29      0.00
    0   10   16      3.65      0.00
    2   10   16      5.17      0.00
    4   10   16     -1.66      0.00
    6   10   16     -2.50      0.00
    8   10   16     -2.03      0.00
   10   10   16     -0.31      0.00
    1   11   16      1.11      0.00
    3   11   16     -2.43      0.00
    5   11   16     -2.56      0.00
    7   11   16      6.38      0.00
    9   11   16     -3.07      0.00
    0   12   16     -0.86      0.00
    2   12   16     -2.05      0.00
    4   12   16      1.77      0.00
    6   12   16      1.48      0.00
    8   12   16      5.80      0.00
   10   12   16      0.19      0.00
   12   12   16      1.70      0.00
    1   13   16     -8.30      0.00
    3   13   16    -14.89      0.00
    5   13   16      0.37      0.00
    7   13   16     -0.85      0.00
    9   13   16      4.79      0.00
   11   13   16      0.98      0.00
    0   14   16      5.18      0.00
    2   14   16      2.36      0.00
    4   14   16      0.29      0.00
    6   14   16     -1.80      0.00
    8   14   16     -2.90      0.00
   10   14   16     -1.47      0.00
   12   14   16     -4.79      0.00
   14   14   16      8.46      0.00
    1   15   16      2.58      0.00
    3   15   16     -1.67      0.00
    5   15   16      6.77      0.00
    7   15   16      0.58      0.00
    9   15   16      4.98      0.00
   11   15   16      6.32      0.00
   13   15   16     -8.05      0.00
    0   16   16     -4.09      0.00
    2   16   16     -4.28      0.00
    4   16   16      0.10      0.00
    6   16   16     -2.88      0.00
    8   16   16     -4.87      0.00
   10   16   16    -12.19      0.00
   12   16   16      2.62      0.00
   14   16   16      3.11      0.00
   16   16   16     -5.61      0.00
    1   17   16     -3.18      0.00
    3   17   16     -1.36      0.00
    5   17   16     -2.39      0.00
    7   17   16     -5.93      0.00
    9   17   16     -2.34      0.00
   11   17   16      5.03      0.00
   13   17   16      3.83      0.00
   15   17   16     10.54      0.00
    0   18   16     -7.41      0.00
    2   18   16      1.74      0.00
    4   18   16     -3.66      0.00
    6   18   16     -3.91      0.00
    8   18   16     -2.87      0.00
   10   18   16     -1.33      0.00
   12   18   16     -8.43      0.00
   14   18   16      5.55      0.00
   16   18   16     -2.84      0.00
    1   19   16      4.17      0.00
    3   19   16      3.61      0.00
    5   19   16     -0.35      0.00
    7   19   16     -3.86      0.00
    9   19   16      6.70      0.00
   11   19   16     -1.81      0.00
   13   19   16     -1.93      0.00
   15   19   16     -3.56      0.00
    0   20   16     -4.16      0.00
    2   20   16     -2.48      0.00
    4   20   16     -2.98      0.00
    6   20   16     -6.04      0.00
    8   20   16     -1.49      0.00
   10   20   16      4.31      0.00
   12   20   16     -0.29      0.00
   14   20   16      1.64      0.00
    1   21   16      0.56      0.00
    3   21   16     -2.51      0.00
    5   21   16      1.05      0.00
    7   21   16     -4.81      0.00
    9   21   16     -7.73      0.00
   11   21   16      3.71      0.00
   13   21   16     -2.65      0.00
    0   22   16      4.33      0.00
    2   22   16     -1.98      0.00
    4   22   16      0.39      0.00
    6   22   16      3.23      0.00
    8   22   16     -6.47      0.00
   10   22   16     -7.76      0.00
   12   22   16     -4.68      0.00
    1   23   16     -2.53      0.00
    3   23   16     -1.07      0.00
    5   23   16      4.78      0.00
    7   23   16      2.27      0.00
    9   23   16     -1.47      0.00
    0   24   16     -3.89      0.00
    2   24   16      4.12      0.00
    4   24   16     -3.29      0.00
    6   24   16     -7.84      0.00
    8   24   16      0.21      0.00
    1   25   16      2.52      0.00
    3   25   16     -0.96      0.00
    0    1   17     40.59      0.00
    1    2   17     38.76      0.00
    0    3   17     32.75      0.00
    2    3   17    -19.82      0.00
    1    4   17      2.07      0.00
    3    4   17     10.52      0.00
    0    5   17      5.23      0.00
    2    5   17      7.74      0.00
    4    5   17      2.62      0.00
    1    6   17      9.27      0.00
    3    6   17     -3.15      0.00
    5    6   17     16.81      0.00
    0    7   17     -2.72      0.00
    2    7   17     -8.24      0.00
    4    7   17     -8.51      0.00
    6    7   17      3.41      0.00
    1    8   17     12.94      0.00
    3    8   17      2.57      0.00
    5    8   17      5.43      0.00
    7    8   17      5.13      0.00
    0    9   17     -9.21      0.00
    2    9   17      5.95      0.00
    4    9   17     -0.13      0.00
    6    9   17      1.21      0.00
    8    9   17      3.68      0.00
    1   10   17      3.91      0.00
    3   10   17     -2.07      0.00
    5   10   17     -1.11      0.00
    7   10   17     -1.91      0.00
    9   10   17     -7.43      0.00
    0   11   17     -3.39      0.00
    2   11   17     15.26      0.00
    4   11   17     -1.75      0.00
    6   11   17      4.31      0.00
    8   11   17      6.26      0.00
   10   11   17      1.33      0.00
    1   12   17     -2.69      0.00
    3   12   17      2.55      0.00
    5   12   17      0.70      0.00
    7   12   17     -1.15      0.00
    9   12   17     -4.35      0.00
   11   12   17     -7.66      0.00
    0   13   17      3.22      0.00
    2   13   17      0.20      0.00
    4   13   17      4.78      0.00
    6   13   17      0.09      0.00
    8   13   17      3.04      0.00
   10   13   17      4.99      0.00
   12   13   17     -0.52      0.00
    1   14   17      4.98      0.00
    3   14   17      0.17      0.00
    5   14   17     11.85      0.00
    7   14   17     -3.13      0.00
    9   14   17     -2.27      0.00
   11   14   17      4.31      0.00
   13   14   17     -1.92      0.00
    0   15   17      2.33      0.00
    2   15   17      8.81      0.00
    4   15   17     -2.55      0.00
    6   15   17     12.96      0.00
    8   15   17     12.79      0.00
   10   15   17     -4.98      0.00
   12   15   17      7.46      0.00
   14   15   17      4.84      0.00
    1   16   17     -3.44      0.00
    3   16   17     -1.81      0.00
    5   16   17      3.51      0.00
    7   16   17     -0.64      0.00
    9   16   17      4.54      0.00
   11   16   17      5.50      0.00
   13   16   17      5.27      0.00
   15   16   17     -0.50      0.00
    0   17   17      1.35      0.00
    2   17   17      0.62      0.00
    4   17   17     -3.42      0.00
    6   17   17     -4.19      0.00
    8   17   17     -7.37      0.00
   10   17   17      5.73      0.00
   12   17   17     -0.60      0.00
   14   17   17      0.08      0.00
   16   17   17     -0.31      0.00
    1   18   17      2.47      0.00
    3   18   17     -1.33      0.00
    5   18   17     -2.49      0.00
    7   18   17      3.29      0.00
    9   18   17     -0.97      0.00
   11   18   17     -4.62      0.00
   13   18   17     -2.47      0.00
   15   18   17     -1.89      0.00
   17   18   17     21.12      0.00
    0   19   17     -2.93      0.00
    2   19   17     -0.58      0.00
    4   19   17     -1.90      0.00
    6   19   17     -3.82      0.00
    8   19   17     13.09      0.00
   10   19   17      3.12      0.00
   12   19   17     -2.67      0.00
   14   19   17     -2.71      0.00
   16   19   17     -8.47      0.00
    1   20   17      9.23      0.00
    3   20   17     -0.21      0.00
    5   20   17     -3.81      0.00
    7   20   17     -2.38      0.00
    9   20   17      2.08      0.00
   11   20   17      4.00      0.00
   13   20   17      2.43      0.00
   15   20   17      3.83      0.00
    0   21   17      7.54      0.00
    2   21   17      3.13      0.00
    4   21   17     -4.24      0.00
    6   21   17      7.04      0.00
    8   21   17     13.89      0.00
   10   21   17      0.79      0.00
   12   21   17     -3.56      0.00
   14   21   17      1.90      0.00
    1   22   17     -0.61      0.00
    3   22   17     -3.63      0.00
    5   22   17     -4.79      0.00
    7   22   17     -1.75      0.00
    9   22   17     -1.33      0.00
   11   22   17      7.84      0.00
    0   23   17    -11.02      0.00
    2   23   17      1.20      0.00
    4   23   17     -7.35      0.00
    6   23   17      7.53      0.00
    8   23   17     13.18      0.00
   10   23   17      8.98      0.00
    1   24   17      0.53      0.00
    3   24   17      6.91      0.00
    5   24   17      4.73      0.00
    7   24   17     11.65      0.00
    0   25   17      6.38      0.00
    2   25   17     -5.57      0.00
    4   25   17    -11.96      0.00
    1    1   18    -17.01      0.00
    0    2   18     14.54      0.00
    1    3   18      1.86      0.00
    3    3   18    -16.81      0.00
    0    4   18    -10.87      0.00
    2    4   18     35.36      0.00
    1    5   18     16.40      0.00
    3    5   18      0.80      0.00
    5    5   18    -22.99      0.00
    0    6   18    -15.00      0.00
    2    6   18     26.85      0.00
    4    6   18     16.62      0.00
    1    7   18     -0.70      0.00
    3    7   18      9.70      0.00
    5    7   18     -1.25      0.00
    7    7   18    -11.67      0.00
    0    8   18    -10.97      0.00
    2    8   18      2.35      0.00
    4    8   18     -7.55      0.00
    6    8   18     10.90      0.00
    1    9   18      7.06      0.00
    3    9   18     -3.24      0.00
    5    9   18      7.61      0.00
    7    9   18     -0.04      0.00
    9    9   18      1.23      0.00
    0   10   18    -20.45      0.00
    2   10   18     10.56      0.00
    4   10   18     -6.09      0.00
    6   10   18     -8.57      0.00
    8   10   18     -0.86      0.00
    1   11   18      3.63      0.00
    3   11   18     15.68      0.00
    5   11   18      0.43      0.00
    7   11   18      5.05      0.00
    9   11   18     -3.71      0.00
   11   11   18     -2.96      0.00
    0   12   18     16.82      0.00
    2   12   18     -6.61      0.00
    4   12   18     -0.38      0.00
    6   12   18      3.14      0.00
    8   12   18      6.18      0.00
   10   12   18      1.22      0.00
    1   13   18     -2.15      0.00
    3   13   18     -9.47      0.00
    5   13   18     -0.09      0.00
    7   13   18     -5.33      0.00
    9   13   18     -4.08      0.00
   11   13   18     -3.86      0.00
   13   13   18      1.78      0.00
    0   14   18     -3.05      0.00
    2   14   18      0.03      0.00
    4   14   18     -1.81      0.00
    6   14   18     -1.58      0.00
    8   14   18      5.13      0.00
   10   14   18      4.57      0.00
   12   14   18     -2.26      0.00
    1   15   18      3.81      0.00
    3   15   18      5.88      0.00
    5   15   18      8.67      0.00
    7   15   18     -1.28      0.00
    9   15   18      2.07      0.00
   11   15   18     -1.14      0.00
   13   15   18      5.25      0.00
   15   15   18     -5.98      0.00
    0   16   18     -3.81      0.00
    2   16   18      1.94      0.00
    4   16   18     -3.31      0.00
    6   16   18     -5.64      0.00
    8   16   18      2.86      0.00
   10   16   18     -6.28      0.00
   12   16   18     -0.88      0.00
   14   16   18     -0.49      0.00
    1   17   18      9.43      0.00
    3   17   18      0.69      0.00
    5   17   18      2.22      0.00
    7   17   18      9.79      0.00
    9   17   18     10.69      0.00
   11   17   18      7.98      0.00
   13   17   18      3.07      0.00
   15   17   18      2.40      0.00
   17   17   18    -14.80      0.00
    0   18   18      9.44      0.00
    2   18   18      8.09      0.00
    4   18   18      6.60      0.00
    6   18   18      9.21      0.00
    8   18   18     -0.01      0.00
   10   18   18      7.97      0.00
   12   18   18     -9.98      0.00
   14   18   18      3.43      0.00
   16   18   18    -14.61      0.00
    1   19   18      1.87      0.00
    3   19   18      1.11      0.00
    5   19   18     -1.71      0.00
    7   19   18     -2.29      0.00
    9   19   18      3.82      0.00
   11   19   18     -1.36      0.00
   13   19   18      2.71      0.00
   15   19   18      6.69      0.00
    0   20   18     -5.21      0.00
    2   20   18     -2.60      0.00
    4   20   18     -0.94      0.00
    6   20   18      4.70      0.00
    8   20   18      4.92      0.00
   10   20   18      0.13      0.00
   12   20   18      0.59      0.00
   14   20   18     -9.97      0.00
    1   21   18     11.81      0.00
    3   21   18      0.95      0.00
    5   21   18     10.34      0.00
    7   21   18      5.75      0.00
    9   21   18     -3.94      0.00
   11   21   18     -0.08      0.00
   13   21   18      0.10      0.00
    0   22   18      8.83      0.00
    2   22   18     -6.01      0.00
    4   22   18      4.72      0.00
    6   22   18      1.63      0.00
    8   22   18     -6.68      0.00
   10   22   18     -4.47      0.00
   12   22   18      6.88      0.00
    1   23   18     -6.79      0.00
    3   23   18     -9.48      0.00
    5   23   18     -5.85      0.00
    7   23   18     -1.89      0.00
    9   23   18     14.09      0.00
    0   24   18     -2.30      0.00
    2   24   18      1.78      0.00
    4   24   18      5.15      0.00
    6   24   18      3.33      0.00
    1   25   18      7.68      0.00
    3   25   18      7.86      0.00
    0    1   19     19.22      0.00
    1    2   19    -20.14      0.00
    0    3   19     29.46      0.00
    2    3   19      3.39      0.00
    1    4   19     17.61      0.00
    3    4   19     12.99      0.00
    0    5   19    -43.28      0.00
    2    5   19      8.44      0.00
    4    5   19     -9.97      0.00
    1    6   19     -4.91      0.00
    3    6   19      8.82      0.00
    5    6   19    -13.63      0.00
    0    7   19     11.83      0.00
    2    7   19     -8.69      0.00
    4    7   19     17.30      0.00
    6    7   19      9.01      0.00
    1    8   19      1.61      0.00
    3    8   19      3.59      0.00
    5    8   19     -4.26      0.00
    7    8   19     -6.64      0.00
    0    9   19     11.82      0.00
    2    9   19     -8.96      0.00
    4    9   19     -2.85      0.00
    6    9   19      4.64      0.00
    8    9   19      3.77      0.00
    1   10   19     -7.67      0.00
    3   10   19      9.57      0.00
    5   10   19     -7.44      0.00
    7   10   19      3.21      0.00
    9   10   19      0.41      0.00
    0   11   19    -12.77      0.00
    2   11   19     -2.07      0.00
    4   11   19     -1.82      0.00
    6   11   19     -4.62      0.00
    8   11   19      3.80      0.00
   10   11   19     -8.77      0.00
    1   12   19      5.81      0.00
    3   12   19     -5.73      0.00
    5   12   19      6.68      0.00
    7   12   19      0.50      0.00
    9   12   19      5.16      0.00
   11   12   19      4.10      0.00
    0   13   19     -1.76      0.00
    2   13   19     -1.22      0.00
    4   13   19      1.58      0.00
    6   13   19     -1.43      0.00
    8   13   19      1.98      0.00
   10   13   19      3.08      0.00
   12   13   19    -11.00      0.00
    1   14   19     -6.77      0.00
    3   14   19      2.93      0.00
    5   14   19     -1.68      0.00
    7   14   19      4.07      0.00
    9   14   19      0.94      0.00
   11   14   19     -1.64      0.00
   13   14   19      2.77      0.00
    0   15   19      0.66      0.00
    2   15   19     -1.06      0.00
    4   15   19      1.40      0.00
    6   15   19      2.56      0.00
    8   15   19      1.10      0.00
   10   15   19     -1.27      0.00
   12   15   19      1.09      0.00
   14   15   19      1.24      0.00
    1   16   19      8.90      0.00
    3   16   19     -5.52      0.00
    5   16   19      1.86      0.00
    7   16   19     -0.01      0.00
    9   16   19     -1.18      0.00
   11   16   19      2.56      0.00
   13   16   19    -10.11      0.00
   15   16   19     -5.28      0.00
    0   17   19      0.70      0.00
    2   17   19     -1.45      0.00
    4   17   19     -1.86      0.00
    6   17   19     -5.55      0.00
    8   17   19     -2.84      0.00
   10   17   19     -7.74      0.00
   12   17   19      2.48      0.00
   14   17   19     -0.66      0.00
   16   17   19     -1.66      0.00
    1   18   19     -2.47      0.00
    3   18   19      2.25      0.00
    5   18   19      1.70      0.00
    7   18   19      1.06      0.00
    9   18   19      3.68      0.00
   11   18   19     -0.63      0.00
   13   18   19      4.88      0.00
   15   18   19     -9.88      0.00
   17   18   19     -3.17      0.00
    0   19   19      7.10      0.00
    2   19   19     -0.56      0.00
    4   19   19     10.47      0.00
    6   19   19     -1.83      0.00
    8   19   19     -8.01      0.00
   10   19   19     -9.48      0.00
   12   19   19      0.78      0.00
   14   19   19      3.74      0.00
   16   19   19     -0.57      0.00
    1   20   19      4.96      0.00
    3   20   19      9.30      0.00
    5   20   19      2.73      0.00
    7   20   19      2.47      0.00
    9   20   19     -3.09      0.00
   11   20   19     -8.17      0.00
   13   20   19    -12.36      0.00
   15   20   19     -3.13      0.00
    0   21   19      5.77      0.00
    2   21   19      3.26      0.00
    4   21   19      5.63      0.00
    6   21   19     -6.78      0.00
    8   21   19      3.55      0.00
   10   21   19     -1.23      0.00
   12   21   19      6.95      0.00
    1   22   19     -5.87      0.00
    3   22   19      1.52      0.00
    5   22   19     -4.69      0.00
    7   22   19     -3.82      0.00
    9   22   19     -1.77      0.00
   11   22   19      0.81      0.00
    0   23   19     -4.65      0.00
    2   23   19      6.31      0.00
    4   23   19     -0.25      0.00
    6   23   19      3.44      0.00
    8   23   19    -12.32      0.00
   10   23   19     -3.28      0.00
    1   24   19     -0.12      0.00
    3   24   19     -4.23      0.00
    5   24   19     -0.22      0.00
    7   24   19     -0.43      0.00
    0   25   19      3.22      0.00
    2   25   19     -2.79      0.00
    0    0   20    -11.40      0.00
    0    2   20     27.13      0.00
    2    2   20     -1.80      0.00
    1    3   20    -14.21      0.00
    0    4   20     16.71      0.00
    2    4   20    -32.19      0.00
    4    4   20     10.64      0.00
    1    5   20      8.17      0.00
    3    5   20      7.06      0.00
    0    6   20      2.28      0.00
    2    6   20    -17.37      0.00
    4    6   20     -9.05      0.00
    6    6   20     -8.87      0.00
    1    7   20     -5.73      0.00
    3    7   20      7.66      0.00
    5    7   20      4.92      0.00
    0    8   20      7.24      0.00
    2    8   20    -10.24      0.00
    4    8   20      1.43      0.00
    6    8   20     -2.11      0.00
    8    8   20     -4.82      0.00
    1    9   20      6.37      0.00
    3    9   20     -4.94      0.00
    5    9   20     -2.14      0.00
    7    9   20     -4.37      0.00
    0   10   20     11.41      0.00
    2   10   20     -1.89      0.00
    4   10   20      3.13      0.00
    6   10   20      3.31      0.00
    8   10   20      0.69      0.00
   10   10   20      5.38      0.00
    1   11   20     -0.41      0.00
    3   11   20      0.34      0.00
    5   11   20     -2.70      0.00
    7   11   20      3.70      0.00
    9   11   20      1.56      0.00
    0   12   20      2.41      0.00
    2   12   20      2.13      0.00
    4   12   20     -1.54      0.00
    6   12   20      3.55      0.00
    8   12   20      7.60      0.00
   10   12   20      0.23      0.00
   12   12   20     -3.04      0.00
    1   13   20     -0.81      0.00
    3   13   20     -6.63      0.00
    5   13   20      4.34      0.00
    7   13   20     -9.76      0.00
    9   13   20     -0.63      0.00
   11   13   20     -8.89      0.00
    0   14   20      6.32      0.00
    2   14   20      2.44      0.00
    4   14   20     -0.78      0.00
    6   14   20    -10.49      0.00
    8   14   20     -3.03      0.00
   10   14   20     -2.51      0.00
   12   14   20      0.45      0.00
   14   14   20    -11.83      0.00
    1   15   20      5.68      0.00
    3   15   20     -2.86      0.00
    5   15   20      5.61      0.00
    7   15   20      1.17      0.00
    9   15   20     -5.24      0.00
   11   15   20      0.85      0.00
   13   15   20     -3.75      0.00
    0   16   20      1.59      0.00
    2   16   20     -0.05      0.00
    4   16   20     -1.82      0.00
    6   16   20     -2.71      0.00
    8   16   20      4.91      0.00
   10   16   20      0.35      0.00
   12   16   20     -1.87      0.00
   14   16   20     13.30      0.00
   16   16   20     -4.12      0.00
    1   17   20      1.63      0.00
    3   17   20      3.00      0.00
    5   17   20      9.21      0.00
    7   17   20     -5.85      0.00
    9   17   20      4.54      0.00
   11   17   20     -7.49      0.00
   13   17   20    -10.72      0.00
   15   17   20      0.32      0.00
    0   18   20      0.66      0.00
    2   18   20      2.69      0.00
    4   18   20      3.53      0.00
    6   18   20     -4.26      0.00
    8   18   20     -3.02      0.00
   10   18   20     10.24      0.00
   12   18   20      5.19      0.00
   14   18   20      2.41      0.00
   16   18   20      4.79      0.00
    1   19   20    -15.21      0.00
    3   19   20     -0.36      0.00
    5   19   20      3.55      0.00
    7   19   20      5.82      0.00
    9   19   20     -1.46      0.00
   11   19   20      3.17      0.00
   13   19   20     -7.15      0.00
   15   19   20     -3.93      0.00
    0   20   20      1.14      0.00
    2   20   20     -0.61      0.00
    4   20   20     -0.93      0.00
    6   20   20      6.94      0.00
    8   20   20     -0.78      0.00
   10   20   20      8.72      0.00
   12   20   20      0.26      0.00
   14   20   20      6.86      0.00
    1   21   20     -9.07      0.00
    3   21   20     -5.14      0.00
    5   21   20      3.13      0.00
    7   21   20     -6.52      0.00
    9   21   20      4.85      0.00
   11   21   20     -1.37      0.00
   13   21   20     -2.26      0.00
    0   22   20     -2.70      0.00
    2   22   20      5.39      0.00
    4   22   20     -6.05      0.00
    6   22   20    -10.10      0.00
    8   22   20      6.11      0.00
   10   22   20     -7.28      0.00
   12   22   20     -4.01      0.00
    1   23   20     -1.47      0.00
    3   23   20      2.54      0.00
    5   23   20     -4.07      0.00
    7   23   20    -13.97      0.00
    9   23   20     -3.68      0.00
    0   24   20      0.53      0.00
    2   24   20     -3.24      0.00
    4   24   20    -10.02      0.00
    6   24   20     -3.58      0.00
    1   25   20      1.09      0.00
    0    1   21     16.80      0.00
    1    2   21     13.61      0.00
    0    3   21     -3.30      0.00
    2    3   21     -2.41      0.00
    1    4   21     -0.34      0.00
    3    4   21     -5.94      0.00
    0    5   21     23.54      0.00
    2    5   21    -15.63      0.00
    4    5   21     12.98      0.00
    1    6   21      3.86      0.00
    3    6   21     -4.02      0.00
    5    6   21     -1.61      0.00
    0    7   21      8.87      0.00
    2    7   21     13.23      0.00
    4    7   21      0.56      0.00
    6    7   21     12.79      0.00
    1    8   21     -2.89      0.00
    3    8   21     -7.74      0.00
    5    8   21     -0.31      0.00
    7    8   21     -2.06      0.00
    0    9   21      0.26      0.00
    2    9   21      2.65      0.00
    4    9   21     -0.90      0.00
    6    9   21     -1.33      0.00
    8    9   21     -2.37      0.00
    1   10   21     -0.17      0.00
    3   10   21      3.18      0.00
    5   10   21     -2.60      0.00
    7   10   21     -7.88      0.00
    9   10   21     -3.11      0.00
    0   11   21    -11.25      0.00
    2   11   21      1.70      0.00
    4   11   21     -1.72      0.00
    6   11   21     -1.12      0.00
    8   11   21      1.12      0.00
   10   11   21     -2.88      0.00
    1   12   21      2.03      0.00
    3   12   21     -2.28      0.00
    5   12   21     13.96      0.00
    7   12   21     -3.64      0.00
    9   12   21     -4.32      0.00
   11   12   21      0.09      0.00
    0   13   21     -1.79      0.00
    2   13   21      3.16      0.00
    4   13   21     -5.15      0.00
    6   13   21     -0.31      0.00
    8   13   21     -4.93      0.00
   10   13   21      1.46      0.00
   12   13   21     -0.12      0.00
    1   14   21      1.76      0.00
    3   14   21      4.92      0.00
    5   14   21     -4.38      0.00
    7   14   21      0.87      0.00
    9   14   21      3.00      0.00
   11   14   21     -0.01      0.00
   13   14   21     -0.68      0.00
    0   15   21      9.93      0.00
    2   15   21      0.91      0.00
    4   15   21      2.51      0.00
    6   15   21     -2.60      0.00
    8   15   21     -2.80      0.00
   10   15   21      4.56      0.00
   12   15   21     -2.65      0.00
   14   15   21     -2.70      0.00
    1   16   21     -5.74      0.00
    3   16   21     -0.20      0.00
    5   16   21      8.11      0.00
    7   16   21    -11.60      0.00
    9   16   21     -5.38      0.00
   11   16   21     10.10      0.00
   13   16   21      9.44      0.00
   15   16   21     -5.33      0.00
    0   17   21    -16.88      0.00
    2   17   21      2.91      0.00
    4   17   21     -7.38      0.00
    6   17   21     -7.27      0.00
    8   17   21     -3.48      0.00
   10   17   21    -14.31      0.00
   12   17   21      3.20      0.00
   14   17   21      1.81      0.00
   16   17   21     10.03      0.00
    1   18   21     -2.14      0.00
    3   18   21      1.23      0.00
    5   18   21     -3.41      0.00
    7   18   21      0.86      0.00
    9   18   21      1.25      0.00
   11   18   21     -9.40      0.00
   13   18   21      3.93      0.00
   15   18   21      5.83      0.00
   17   18   21     -4.09      0.00
    0   19   21     12.47      0.00
    2   19   21      1.82      0.00
    4   19   21     -0.69      0.00
    6   19   21     -5.50      0.00
    8   19   21      0.05      0.00
   10   19   21     -3.52      0.00
   12   19   21    -11.90      0.00
   14   19   21      4.16      0.00
   16   19   21      0.72      0.00
    1   20   21     12.22      0.00
    3   20   21      7.75      0.00
    5   20   21      8.42      0.00
    7   20   21     -0.89      0.00
    9   20   21     -3.98      0.00
   11   20   21     -3.77      0.00
   13   20   21     -7.96      0.00
    0   21   21      0.05      0.00
    2   21   21      6.30      0.00
    4   21   21    -10.16      0.00
    6   21   21     -3.18      0.00
    8   21   21     -4.14      0.00
   10   21   21     -4.32      0.00
   12   21   21      0.99      0.00
    1   22   21      5.37      0.00
    3   22   21     -0.19      0.00
    5   22   21     -2.05      0.00
    7   22   21      1.64      0.00
    9   22   21     -1.18      0.00
   11   22   21      2.35      0.00
    0   23   21     -3.24      0.00
    2   23   21     -0.66      0.00
    4   23   21    -10.20      0.00
    6   23   21      6.23      0.00
    8   23   21    -18.83      0.00
    1   24   21      4.94      0.00
    3   24   21     -6.15      0.00
    5   24   21      5.19      0.00
    1    1   22     13.10      0.00
    0    2   22     -0.32      0.00
    1    3   22     -7.65      0.00
    3    3   22     17.52      0.00
    0    4   22     -0.92      0.00
    2    4   22     11.75      0.00
    1    5   22      0.66      0.00
    3    5   22    -11.35      0.00
    5    5   22     -1.43      0.00
    0    6   22     -7.60      0.00
    2    6   22      6.54      0.00
    4    6   22     -9.28      0.00
    1    7   22     -4.38      0.00
    3    7   22    -11.15      0.00
    5    7   22    -10.18      0.00
    7    7   22      7.98      0.00
    0    8   22    -18.22      0.00
    2    8   22     14.72      0.00
    4    8   22      3.10      0.00
    6    8   22     -6.33      0.00
    1    9   22     -0.73      0.00
    3    9   22      2.11      0.00
    5    9   22     -5.81      0.00
    7    9   22     -5.79      0.00
    9    9   22      7.45      0.00
    0   10   22     -0.75      0.00
    2   10   22     -3.38      0.00
    4   10   22     -2.18      0.00
    6   10   22      9.84      0.00
    8   10   22     -7.78      0.00
    1   11   22      1.77      0.00
    3   11   22      1.32      0.00
    5   11   22      1.95      0.00
    7   11   22     -1.87      0.00
    9   11   22      1.60      0.00
   11   11   22      8.65      0.00
    0   12   22      4.73      0.00
    2   12   22      1.17      0.00
    4   12   22     -1.52      0.00
    6   12   22      1.11      0.00
    8   12   22     -1.79      0.00
   10   12   22     -8.46      0.00
    1   13   22      0.70      0.00
    3   13   22     -2.69      0.00
    5   13   22     -1.03      0.00
    7   13   22     -3.56      0.00
    9   13   22     -1.08      0.00
   11   13   22      1.75      0.00
   13   13   22     11.56      0.00
    0   14   22     -2.04      0.00
    2   14   22     -1.87      0.00
    4   14   22      1.20      0.00
    6   14   22      1.41      0.00
    8   14   22     10.69      0.00
   10   14   22      6.04      0.00
   12   14   22      7.02      0.00
    1   15   22     -0.03      0.00
    3   15   22      4.50      0.00
    5   15   22      3.15      0.00
    7   15   22      1.32      0.00
    9   15   22      0.62      0.00
   11   15   22      0.76      0.00
   13   15   22      5.87      0.00
   15   15   22      1.36      0.00
    0   16   22     -5.36      0.00
    2   16   22     -2.75      0.00
    4   16   22      0.86      0.00
    6   16   22      0.28      0.00
    8   16   22     -4.61      0.00
   10   16   22      1.50      0.00
   12   16   22     -5.56      0.00
   14   16   22      9.98      0.00
    1   17   22     -2.48      0.00
    3   17   22     -1.67      0.00
    5   17   22      4.49      0.00
    7   17   22      1.07      0.00
    9   17   22      4.85      0.00
   11   17   22      3.68      0.00
   13   17   22     -1.94      0.00
   15   17   22      5.55      0.00
   17   17   22     -1.85      0.00
    0   18   22     -8.52      0.00
    2   18   22     -3.41      0.00
    4   18   22     -5.73      0.00
    6   18   22     -4.17      0.00
    8   18   22      8.36      0.00
   10   18   22      1.90      0.00
   12   18   22      6.81      0.00
   14   18   22     -1.64      0.00
   16   18   22     14.78      0.00
    1   19   22     -5.55      0.00
    3   19   22     -8.03      0.00
    5   19   22      4.83      0.00
    7   19   22      7.85      0.00
    9   19   22     12.20      0.00
   11   19   22     -2.59      0.00
   13   19   22     -3.92      0.00
   15   19   22    -13.78      0.00
    0   20   22     -8.57      0.00
    2   20   22     -2.63      0.00
    4   20   22     -4.23      0.00
    6   20   22      4.65      0.00
    8   20   22    -10.55      0.00
   10   20   22      4.01      0.00
   12   20   22     -3.28      0.00
   14   20   22     -3.62      0.00
    1   21   22      4.88      0.00
    3   21   22      5.20      0.00
    5   21   22      1.64      0.00
    7   21   22      3.63      0.00
    9   21   22      8.60      0.00
   11   21   22      4.10      0.00
   13   21   22     -3.29      0.00
    0   22   22      2.67      0.00
    2   22   22     -5.54      0.00
    4   22   22      1.59      0.00
    6   22   22      0.18      0.00
    8   22   22      7.67      0.00
   10   22   22      1.82      0.00
    1   23   22     -6.89      0.00
    3   23   22      1.68      0.00
    5   23   22     -2.14      0.00
    7   23   22      1.11      0.00
    9   23   22      8.00      0.00
    0   24   22      3.14      0.00
    2   24   22      3.43      0.00
    4   24   22      4.12      0.00
    6   24   22     -2.27      0.00
    0    1   23      0.01      0.00
    1    2   23     -0.70      0.00
    0    3   23    -12.48      0.00
    2    3   23     -7.79      0.00
    1    4   23      2.84      0.00
    3    4   23      0.95      0.00
    0    5   23    -11.21      0.00
    2    5   23     -6.44      0.00
    4    5   23      8.87      0.00
    1    6   23     -8.98      0.00
    3    6   23     -1.61      0.00
    5    6   23     -7.50      0.00
    0    7   23     -4.93      0.00
    2    7   23     -5.22      0.00
    4    7   23     -5.19      0.00
    6    7   23      5.11      0.00
    1    8   23     -1.19      0.00
    3    8   23      1.32      0.00
    5    8   23     -0.89      0.00
    7    8   23      1.17      0.00
    0    9   23     -4.87      0.00
    2    9   23      6.11      0.00
    4    9   23      2.12      0.00
    6    9   23      2.37      0.00
    8    9   23     -3.44      0.00
    1   10   23     -1.21      0.00
    3   10   23      4.24      0.00
    5   10   23     -2.01      0.00
    7   10   23      6.22      0.00
    9   10   23      1.87      0.00
    0   11   23     -0.38      0.00
    2   11   23     -4.46      0.00
    4   11   23      1.91      0.00
    6   11   23     -0.12      0.00
    8   11   23      1.72      0.00
   10   11   23     -0.60      0.00
    1   12   23     -0.46      0.00
    3   12   23      3.67      0.00
    5   12   23     -9.76      0.00
    7   12   23     -4.65      0.00
    9   12   23     -5.51      0.00
   11   12   23     -2.57      0.00
    0   13   23     -0.67      0.00
    2   13   23     -2.37      0.00
    4   13   23      1.64      0.00
    6   13   23      3.45      0.00
    8   13   23      5.33      0.00
   10   13   23      1.64      0.00
   12   13   23     -4.22      0.00
    1   14   23     -1.97      0.00
    3   14   23      0.38      0.00
    5   14   23     -0.25      0.00
    7   14   23     -3.42      0.00
    9   14   23      0.87      0.00
   11   14   23     -5.76      0.00
   13   14   23     -8.30      0.00
    0   15   23     -9.21      0.00
    2   15   23      0.80      0.00
    4   15   23      0.74      0.00
    6   15   23     -4.38      0.00
    8   15   23      1.98      0.00
   10   15   23     -0.17      0.00
   12   15   23      7.80      0.00
   14   15   23     -1.06      0.00
    1   16   23      0.41      0.00
    3   16   23     -3.51      0.00
    5   16   23     -0.34      0.00
    7   16   23      2.09      0.00
    9   16   23     -3.39      0.00
   11   16   23     -2.62      0.00
   13   16   23      6.15      0.00
   15   16   23     -3.31      0.00
    0   17   23     -6.44      0.00
    2   17   23     -3.15      0.00
    4   17   23     -1.94      0.00
    6   17   23     -1.78      0.00
    8   17   23      5.06      0.00
   10   17   23     -8.84      0.00
   12   17   23      8.93      0.00
   14   17   23      8.67      0.00
   16   17   23     -0.38      0.00
    1   18   23     11.22      0.00
    3   18   23      7.16      0.00
    5   18   23     -0.44      0.00
    7   18   23      6.05      0.00
    9   18   23      4.64      0.00
   11   18   23     -2.36      0.00
   13   18   23      5.04      0.00
   15   18   23      3.69      0.00
   17   18   23     -7.62      0.00
    0   19   23      4.55      0.00
    2   19   23     -8.20      0.00
    4   19   23      1.79      0.00
    6   19   23     -1.77      0.00
    8   19   23      0.58      0.00
   10   19   23      3.39      0.00
   12   19   23     12.52      0.00
   14   19   23      8.56      0.00
    1   20   23     -4.93      0.00
    3   20   23     -1.09      0.00
    5   20   23     -3.10      0.00
    7   20   23     -9.55      0.00
    9   20   23    -14.48      0.00
   11   20   23      4.54      0.00
   13   20   23     -5.44      0.00
    0   21   23      1.31      0.00
    2   21   23     -8.56      0.00
    4   21   23     -1.17      0.00
    6   21   23     -3.37      0.00
    8   21   23     -8.22      0.00
   10   21   23      6.63      0.00
   12   21   23      6.80      0.00
    1   22   23    -11.98      0.00
    3   22   23     -7.54      0.00
    5   22   23      9.70      0.00
    7   22   23      6.58      0.00
    9   22   23     -2.31      0.00
   11   22   23     -4.00      0.00
    0   23   23     -4.65      0.00
    2   23   23     -1.26      0.00
    4   23   23     -3.64      0.00
    6   23   23      3.72      0.00
    8   23   23      1.21      0.00
    1   24   23     -3.74      0.00
    3   24   23      2.58      0.00
    5   24   23      2.54      0.00
    0    0   24     46.39      0.00
    0    2   24     18.73      0.00
    2    2   24     -3.58      0.00
    1    3   24      8.91      0.00
    0    4   24    -20.91      0.00
    2    4   24    -17.12      0.00
    4    4   24      1.03      0.00
    1    5   24     11.99      0.00
    3    5   24     12.62      0.00
    0    6   24     20.83      0.00
    2    6   24     -5.81      0.00
    4    6   24      3.31      0.00
    6    6   24     12.25      0.00
    1    7   24     -2.68      0.00
    3    7   24      2.13      0.00
    5    7   24      3.83      0.00
    0    8   24      9.25      0.00
    2    8   24    -12.57      0.00
    4    8   24     -0.36      0.00
    6    8   24     -5.40      0.00
    8    8   24     -1.74      0.00
    1    9   24     -0.12      0.00
    3    9   24      3.80      0.00
    5    9   24     -1.83      0.00
    7    9   24      3.05      0.00
    0   10   24      9.01      0.00
    2   10   24      4.45      0.00
    4   10   24     -0.53      0.00
    6   10   24     11.64      0.00
    8   10   24      5.23      0.00
   10   10   24      9.46      0.00
    1   11   24      2.41      0.00
    3   11   24     -2.32      0.00
    5   11   24     -0.54      0.00
    7   11   24     -5.82      0.00
    9   11   24      5.16      0.00
    0   12   24     -0.78      0.00
    2   12   24     -2.68      0.00
    4   12   24      1.52      0.00
    6   12   24     -4.20      0.00
    8   12   24      0.49      0.00
   10   12   24     -2.68      0.00
   12   12   24      2.93      0.00
    1   13   24     13.75      0.00
    3   13   24      2.06      0.00
    5   13   24      3.07      0.00
    7   13   24      0.72      0.00
    9   13   24     -0.35      0.00
   11   13   24      0.39      0.00
    0   14   24      5.17      0.00
    2   14   24      0.74      0.00
    4   14   24     -1.69      0.00
    6   14   24      2.19      0.00
    8   14   24      1.13      0.00
   10   14   24     -1.77      0.00
   12   14   24     -6.06      0.00
   14   14   24     -5.12      0.00
    1   15   24     -5.78      0.00
    3   15   24     -0.05      0.00
    5   15   24     -2.20      0.00
    7   15   24     -6.88      0.00
    9   15   24      0.90      0.00
   11   15   24    -12.39      0.00
   13   15   24    -12.24      0.00
    0   16   24      6.93      0.00
    2   16   24     -2.05      0.00
    4   16   24      0.57      0.00
    6   16   24     -0.87      0.00
    8   16   24     -4.89      0.00
   10   16   24     -6.33      0.00
   12   16   24     -5.85      0.00
   14   16   24      0.48      0.00
   16   16   24     -1.62      0.00
    1   17   24      7.52      0.00
    3   17   24     -5.65      0.00
    5   17   24      1.13      0.00
    7   17   24     -2.92      0.00
    9   17   24     -3.69      0.00
   11   17   24      0.28      0.00
   13   17   24     -9.42      0.00
   15   17   24      8.48      0.00
    0   18   24     -4.37      0.00
    2   18   24      3.06      0.00
    4   18   24      1.06      0.00
    6   18   24     -1.97      0.00
    8   18   24      4.68      0.00
   10   18   24      3.13      0.00
   12   18   24     -3.99      0.00
   14   18   24      0.57      0.00
   16   18   24     -3.80      0.00
    1   19   24      1.38      0.00
    3   19   24      3.40      0.00
    5   19   24     -1.60      0.00
    7   19   24    -11.15      0.00
    9   19   24      5.90      0.00
   11   19   24     -0.90      0.00
   13   19   24     -1.67      0.00
   15   19   24     -8.98      0.00
    0   20   24    -13.22      0.00
    2   20   24     -7.25      0.00
    4   20   24    -12.79      0.00
    6   20   24     -6.72      0.00
    8   20   24     -4.04      0.00
   10   20   24      4.64      0.00
   12   20   24      6.34      0.00
   14   20   24     11.96      0.00
    1   21   24     -3.67      0.00
    3   21   24     -0.59      0.00
    5   21   24      6.30      0.00
    7   21   24      4.11      0.00
    9   21   24     -1.13      0.00
   11   21   24      2.69      0.00
    0   22   24    -10.76      0.00
    2   22   24     -2.87      0.00
    4   22   24      3.80      0.00
    6   22   24      3.31      0.00
    8   22   24      6.00      0.00
   10   22   24      1.33      0.00
    1   23   24     -1.91      0.00
    3   23   24      4.55      0.00
    5   23   24     -4.54      0.00
    7   23   24      3.12      0.00
    0   24   24     -0.93      0.00
    2   24   24      1.61      0.00
    4   24   24     -9.18      0.00
    0    1   25     18.57      0.00
    1    2   25      1.73      0.00
    0    3   25     -2.46      0.00
    2    3   25     -9.93      0.00
    1    4   25     10.84      0.00
    3    4   25      2.00      0.00
    0    5   25     13.12      0.00
    2    5   25     -5.24      0.00
    4    5   25     -1.44      0.00
    1    6   25     -7.46      0.00
    3    6   25     -2.74      0.00
    5    6   25      2.48      0.00
    0    7   25      1.59      0.00
    2    7   25     -0.50      0.00
    4    7   25      0.62      0.00
    6    7   25     -5.47      0.00
    1    8   25     -5.09      0.00
    3    8   25     -5.00      0.00
    5    8   25      3.66      0.00
    7    8   25      4.17      0.00
    0    9   25      7.79      0.00
    2    9   25     -2.54      0.00
    4    9   25     -7.01      0.00
    6    9   25     -3.16      0.00
    8    9   25     -5.09      0.00
    1   10   25     -1.52      0.00
    3   10   25      1.48      0.00
    5   10   25      1.40      0.00
    7   10   25      3.67      0.00
    9   10   25     -1.54      0.00
    0   11   25     -9.69      0.00
    2   11   25      1.10      0.00
    4   11   25     -1.13      0.00
    6   11   25     -8.08      0.00
    8   11   25      2.84      0.00
   10   11   25     -0.12      0.00
    1   12   25     -5.70      0.00
    3   12   25     -3.49      0.00
    5   12   25      1.35      0.00
    7   12   25     -7.40      0.00
    9   12   25     -0.63      0.00
   11   12   25      1.08      0.00
    0   13   25      9.39      0.00
    2   13   25     -0.03      0.00
    4   13   25     -1.92      0.00
    6   13   25      4.89      0.00
    8   13   25     -1.25      0.00
   10   13   25      0.21      0.00
   12   13   25     -0.58      0.00
    1   14   25      7.00      0.00
    3   14   25      3.55      0.00
    5   14   25      3.59      0.00
    7   14   25      1.49      0.00
    9   14   25      0.67      0.00
   11   14   25      3.51      0.00
   13   14   25     -3.14      0.00
    0   15   25     -5.60      0.00
    2   15   25     -4.24      0.00
    4   15   25      1.17      0.00
    6   15   25      0.61      0.00
    8   15   25     -0.79      0.00
   10   15   25      5.88      0.00
   12   15   25      1.85      0.00
   14   15   25    -12.46      0.00
    1   16   25     -1.73      0.00
    3   16   25     -2.83      0.00
    5   16   25      4.61      0.00
    7   16   25      1.32      0.00
    9   16   25     -2.10      0.00
   11   16   25     -4.05      0.00
   13   16   25      4.07      0.00
   15   16   25     -3.66      0.00
    0   17   25      4.06      0.00
    2   17   25     -0.38      0.00
    4   17   25     -8.15      0.00
    6   17   25      0.40      0.00
    8   17   25      5.29      0.00
   10   17   25     -0.98      0.00
   12   17   25     -2.52      0.00
   14   17   25      3.93      0.00
   16   17   25     -3.58      0.00
    1   18   25      0.58      0.00
    3   18   25      4.00      0.00
    5   18   25     -2.35      0.00
    7   18   25      2.08      0.00
    9   18   25      8.39      0.00
   11   18   25      2.96      0.00
   13   18   25      4.93      0.00
   15   18   25      3.07      0.00
    0   19   25     -6.30      0.00
    2   19   25     -2.12      0.00
    4   19   25     -4.51      0.00
    6   19   25     -9.23      0.00
    8   19   25     -3.98      0.00
   10   19   25     -6.59      0.00
   12   19   25      3.41      0.00
   14   19   25      2.71      0.00
    1   20   25      9.22      0.00
    3   20   25     -6.31      0.00
    5   20   25      8.64      0.00
    7   20   25     -8.26      0.00
    9   20   25     -4.43      0.00
   11   20   25    -11.27      0.00
   13   20   25    -10.21      0.00
    0   21   25      5.19      0.00
    2   21   25      4.21      0.00
    4   21   25      3.40      0.00
    6   21   25     16.95      0.00
    8   21   25      1.94      0.00
   10   21   25     -2.14      0.00
   12   21   25     -4.17      0.00
    1   22   25      9.98      0.00
    3   22   25      3.81      0.00
    5   22   25     -3.60      0.00
    7   22   25     -2.01      0.00
    9   22   25      0.13      0.00
    0   23   25      6.02      0.00
    2   23   25      6.72      0.00
    4   23   25      5.99      0.00
    6   23   25     16.54      0.00
    8   23   25      1.00      0.00
    1   24   25     -1.93      0.00
    3   24   25      1.45      0.00
    5   24   25      1.23      0.00
    1    1   26     25.25      0.00
    0    2   26    -13.27      0.00
    1    3   26      1.47      0.00
    3    3   26     -7.16      0.00
    0    4   26     -4.24      0.00
    2    4   26     -8.85      0.00
    1    5   26      4.73      0.00
    3    5   26      6.56      0.00
    5    5   26     -2.25      0.00
    0    6   26     -9.44      0.00
    2    6   26      6.75      0.00
    4    6   26     -4.31      0.00
    1    7   26     -7.08      0.00
    3    7   26     -4.88      0.00
    5    7   26     -7.54      0.00
    7    7   26     -0.61      0.00
    0    8   26     -3.15      0.00
    2    8   26     -2.78      0.00
    4    8   26      5.90      0.00
    6    8   26      0.34      0.00
    1    9   26      5.11      0.00
    3    9   26      1.59      0.00
    5    9   26      7.38      0.00
    7    9   26      2.78      0.00
    9    9   26     -1.08      0.00
    0   10   26     -7.84      0.00
    2   10   26      3.35      0.00
    4   10   26     -7.84      0.00
    6   10   26     -0.22      0.00
    8   10   26      2.13      0.00
    1   11   26     -4.03      0.00
    3   11   26     -4.44      0.00
    5   11   26      2.74      0.00
    7   11   26      0.25      0.00
    9   11   26     -3.65      0.00
   11   11   26     -7.28      0.00
    0   12   26     -5.73      0.00
    2   12   26     -7.39      0.00
    4   12   26     -9.06      0.00
    6   12   26     -0.68      0.00
    8   12   26     -3.12      0.00
   10   12   26      7.30      0.00
    1   13   26     -0.91      0.00
    3   13   26      2.51      0.00
    5   13   26     -2.54      0.00
    7   13   26      6.71      0.00
    9   13   26     -2.22      0.00
   11   13   26     -3.68      0.00
   13   13   26     -2.67      0.00
    0   14   26     -1.10      0.00
    2   14   26    -12.55      0.00
    4   14   26     -2.76      0.00
    6   14   26     -3.32      0.00
    8   14   26     -2.69      0.00
   10   14   26      5.66      0.00
   12   14   26      2.54      0.00
    1   15   26     -3.36      0.00
    3   15   26      3.22      0.00
    5   15   26      7.24      0.00
    7   15   26     -5.52      0.00
    9   15   26     -1.47      0.00
   11   15   26      4.79      0.00
   13   15   26      1.87      0.00
   15   15   26    -16.71      0.00
    0   16   26     -3.89      0.00
    2   16   26      0.36      0.00
    4   16   26      0.22      0.00
    6   16   26     -2.18      0.00
    8   16   26      0.13      0.00
   10   16   26     -6.79      0.00
   12   16   26      6.93      0.00
   14   16   26      9.98      0.00
    1   17   26     -0.54      0.00
    3   17   26     -1.58      0.00
    5   17   26      3.15      0.00
    7   17   26     -0.33      0.00
    9   17   26     -0.39      0.00
   11   17   26     -2.93      0.00
   13   17   26     -5.63      0.00
   15   17   26      5.35      0.00
   17   17   26     -1.81      0.00
    0   18   26     -2.38      0.00
    2   18   26      2.74      0.00
    4   18   26     -5.68      0.00
    6   18   26     -1.19      0.00
    8   18   26      1.27      0.00
   10   18   26     -2.05      0.00
   12   18   26     -4.86      0.00
   14   18   26     -6.58      0.00
   16   18   26      5.96      0.00
    1   19   26      3.24      0.00
    3   19   26      7.41      0.00
    5   19   26     -2.97      0.00
    7   19   26     -0.90      0.00
    9   19   26      4.65      0.00
   11   19   26     -3.50      0.00
   13   19   26      5.72      0.00
   15   19   26      6.41      0.00
    0   20   26     -2.73      0.00
    2   20   26     -1.46      0.00
    4   20   26      0.15      0.00
    6   20   26      4.37      0.00
    8   20   26     -4.59      0.00
   10   20   26      3.21      0.00
   12   20   26      7.42      0.00
   14   20   26     17.18      0.00
    1   21   26      7.77      0.00
    3   21   26      4.65      0.00
    5   21   26      2.12      0.00
    7   21   26     -2.70      0.00
    9   21   26     -3.26      0.00
   11   21   26      2.87      0.00
    0   22   26     -2.56      0.00
    2   22   26      5.82      0.00
    4   22   26      5.82      0.00
    6   22   26     -1.50      0.00
    8   22   26      5.43      0.00
   10   22   26      2.25      0.00
    1   23   26      1.54      0.00
    3   23   26     -7.89      0.00
    5   23   26     -6.34      0.00
    7   23   26     -0.72      0.00
    0   24   26      7.58      0.00
    2   24   26      3.26      0.00
    4   24   26      7.53      0.00
    0    1   27     22.35      0.00
    1    2   27     -2.89      0.00
    0    3   27     -0.71      0.00
    2    3   27     -4.42      0.00
    1    4   27    -10.44      0.00
    3    4   27     -2.38      0.00
    0    5   27      1.07      0.00
    2    5   27      2.36      0.00
    4    5   27      2.73      0.00
    1    6   27      5.13      0.00
    3    6   27      2.60      0.00
    5    6   27     -0.31      0.00
    0    7   27    -21.15      0.00
    2    7   27      3.24      0.00
    4    7   27      2.52      0.00
    6    7   27     -2.51      0.00
    1    8   27      5.06      0.00
    3    8   27     11.50      0.00
    5    8   27     -2.85      0.00
    7    8   27     -0.91      0.00
    0    9   27      4.19      0.00
    2    9   27     -5.88      0.00
    4    9   27     -0.17      0.00
    6    9   27     13.75      0.00
    8    9   27     -5.26      0.00
    1   10   27      0.23      0.00
    3   10   27     -2.58      0.00
    5   10   27     -4.75      0.00
    7   10   27      0.65      0.00
    9   10   27      2.44      0.00
    0   11   27    -11.82      0.00
    2   11   27     -2.37      0.00
    4   11   27     -4.33      0.00
    6   11   27     -3.98      0.00
    8   11   27     -5.72      0.00
   10   11   27     -6.26      0.00
    1   12   27     -8.49      0.00
    3   12   27      3.19      0.00
    5   12   27     -1.75      0.00
    7   12   27      0.21      0.00
    9   12   27     -4.18      0.00
   11   12   27     -5.02      0.00
    0   13   27     -3.45      0.00
    2   13   27     -2.55      0.00
    4   13   27      0.02      0.00
    6   13   27      2.75      0.00
    8   13   27      6.79      0.00
   10   13   27     -4.62      0.00
   12   13   27      2.94      0.00
    1   14   27      4.70      0.00
    3   14   27     -7.36      0.00
    5   14   27     -1.10      0.00
    7   14   27      5.41      0.00
    9   14   27      1.96      0.00
   11   14   27      5.92      0.00
   13   14   27     -2.88      0.00
    0   15   27      3.84      0.00
    2   15   27     -5.16      0.00
    4   15   27      3.20      0.00
    6   15   27     -7.92      0.00
    8   15   27     -0.03      0.00
   10   15   27      4.41      0.00
   12   15   27      6.56      0.00
   14   15   27      4.34      0.00
    1   16   27    -11.15      0.00
    3   16   27      4.36      0.00
    5   16   27      2.77      0.00
    7   16   27      1.75      0.00
    9   16   27      4.12      0.00
   11   16   27     -1.01      0.00
   13   16   27     10.74      0.00
   15   16   27     -7.87      0.00
    0   17   27      0.24      0.00
    2   17   27     -4.40      0.00
    4   17   27     -8.78      0.00
    6   17   27      2.03      0.00
    8   17   27      5.67      0.00
   10   17   27     -5.95      0.00
   12   17   27      5.49      0.00
   14   17   27      1.18      0.00
   16   17   27      4.88      0.00
    1   18   27     -7.56      0.00
    3   18   27     -2.08      0.00
    5   18   27     -2.76      0.00
    7   18   27      5.31      0.00
    9   18   27     -3.43      0.00
   11   18   27     -2.54      0.00
   13   18   27    -22.24      0.00
   15   18   27     -3.43      0.00
    0   19   27      4.41      0.00
    2   19   27      1.12      0.00
    4   19   27      6.77      0.00
    6   19   27     -3.43      0.00
    8   19   27      2.74      0.00
   10   19   27     -1.61      0.00
   12   19   27     -5.00      0.00
   14   19   27      4.11      0.00
    1   20   27     11.54      0.00
    3   20   27      0.14      0.00
    5   20   27     11.37      0.00
    7   20   27      2.16      0.00
    9   20   27      5.22      0.00
   11   20   27     11.05      0.00
   13   20   27     -0.31      0.00
    0   21   27      4.05      0.00
    2   21   27     -4.97      0.00
    4   21   27    -10.33      0.00
    6   21   27     -5.44      0.00
    8   21   27     -8.62      0.00
   10   21   27     -6.19      0.00
   12   21   27      0.53      0.00
    1   22   27      1.30      0.00
    3   22   27      3.06      0.00
    5   22   27     -1.20      0.00
    7   22   27     -0.06      0.00
    9   22   27     -2.06      0.00
    0   23   27     -6.19      0.00
    2   23   27      5.79      0.00
    4   23   27      8.31      0.00
    6   23   27      2.32      0.00
    1   24   27     10.25      0.00
    3   24   27      3.45      0.00
    0    0   28      1.68      0.00
    0    2   28     10.38      0.00
    2    2   28     -6.66      0.00
    1    3   28     -4.71      0.00
    0    4   28      7.29      0.00
    2    4   28     -7.65      0.00
    4    4   28     -3.99      0.00
    1    5   28     -7.63      0.00
    3    5   28     -0.50      0.00
    0    6   28      8.06      0.00
    2    6   28     -0.70      0.00
    4    6   28      0.63      0.00
    6    6   28      2.87      0.00
    1    7   28      3.42      0.00
    3    7   28     -0.41      0.00
    5    7   28     -6.86      0.00
    0    8   28     -0.76      0.00
    2    8   28     -3.17      0.00
    4    8   28      3.65      0.00
    6    8   28     -1.76      0.00
    8    8   28    -11.07      0.00
    1    9   28      3.31      0.00
    3    9   28      5.61      0.00
    5    9   28      0.96      0.00
    7    9   28     -5.20      0.00
    0   10   28      3.07      0.00
    2   10   28      8.78      0.00
    4   10   28      0.53      0.00
    6   10   28      2.56      0.00
    8   10   28      0.62      0.00
   10   10   28     -3.88      0.00
    1   11   28     -0.36      0.00
    3   11   28      1.18      0.00
    5   11   28     -8.46      0.00
    7   11   28     -5.28      0.00
    9   11   28      2.27      0.00
    0   12   28      8.81      0.00
    2   12   28     -1.84      0.00
    4   12   28      1.44      0.00
    6   12   28      1.25      0.00
    8   12   28     -2.22      0.00
   10   12   28     -0.14      0.00
   12   12   28    -18.99      0.00
    1   13   28      5.61      0.00
    3   13   28      0.25      0.00
    5   13   28      4.04      0.00
    7   13   28      0.14      0.00
    9   13   28     -0.93      0.00
   11   13   28     -0.02      0.00
    0   14   28     -0.61      0.00
    2   14   28      3.15      0.00
    4   14   28      7.99      0.00
    6   14   28     -1.75      0.00
    8   14   28      8.79      0.00
   10   14   28      2.60      0.00
   12   14   28      2.22      0.00
   14   14   28      2.45      0.00
    1   15   28     -3.53      0.00
    3   15   28     -1.07      0.00
    5   15   28     -6.86      0.00
    7   15   28     -0.50      0.00
    9   15   28     11.42      0.00
   11   15   28      8.17      0.00
   13   15   28     19.75      0.00
    0   16   28      4.22      0.00
    2   16   28      8.50      0.00
    4   16   28      3.18      0.00
    6   16   28      1.28      0.00
    8   16   28     -3.20      0.00
   10   16   28     -1.32      0.00
   12   16   28     -0.98      0.00
   14   16   28      1.59      0.00
   16   16   28     -0.70      0.00
    1   17   28      0.03      0.00
    3   17   28     -0.98      0.00
    5   17   28      6.59      0.00
    7   17   28      1.91      0.00
    9   17   28     -9.71      0.00
   11   17   28     -1.50      0.00
   13   17   28      3.39      0.00
   15   17   28     16.65      0.00
    0   18   28     -1.50      0.00
    2   18   28     -3.14      0.00
    4   18   28     -4.24      0.00
    6   18   28      3.30      0.00
    8   18   28      0.76      0.00
   10   18   28     -2.48      0.00
   12   18   28     -8.66      0.00
   14   18   28      1.70      0.00
   16   18   28    -12.56      0.00
    1   19   28      2.66      0.00
    3   19   28      3.75      0.00
    5   19   28      0.54      0.00
    7   19   28     -7.20      0.00
    9   19   28      3.78      0.00
   11   19   28      0.11      0.00
   13   19   28      9.81      0.00
    0   20   28     -5.25      0.00
    2   20   28      2.08      0.00
    4   20   28     -3.33      0.00
    6   20   28     -0.30      0.00
    8   20   28      2.87      0.00
   10   20   28      0.30      0.00
   12   20   28      5.20      0.00
    1   21   28     -3.77      0.00
    3   21   28     -8.01      0.00
    5   21   28     -4.96      0.00
    7   21   28     -3.52      0.00
    9   21   28      0.19      0.00
   11   21   28     -7.36      0.00
    0   22   28     -7.96      0.00
    2   22   28      0.84      0.00
    4   22   28    -13.27      0.00
    6   22   28     -3.22      0.00
    8   22   28      3.13      0.00
   10   22   28      7.24      0.00
    1   23   28     -2.60      0.00
    3   23   28      4.16      0.00
    5   23   28     -5.06      0.00
    7   23   28     -3.33      0.00
    0   24   28      0.76      0.00
    2   24   28      2.07      0.00
    0    1   29     -1.75      0.00
    1    2   29     -7.02      0.00
    0    3   29     -9.22      0.00
    2    3   29    -15.24      0.00
    1    4   29      8.34      0.00
    3    4   29      2.03      0.00
    0    5   29      4.07      0.00
    2    5   29      0.38      0.00
    4    5   29     -4.85      0.00
    1    6   29     -3.80      0.00
    3    6   29     -9.27      0.00
    5    6   29     -1.78      0.00
    0    7   29      3.48      0.00
    2    7   29     -7.03      0.00
    4    7   29     -1.72      0.00
    6    7   29     -5.96      0.00
    1    8   29      5.56      0.00
    3    8   29      6.79      0.00
    5    8   29      2.48      0.00
    7    8   29     -1.69      0.00
    0    9   29      4.43      0.00
    2    9   29      1.41      0.00
    4    9   29      2.89      0.00
    6    9   29     10.05      0.00
    8    9   29      2.42      0.00
    1   10   29      5.71      0.00
    3   10   29     -2.80      0.00
    5   10   29     -1.00      0.00
    7   10   29     -5.60      0.00
    9   10   29     -9.80      0.00
    0   11   29      4.46      0.00
    2   11   29     -0.02      0.00
    4   11   29      6.02      0.00
    6   11   29      1.43      0.00
    8   11   29     -1.69      0.00
   10   11   29      0.18      0.00
    1   12   29      5.37      0.00
    3   12   29     -1.05      0.00
    5   12   29      0.18      0.00
    7   12   29     -1.87      0.00
    9   12   29     -1.65      0.00
   11   12   29      0.67      0.00
    0   13   29     11.29      0.00
    2   13   29      3.41      0.00
    4   13   29      5.17      0.00
    6   13   29      4.02      0.00
    8   13   29      7.01      0.00
   10   13   29      4.44      0.00
   12   13   29     -0.83      0.00
    1   14   29     -1.71      0.00
    3   14   29      3.11      0.00
    5   14   29     -4.46      0.00
    7   14   29     -1.13      0.00
    9   14   29      2.73      0.00
   11   14   29     -1.85      0.00
   13   14   29      1.80      0.00
    0   15   29      4.90      0.00
    2   15   29     -5.56      0.00
    4   15   29     -2.49      0.00
    6   15   29      1.86      0.00
    8   15   29     -5.60      0.00
   10   15   29      0.49      0.00
   12   15   29     -2.79      0.00
   14   15   29     -2.95      0.00
    1   16   29      2.74      0.00
    3   16   29     -4.10      0.00
    5   16   29      4.28      0.00
    7   16   29      1.28      0.00
    9   16   29     10.62      0.00
   11   16   29      2.60      0.00
   13   16   29      0.07      0.00
   15   16   29     -9.08      0.00
    0   17   29     10.25      0.00
    2   17   29      7.73      0.00
    4   17   29      4.18      0.00
    6   17   29     -3.12      0.00
    8   17   29      4.75      0.00
   10   17   29     -2.03      0.00
   12   17   29    -11.42      0.00
   14   17   29    -17.44      0.00
   16   17   29     -5.56      0.00
    1   18   29      3.07      0.00
    3   18   29      2.05      0.00
    5   18   29     -3.14      0.00
    7   18   29     -4.06      0.00
    9   18   29      7.05      0.00
   11   18   29      2.88      0.00
   13   18   29      4.78      0.00
   15   18   29      2.88      0.00
    0   19   29     -0.04      0.00
    2   19   29      6.85      0.00
    4   19   29      0.16      0.00
    6   19   29      2.38      0.00
    8   19   29      6.49      0.00
   10   19   29     -3.48      0.00
   12   19   29      0.03      0.00
   14   19   29    -12.18      0.00
    1   20   29     -0.22      0.00
    3   20   29     -1.27      0.00
    5   20   29      2.31      0.00
    7   20   29     -0.63      0.00
    9   20   29     -1.48      0.00
   11   20   29      1.39      0.00
   13   20   29      1.96      0.00
    0   21   29      1.89      0.00
    2   21   29      1.64      0.00
    4   21   29      0.13      0.00
    6   21   29      2.70      0.00
    8   21   29     -3.02      0.00
   10   21   29      5.35      0.00
    1   22   29      2.41      0.00
    3   22   29     -2.33      0.00
    5   22   29     -1.08      0.00
    7   22   29     -6.03      0.00
    9   22   29      0.19      0.00
    0   23   29      2.23      0.00
    2   23   29     -1.56      0.00
    4   23   29     -0.18      0.00
    6   23   29     -0.69      0.00
    1   24   29      1.28      0.00
    1    1   30     10.42      0.00
    0    2   30    -11.25      0.00
    1    3   30      0.52      0.00
    3    3   30      3.10      0.00
    0    4   30      4.08      0.00
    2    4   30     -5.42      0.00
    1    5   30     -0.15      0.00
    3    5   30      5.68      0.00
    5    5   30     10.64      0.00
    0    6   30      5.31      0.00
    2    6   30      8.29      0.00
    4    6   30      3.03      0.00
    1    7   30     -0.86      0.00
    3    7   30     -5.74      0.00
    5    7   30      2.26      0.00
    7    7   30      4.41      0.00
    0    8   30      1.55      0.00
    2    8   30      2.18      0.00
    4    8   30      2.53      0.00
    6    8   30     -0.77      0.00
    1    9   30      4.00      0.00
    3    9   30     10.44      0.00
    5    9   30     -1.65      0.00
    7    9   30      6.74      0.00
    9    9   30      3.21      0.00
    0   10   30     -3.70      0.00
    2   10   30      1.17      0.00
    4   10   30     -0.81      0.00
    6   10   30      1.50      0.00
    8   10   30      3.42      0.00
    1   11   30     -7.00      0.00
    3   11   30    -10.14      0.00
    5   11   30     -1.24      0.00
    7   11   30     -6.20      0.00
    9   11   30      2.57      0.00
   11   11   30     -3.92      0.00
    0   12   30      9.06      0.00
    2   12   30     -5.41      0.00
    4   12   30      4.96      0.00
    6   12   30      5.42      0.00
    8   12   30     -8.95      0.00
   10   12   30      1.99      0.00
    1   13   30      2.47      0.00
    3   13   30      9.69      0.00
    5   13   30      0.54      0.00
    7   13   30      1.66      0.00
    9   13   30     -3.20      0.00
   11   13   30     -2.54      0.00
   13   13   30      1.46      0.00
    0   14   30     -2.18      0.00
    2   14   30      6.45      0.00
    4   14   30     -4.31      0.00
    6   14   30      1.14      0.00
    8   14   30     -4.46      0.00
   10   14   30     -0.02      0.00
   12   14   30      7.93      0.00
    1   15   30     -0.57      0.00
    3   15   30     -7.83      0.00
    5   15   30     -3.74      0.00
    7   15   30     -0.06      0.00
    9   15   30     -1.89      0.00
   11   15   30      7.83      0.00
   13   15   30     -4.22      0.00
   15   15   30     -1.20      0.00
    0   16   30      3.93      0.00
    2   16   30     -1.55      0.00
    4   16   30      9.98      0.00
    6   16   30     -5.86      0.00
    8   16   30      2.68      0.00
   10   16   30     -2.74      0.00
   12   16   30     -0.17      0.00
   14   16   30      2.15      0.00
    1   17   30     -1.86      0.00
    3   17   30     10.69      0.00
    5   17   30      5.68      0.00
    7   17   30      7.32      0.00
    9   17   30     -7.22      0.00
   11   17   30     -0.58      0.00
   13   17   30      8.64      0.00
   15   17   30     -8.36      0.00
    0   18   30      4.33      0.00
    2   18   30      7.93      0.00
    4   18   30     -5.56      0.00
    6   18   30      1.76      0.00
    8   18   30      3.60      0.00
   10   18   30     -5.32      0.00
   12   18   30     -9.28      0.00
   14   18   30     -6.01      0.00
    1   19   30     -9.32      0.00
    3   19   30      2.99      0.00
    5   19   30      5.97      0.00
    7   19   30      1.00      0.00
    9   19   30      3.22      0.00
   11   19   30      2.42      0.00
   13   19   30    -10.39      0.00
    0   20   30     -9.45      0.00
    2   20   30     -4.32      0.00
    4   20   30      3.84      0.00
    6   20   30     -1.66      0.00
    8   20   30      2.72      0.00
   10   20   30      2.75      0.00
   12   20   30     -9.34      0.00
    1   21   30     -1.03      0.00
    3   21   30      0.29      0.00
    5   21   30     -1.48      0.00
    7   21   30     -3.07      0.00
    9   21   30     -2.42      0.00
   11   21   30      9.58      0.00
    0   22   30      1.57      0.00
    2   22   30      0.41      0.00
    4   22   30      6.18      0.00
    6   22   30      3.71      0.00
    8   22   30     -5.36      0.00
    1   23   30      2.12      0.00
    3   23   30      3.49      0.00
    5   23   30      8.61      0.00
    0    1   31     -2.95      0.00
    1    2   31      9.54      0.00
    0    3   31      1.55      0.00
    2    3   31     -6.06      0.00
    1    4   31     -4.39      0.00
    3    4   31      7.21      0.00
    0    5   31      7.35      0.00
    2    5   31      7.31      0.00
    4    5   31     -1.64      0.00
    1    6   31     -3.22      0.00
    3    6   31     -5.52      0.00
    5    6   31     -0.86      0.00
    0    7   31      0.89      0.00
    2    7   31     -2.68      0.00
    4    7   31     -4.31      0.00
    6    7   31      0.23      0.00
    1    8   31     -1.57      0.00
    3    8   31     -4.09      0.00
    5    8   31      1.43      0.00
    7    8   31      3.99      0.00
    0    9   31     -0.59      0.00
    2    9   31      3.19      0.00
    4    9   31      4.67      0.00
    6    9   31     -1.86      0.00
    8    9   31     -7.03      0.00
    1   10   31     -6.74      0.00
    3   10   31     -7.71      0.00
    5   10   31     -2.65      0.00
    7   10   31      0.14      0.00
    9   10   31      1.94      0.00
    0   11   31     -5.59      0.00
    2   11   31      1.83      0.00
    4   11   31      1.81      0.00
    6   11   31      8.98      0.00
    8   11   31      3.01      0.00
   10   11   31      1.82      0.00
    1   12   31     -2.49      0.00
    3   12   31      0.38      0.00
    5   12   31     -6.12      0.00
    7   12   31      2.25      0.00
    9   12   31      7.35      0.00
   11   12   31      3.27      0.00
    0   13   31     -3.58      0.00
    2   13   31     -1.05      0.00
    4   13   31     -2.31      0.00
    6   13   31      1.13      0.00
    8   13   31     -3.05      0.00
   10   13   31     -5.28      0.00
   12   13   31     -1.05      0.00
    1   14   31      3.82      0.00
    3   14   31      1.83      0.00
    5   14   31      3.30      0.00
    7   14   31     -0.45      0.00
    9   14   31    -16.01      0.00
   11   14   31     -0.77      0.00
   13   14   31      3.37      0.00
    0   15   31      0.96      0.00
    2   15   31     -5.85      0.00
    4   15   31     12.55      0.00
    6   15   31    -10.79      0.00
    8   15   31      3.79      0.00
   10   15   31     -1.09      0.00
   12   15   31      1.08      0.00
   14   15   31    -18.58      0.00
    1   16   31      2.27      0.00
    3   16   31      4.24      0.00
    5   16   31     -4.25      0.00
    7   16   31     -1.11      0.00
    9   16   31      3.15      0.00
   11   16   31      1.85      0.00
   13   16   31      2.31      0.00
   15   16   31      4.36      0.00
    0   17   31      6.38      0.00
    2   17   31      4.06      0.00
    4   17   31     -4.30      0.00
    6   17   31     -1.74      0.00
    8   17   31      5.80      0.00
   10   17   31      5.61      0.00
   12   17   31      9.24      0.00
   14   17   31     14.31      0.00
   16   17   31    -12.55      0.00
    1   18   31      0.61      0.00
    3   18   31      7.25      0.00
    5   18   31     -2.28      0.00
    7   18   31     -5.31      0.00
    9   18   31    -10.85      0.00
   11   18   31      1.64      0.00
   13   18   31      0.59      0.00
   15   18   31     -5.77      0.00
    0   19   31      1.27      0.00
    2   19   31     -4.54      0.00
    4   19   31      3.97      0.00
    6   19   31      9.57      0.00
    8   19   31      5.08      0.00
   10   19   31      3.70      0.00
   12   19   31      4.80      0.00
   14   19   31     -4.03      0.00
    1   20   31     -0.57      0.00
    3   20   31      1.28      0.00
    5   20   31      5.51      0.00
    7   20   31     -2.49      0.00
    9   20   31     -2.23      0.00
   11   20   31      2.49      0.00
    0   21   31      2.36      0.00
    2   21   31     -3.09      0.00
    4   21   31     -0.65      0.00
    6   21   31      6.45      0.00
    8   21   31     -1.97      0.00
   10   21   31      4.20      0.00
    1   22   31     -0.71      0.00
    3   22   31     -9.24      0.00
    5   22   31      3.35      0.00
    7   22   31      3.59      0.00
    0   23   31      0.12      0.00
    2   23   31      5.18      0.00
    4   23   31     -3.82      0.00
    0    0   32     10.34      0.00
    0    2   32      9.76      0.00
    2    2   32      5.13      0.00
    1    3   32     -6.24      0.00
    0    4   32     12.39      0.00
    2    4   32     -0.72      0.00
    4    4   32      8.32      0.00
    1    5   32      3.15      0.00
    3    5   32      1.58      0.00
    0    6   32     -1.55      0.00
    2    6   32      1.20      0.00
    4    6   32     -0.59      0.00
    6    6   32     -3.02      0.00
    1    7   32     -2.58      0.00
    3    7   32      1.26      0.00
    5    7   32     -7.22      0.00
    0    8   32      0.34      0.00
    2    8   32      1.14      0.00
    4    8   32      0.76      0.00
    6    8   32      3.73      0.00
    8    8   32      4.19      0.00
    1    9   32      1.05      0.00
    3    9   32     -2.48      0.00
    5    9   32     -1.87      0.00
    7    9   32     -6.58      0.00
    0   10   32     -3.54      0.00
    2   10   32      4.74      0.00
    4   10   32      7.56      0.00
    6   10   32      1.72      0.00
    8   10   32      4.51      0.00
   10   10   32     -2.85      0.00
    1   11   32     -0.49      0.00
    3   11   32      1.87      0.00
    5   11   32     -0.94      0.00
    7   11   32      4.81      0.00
    9   11   32     -3.86      0.00
    0   12   32     -1.48      0.00
    2   12   32      2.75      0.00
    4   12   32      4.90      0.00
    6   12   32     12.38      0.00
    8   12   32     -3.53      0.00
   10   12   32     -0.14      0.00
   12   12   32     -3.80      0.00
    1   13   32      3.23      0.00
    3   13   32     -4.81      0.00
    5   13   32     -3.47      0.00
    7   13   32     -2.48      0.00
    9   13   32      4.15      0.00
   11   13   32     -4.82      0.00
    0   14   32     -2.68      0.00
    2   14   32     -0.53      0.00
    4   14   32      4.76      0.00
    6   14   32      2.47      0.00
    8   14   32      2.25      0.00
   10   14   32     -0.98      0.00
   12   14   32     -5.56      0.00
   14   14   32      1.64      0.00
    1   15   32     -6.95      0.00
    3   15   32      9.16      0.00
    5   15   32     -7.14      0.00
    7   15   32      2.55      0.00
    9   15   32     -6.65      0.00
   11   15   32     -4.16      0.00
   13   15   32     -4.13      0.00
    0   16   32      0.66      0.00
    2   16   32      0.73      0.00
    4   16   32      5.00      0.00
    6   16   32      2.64      0.00
    8   16   32     -7.67      0.00
   10   16   32     -8.55      0.00
   12   16   32     -4.92      0.00
   14   16   32     -1.46      0.00
   16   16   32    -11.78      0.00
    1   17   32      2.09      0.00
    3   17   32      1.36      0.00
    5   17   32     11.98      0.00
    7   17   32      6.28      0.00
    9   17   32     10.71      0.00
   11   17   32    -10.71      0.00
   13   17   32     -5.80      0.00
   15   17   32     11.82      0.00
    0   18   32      5.11      0.00
    2   18   32     -5.05      0.00
    4   18   32     -2.96      0.00
    6   18   32      4.55      0.00
    8   18   32      0.44      0.00
   10   18   32     -5.88      0.00
   12   18   32      3.16      0.00
   14   18   32     13.20      0.00
    1   19   32     -0.38      0.00
    3   19   32     -6.46      0.00
    5   19   32      3.66      0.00
    7   19   32      0.28      0.00
    9   19   32      1.19      0.00
   11   19   32     -1.04      0.00
   13   19   32     10.25      0.00
    0   20   32     -7.94      0.00
    2   20   32      7.47      0.00
    4   20   32      2.58      0.00
    6   20   32     -0.03      0.00
    8   20   32     -1.95      0.00
   10   20   32      4.31      0.00
   12   20   32      2.43      0.00
    1   21   32     -0.24      0.00
    3   21   32     -2.94      0.00
    5   21   32     -0.17      0.00
    7   21   32     -2.78      0.00
    9   21   32     -1.59      0.00
    0   22   32     -5.11      0.00
    2   22   32      4.69      0.00
    4   22   32      0.62      0.00
    6   22   32      0.29      0.00
    8   22   32      3.11      0.00
    1   23   32     -3.53      0.00
    3   23   32      4.53      0.00
    5   23   32     -1.30      0.00
    0    1   33      2.86      0.00
    1    2   33      0.32      0.00
    0    3   33      0.27      0.00
    2    3   33     -3.28      0.00
    1    4   33      2.19      0.00
    3    4   33      4.01      0.00
    0    5   33      3.44      0.00
    2    5   33     -0.30      0.00
    4    5   33      2.42      0.00
    1    6   33      3.29      0.00
    3    6   33     -1.15      0.00
    5    6   33     -2.30      0.00
    0    7   33      0.15      0.00
    2    7   33      1.05      0.00
    4    7   33     -2.38      0.00
    6    7   33      4.39      0.00
    1    8   33      0.13      0.00
    3    8   33      1.95      0.00
    5    8   33     12.82      0.00
    7    8   33     -2.22      0.00
    0    9   33      9.16      0.00
    2    9   33     -0.18      0.00
    4    9   33      0.93      0.00
    6    9   33     -1.48      0.00
    8    9   33      3.94      0.00
    1   10   33     -1.35      0.00
    3   10   33     -0.55      0.00
    5   10   33     -5.25      0.00
    7   10   33      7.01      0.00
    9   10   33     -4.45      0.00
    0   11   33      7.50      0.00
    2   11   33      0.15      0.00
    4   11   33     -4.08      0.00
    6   11   33     -0.45      0.00
    8   11   33     -0.11      0.00
   10   11   33      5.74      0.00
    1   12   33     -6.61      0.00
    3   12   33     -3.49      0.00
    5   12   33     -0.16      0.00
    7   12   33     -5.50      0.00
    9   12   33      4.24      0.00
   11   12   33      1.41      0.00
    0   13   33     -0.30      0.00
    2   13   33     -3.36      0.00
    4   13   33      6.07      0.00
    6   13   33     -1.79      0.00
    8   13   33     -2.91      0.00
   10   13   33      1.14      0.00
   12   13   33     11.24      0.00
    1   14   33     -4.66      0.00
    3   14   33     -0.20      0.00
    5   14   33     -5.66      0.00
    7   14   33      2.75      0.00
    9   14   33      3.71      0.00
   11   14   33      1.56      0.00
   13   14   33     -8.26      0.00
    0   15   33      5.28      0.00
    2   15   33      0.35      0.00
    4   15   33      2.23      0.00
    6   15   33     -4.09      0.00
    8   15   33    -17.45      0.00
   10   15   33     -2.41      0.00
   12   15   33      4.72      0.00
   14   15   33     -7.61      0.00
    1   16   33      1.71      0.00
    3   16   33     -6.78      0.00
    5   16   33      4.46      0.00
    7   16   33     -6.85      0.00
    9   16   33      7.23      0.00
   11   16   33     -3.30      0.00
   13   16   33      7.62      0.00
   15   16   33     -8.85      0.00
    0   17   33     10.61      0.00
    2   17   33     -1.08      0.00
    4   17   33      1.92      0.00
    6   17   33     -5.87      0.00
    8   17   33     -0.52      0.00
   10   17   33      0.86      0.00
   12   17   33      0.52      0.00
   14   17   33      6.61      0.00
   16   17   33     -3.14      0.00
    1   18   33      1.55      0.00
    3   18   33     -1.39      0.00
    5   18   33     -0.80      0.00
    7   18   33     -0.98      0.00
    9   18   33     -9.52      0.00
   11   18   33      6.38      0.00
   13   18   33     10.34      0.00
   15   18   33     13.14      0.00
    0   19   33     -5.54      0.00
    2   19   33      7.38      0.00
    4   19   33    -10.78      0.00
    6   19   33     -6.29      0.00
    8   19   33     -1.13      0.00
   10   19   33     -6.47      0.00
   12   19   33     -6.94      0.00
    1   20   33     -1.79      0.00
    3   20   33     -7.13      0.00
    5   20   33     -5.05      0.00
    7   20   33     -2.37      0.00
    9   20   33      1.96      0.00
   11   20   33     -2.91      0.00
    0   21   33      4.98      0.00
    2   21   33     -7.38      0.00
    4   21   33     -1.65      0.00
    6   21   33     -1.45      0.00
    8   21   33      5.58      0.00
   10   21   33      2.29      0.00
    1   22   33      1.82      0.00
    3   22   33     -0.46      0.00
    5   22   33     -3.21      0.00
    7   22   33      2.20      0.00
    0   23   33      6.25      0.00
    2   23   33      0.86      0.00
    4   23   33      1.49      0.00
    1    1   34     -2.26      0.00
    0    2   34      9.86      0.00
    1    3   34      7.66      0.00
    3    3   34      4.81      0.00
    0    4   34     -2.72      0.00
    2    4   34      3.86      0.00
    1    5   34     -2.03      0.00
    3    5   34     -5.85      0.00
    5    5   34     -4.49      0.00
    0    6   34      2.34      0.00
    2    6   34     -0.59      0.00
    4    6   34      4.27      0.00
    1    7   34     -1.11      0.00
    3    7   34      5.50      0.00
    5    7   34      0.47      0.00
    7    7   34      3.40      0.00
    0    8   34     -4.77      0.00
    2    8   34      3.57      0.00
    4    8   34      4.38      0.00
    6    8   34     -1.87      0.00
    1    9   34     -3.94      0.00
    3    9   34     -8.26      0.00
    5    9   34      3.47      0.00
    7    9   34      1.23      0.00
    9    9   34     -6.33      0.00
    0   10   34     16.54      0.00
    2   10   34     -1.64      0.00
    4   10   34     -2.78      0.00
    6   10   34     -1.89      0.00
    8   10   34      0.95      0.00
    1   11   34     -5.65      0.00
    3   11   34     -0.90      0.00
    5   11   34     -1.03      0.00
    7   11   34     -4.23      0.00
    9   11   34     -4.68      0.00
   11   11   34     -1.50      0.00
    0   12   34     -3.68      0.00
    2   12   34      0.65      0.00
    4   12   34      3.23      0.00
    6   12   34      6.15      0.00
    8   12   34      1.61      0.00
   10   12   34     11.14      0.00
    1   13   34      7.32      0.00
    3   13   34     -2.85      0.00
    5   13   34     -4.31      0.00
    7   13   34     -4.89      0.00
    9   13   34      6.90      0.00
   11   13   34      5.20      0.00
   13   13   34      6.85      0.00
    0   14   34      8.11      0.00
    2   14   34     -2.49      0.00
    4   14   34    -14.16      0.00
    6   14   34      5.01      0.00
    8   14   34      2.09      0.00
   10   14   34     -2.36      0.00
   12   14   34     -7.57      0.00
    1   15   34      2.03      0.00
    3   15   34     -3.61      0.00
    5   15   34     -2.91      0.00
    7   15   34      6.89      0.00
    9   15   34     -1.94      0.00
   11   15   34     -2.54      0.00
   13   15   34     -7.83      0.00
   15   15   34    -13.12      0.00
    0   16   34     -7.08      0.00
    2   16   34     -7.05      0.00
    4   16   34     -0.65      0.00
    6   16   34     -9.77      0.00
    8   16   34      7.87      0.00
   10   16   34      6.07      0.00
   12   16   34     -1.19      0.00
   14   16   34    -17.24      0.00
    1   17   34     -1.30      0.00
    3   17   34      1.70      0.00
    5   17   34     -0.72      0.00
    7   17   34      6.24      0.00
    9   17   34     -5.13      0.00
   11   17   34      3.36      0.00
   13   17   34    -11.45      0.00
   15   17   34     13.56      0.00
    0   18   34     -8.85      0.00
    2   18   34     -4.60      0.00
    4   18   34     -1.74      0.00
    6   18   34     -0.17      0.00
    8   18   34      8.51      0.00
   10   18   34      0.80      0.00
   12   18   34     -7.09      0.00
   14   18   34     18.24      0.00
    1   19   34    -10.01      0.00
    3   19   34      4.90      0.00
    5   19   34    -14.86      0.00
    7   19   34     -6.58      0.00
    9   19   34     -6.35      0.00
   11   19   34     -0.60      0.00
   13   19   34      2.08      0.00
    0   20   34      5.73      0.00
    2   20   34      0.44      0.00
    4   20   34     -0.25      0.00
    6   20   34     -3.79      0.00
    8   20   34     -3.08      0.00
   10   20   34      3.33      0.00
    1   21   34     -4.16      0.00
    3   21   34     -2.54      0.00
    5   21   34      1.73      0.00
    7   21   34     -1.64      0.00
    9   21   34      0.96      0.00
    0   22   34     -2.15      0.00
    2   22   34      6.07      0.00
    4   22   34      4.44      0.00
    6   22   34      0.31      0.00
    1   23   34      4.89      0.00
    3   23   34     -1.50      0.00
    0    1   35     -1.28      0.00
    1    2   35     -1.29      0.00
    0    3   35      1.55      0.00
    2    3   35     -4.44      0.00
    1    4   35      0.66      0.00
    3    4   35      3.46      0.00
    0    5   35     -0.28      0.00
    2    5   35      2.96      0.00
    4    5   35     -1.33      0.00
    1    6   35     -2.35      0.00
    3    6   35     -6.67      0.00
    5    6   35     -1.49      0.00
    0    7   35     -5.79      0.00
    2    7   35     -0.36      0.00
    4    7   35      0.97      0.00
    6    7   35     -2.46      0.00
    1    8   35     -3.20      0.00
    3    8   35      0.93      0.00
    5    8   35     -0.40      0.00
    7    8   35     -5.58      0.00
    0    9   35      1.09      0.00
    2    9   35      1.82      0.00
    4    9   35      1.17      0.00
    6    9   35      0.97      0.00
    8    9   35     -2.98      0.00
    1   10   35      1.30      0.00
    3   10   35     -3.47      0.00
    5   10   35     -5.41      0.00
    7   10   35    -13.51      0.00
    9   10   35     -2.04      0.00
    0   11   35      1.91      0.00
    2   11   35      2.34      0.00
    4   11   35      2.33      0.00
    6   11   35      1.37      0.00
    8   11   35      4.68      0.00
   10   11   35      5.23      0.00
    1   12   35      5.72      0.00
    3   12   35      4.26      0.00
    5   12   35      0.73      0.00
    7   12   35      1.72      0.00
    9   12   35     -2.27      0.00
   11   12   35      0.96      0.00
    0   13   35     -4.42      0.00
    2   13   35     -3.99      0.00
    4   13   35     -2.57      0.00
    6   13   35     -1.04      0.00
    8   13   35      0.32      0.00
   10   13   35      0.01      0.00
   12   13   35      6.31      0.00
    1   14   35     -2.40      0.00
    3   14   35     -4.57      0.00
    5   14   35     -0.47      0.00
    7   14   35     -1.50      0.00
    9   14   35     -2.21      0.00
   11   14   35      2.57      0.00
   13   14   35      0.46      0.00
    0   15   35     -6.21      0.00
    2   15   35     -3.50      0.00
    4   15   35      4.31      0.00
    6   15   35      1.05      0.00
    8   15   35      0.39      0.00
   10   15   35     -5.85      0.00
   12   15   35      2.22      0.00
   14   15   35     -5.97      0.00
    1   16   35     -2.11      0.00
    3   16   35      0.40      0.00
    5   16   35     -3.70      0.00
    7   16   35      3.76      0.00
    9   16   35     -1.45      0.00
   11   16   35     -0.50      0.00
   13   16   35      6.49      0.00
   15   16   35     -6.66      0.00
    0   17   35      9.29      0.00
    2   17   35     -2.90      0.00
    4   17   35      1.84      0.00
    6   17   35     -9.84      0.00
    8   17   35     -1.82      0.00
   10   17   35      3.79      0.00
   12   17   35      5.40      0.00
   14   17   35      7.71      0.00
    1   18   35     -6.31      0.00
    3   18   35      3.77      0.00
    5   18   35     -4.80      0.00
    7   18   35      1.29      0.00
    9   18   35      1.15      0.00
   11   18   35     -8.68      0.00
   13   18   35    -24.91      0.00
    0   19   35      2.82      0.00
    2   19   35     -3.13      0.00
    4   19   35    -11.69      0.00
    6   19   35      1.92      0.00
    8   19   35      2.22      0.00
   10   19   35     -4.96      0.00
   12   19   35      6.34      0.00
    1   20   35      0.73      0.00
    3   20   35     -6.75      0.00
    5   20   35      4.13      0.00
    7   20   35      0.25      0.00
    9   20   35     -0.53      0.00
   11   20   35      2.30      0.00
    0   21   35      0.80      0.00
    2   21   35      0.77      0.00
    4   21   35      2.52      0.00
    6   21   35      3.53      0.00
    8   21   35     -1.69      0.00
    1   22   35      0.23      0.00
    3   22   35      0.46      0.00
    5   22   35      1.75      0.00
    7   22   35      6.08      0.00
    0   23   35     -3.94      0.00
    2   23   35      2.61      0.00
    0    0   36    -25.73      0.00
    0    2   36     10.44      0.00
    2    2   36     -8.66      0.00
    1    3   36     -5.72      0.00
    0    4   36      5.61      0.00
    2    4   36      5.55      0.00
    4    4   36     -2.61      0.00
    1    5   36      3.05      0.00
    3    5   36      1.44      0.00
    0    6   36      2.98      0.00
    2    6   36     -3.99      0.00
    4    6   36     -0.97      0.00
    6    6   36     -4.64      0.00
    1    7   36     -0.27      0.00
    3    7   36      2.04      0.00
    5    7   36      1.85      0.00
    0    8   36     -2.03      0.00
    2    8   36      1.95      0.00
    4    8   36      1.34      0.00
    6    8   36      0.20      0.00
    8    8   36      0.81      0.00
    1    9   36      1.88      0.00
    3    9   36      3.06      0.00
    5    9   36      3.01      0.00
    7    9   36     -0.37      0.00
    0   10   36      7.31      0.00
    2   10   36      0.28      0.00
    4   10   36     -2.69      0.00
    6   10   36      2.11      0.00
    8   10   36      2.87      0.00
   10   10   36      2.26      0.00
    1   11   36      6.46      0.00
    3   11   36     -1.39      0.00
    5   11   36      3.45      0.00
    7   11   36     11.19      0.00
    9   11   36     -1.74      0.00
    0   12   36      7.71      0.00
    2   12   36      4.74      0.00
    4   12   36      0.74      0.00
    6   12   36      1.92      0.00
    8   12   36      3.30      0.00
   10   12   36     12.03      0.00
   12   12   36      1.92      0.00
    1   13   36     -1.83      0.00
    3   13   36     -2.77      0.00
    5   13   36     -3.97      0.00
    7   13   36      5.31      0.00
    9   13   36      0.22      0.00
   11   13   36     -9.81      0.00
    0   14   36      3.29      0.00
    2   14   36     -0.70      0.00
    4   14   36     -4.06      0.00
    6   14   36     -1.70      0.00
    8   14   36      8.30      0.00
   10   14   36      1.37      0.00
   12   14   36     -5.84      0.00
   14   14   36     -1.49      0.00
    1   15   36     -8.45      0.00
    3   15   36     -4.95      0.00
    5   15   36     -1.12      0.00
    7   15   36      2.34      0.00
    9   15   36     12.18      0.00
   11   15   36     -3.98      0.00
   13   15   36      4.92      0.00
    0   16   36      2.39      0.00
    2   16   36     -0.77      0.00
    4   16   36      3.39      0.00
    6   16   36    -10.03      0.00
    8   16   36     -4.03      0.00
   10   16   36      2.19      0.00
   12   16   36      8.97      0.00
   14   16   36      4.96      0.00
   16   16   36      1.92      0.00
    1   17   36     -5.96      0.00
    3   17   36      4.95      0.00
    5   17   36     -0.88      0.00
    7   17   36      5.10      0.00
    9   17   36      4.54      0.00
   11   17   36      3.15      0.00
   13   17   36      3.07      0.00
   15   17   36     22.17      0.00
    0   18   36      5.98      0.00
    2   18   36      5.05      0.00
    4   18   36      2.18      0.00
    6   18   36     -0.27      0.00
    8   18   36      5.71      0.00
   10   18   36      7.60      0.00
   12   18   36      0.75      0.00
   14   18   36      8.03      0.00
    1   19   36      2.85      0.00
    3   19   36     -3.80      0.00
    5   19   36      4.84      0.00
    7   19   36     -3.59      0.00
    9   19   36     -1.62      0.00
   11   19   36     -4.09      0.00
    0   20   36      2.83      0.00
    2   20   36      7.56      0.00
    4   20   36      1.23      0.00
    6   20   36      3.86      0.00
    8   20   36      0.04      0.00
   10   20   36     -1.56      0.00
    1   21   36      1.16      0.00
    3   21   36     -5.63      0.00
    5   21   36      1.30      0.00
    7   21   36     -1.03      0.00
    9   21   36     -3.19      0.00
    0   22   36      1.23      0.00
    2   22   36     -2.89      0.00
    4   22   36      2.29      0.00
    6   22   36      2.46      0.00
    0    1   37     -1.87      0.00
    1    2   37      1.24      0.00
    0    3   37      5.14      0.00
    2    3   37      0.11      0.00
    1    4   37     -4.40      0.00
    3    4   37      1.37      0.00
    0    5   37      0.78      0.00
    2    5   37      0.63      0.00
    4    5   37      1.96      0.00
    1    6   37      1.54      0.00
    3    6   37     -3.98      0.00
    5    6   37     -0.67      0.00
    0    7   37      0.06      0.00
    2    7   37     -1.33      0.00
    4    7   37     -7.30      0.00
    6    7   37      2.35      0.00
    1    8   37      1.71      0.00
    3    8   37     -2.30      0.00
    5    8   37     -5.42      0.00
    7    8   37      0.42      0.00
    0    9   37      7.11      0.00
    2    9   37      0.11      0.00
    4    9   37     11.74      0.00
    6    9   37     -2.39      0.00
    8    9   37     -4.15      0.00
    1   10   37     -5.78      0.00
    3   10   37     -6.04      0.00
    5   10   37     -2.51      0.00
    7   10   37      0.61      0.00
    9   10   37     -6.55      0.00
    0   11   37     -1.23      0.00
    2   11   37     -3.88      0.00
    4   11   37     -6.80      0.00
    6   11   37      3.25      0.00
    8   11   37     -0.17      0.00
   10   11   37     -1.26      0.00
    1   12   37     -1.81      0.00
    3   12   37      7.51      0.00
    5   12   37     -3.07      0.00
    7   12   37    -11.87      0.00
    9   12   37     -7.06      0.00
   11   12   37     -3.18      0.00
    0   13   37     -9.57      0.00
    2   13   37     -6.55      0.00
    4   13   37      4.07      0.00
    6   13   37      0.21      0.00
    8   13   37      5.01      0.00
   10   13   37     -0.97      0.00
   12   13   37     -2.02      0.00
    1   14   37      1.24      0.00
    3   14   37      2.79      0.00
    5   14   37      0.62      0.00
    7   14   37     -6.81      0.00
    9   14   37     -5.09      0.00
   11   14   37     -6.73      0.00
   13   14   37      1.06      0.00
    0   15   37      1.96      0.00
    2   15   37      2.43      0.00
    4   15   37      8.17      0.00
    6   15   37      6.13      0.00
    8   15   37     -6.76      0.00
   10   15   37     -3.49      0.00
   12   15   37      0.11      0.00
   14   15   37    -13.51      0.00
    1   16   37     -0.24      0.00
    3   16   37      2.07      0.00
    5   16   37      5.99      0.00
    7   16   37     -3.48      0.00
    9   16   37     -1.19      0.00
   11   16   37     -1.24      0.00
   13   16   37      3.75      0.00
   15   16   37     -3.79      0.00
    0   17   37     -3.50      0.00
    2   17   37     -5.31      0.00
    4   17   37     -8.43      0.00
    6   17   37     -6.68      0.00
    8   17   37      4.27      0.00
   10   17   37      3.40      0.00
   12   17   37      9.24      0.00
   14   17   37     10.82      0.00
    1   18   37      6.40      0.00
    3   18   37     -4.87      0.00
    5   18   37     -0.23      0.00
    7   18   37      5.29      0.00
    9   18   37     -5.60      0.00
   11   18   37      0.62      0.00
   13   18   37      7.75      0.00
    0   19   37     -0.51      0.00
    2   19   37      2.69      0.00
    4   19   37      7.16      0.00
    6   19   37      9.98      0.00
    8   19   37      5.07      0.00
   10   19   37      2.39      0.00
   12   19   37     -3.56      0.00
    1   20   37     -2.41      0.00
    3   20   37      0.52      0.00
    5   20   37     -5.45      0.00
    7   20   37      1.08      0.00
    9   20   37     -4.69      0.00
    0   21   37     -0.40      0.00
    2   21   37     -0.39      0.00
    4   21   37     -0.24      0.00
    6   21   37     -4.00      0.00
    8   21   37     -3.30      0.00
    1   22   37      3.08      0.00
    3   22   37      2.92      0.00
    5   22   37      8.27      0.00
    1    1   38     -3.53      0.00
    0    2   38      0.33      0.00
    1    3   38      4.25      0.00
    3    3   38      8.75      0.00
    0    4   38     -6.89      0.00
    2    4   38     -6.48      0.00
    1    5   38     -1.94      0.00
    3    5   38     -4.43      0.00
    5    5   38      1.45      0.00
    0    6   38      1.41      0.00
    2    6   38     -3.05      0.00
    4    6   38     -1.55      0.00
    1    7   38     -0.21      0.00
    3    7   38     -0.13      0.00
    5    7   38      3.31      0.00
    7    7   38      6.57      0.00
    0    8   38     -0.37      0.00
    2    8   38     -1.55      0.00
    4    8   38     -1.76      0.00
    6    8   38     -1.53      0.00
    1    9   38     -2.28      0.00
    3    9   38     -2.77      0.00
    5    9   38     -2.51      0.00
    7    9   38     -6.08      0.00
    9    9   38     -5.00      0.00
    0   10   38     -5.87      0.00
    2   10   38     -4.97      0.00
    4   10   38     -1.77      0.00
    6   10   38      4.54      0.00
    8   10   38      3.46      0.00
    1   11   38     -0.44      0.00
    3   11   38      6.49      0.00
    5   11   38      2.13      0.00
    7   11   38     -5.21      0.00
    9   11   38     -0.70      0.00
   11   11   38     -2.57      0.00
    0   12   38      2.56      0.00
    2   12   38     -6.17      0.00
    4   12   38      2.06      0.00
    6   12   38      0.87      0.00
    8   12   38     -3.95      0.00
   10   12   38      0.38      0.00
    1   13   38      4.19      0.00
    3   13   38      1.72      0.00
    5   13   38     -4.72      0.00
    7   13   38     -2.42      0.00
    9   13   38     -3.44      0.00
   11   13   38     -2.38      0.00
   13   13   38     -7.94      0.00
    0   14   38     -4.71      0.00
    2   14   38      3.41      0.00
    4   14   38     -9.58      0.00
    6   14   38     -1.71      0.00
    8   14   38      0.56      0.00
   10   14   38      4.87      0.00
   12   14   38     -1.99      0.00
    1   15   38      3.55      0.00
    3   15   38      6.77      0.00
    5   15   38     -1.27      0.00
    7   15   38     -0.04      0.00
    9   15   38     -4.72      0.00
   11   15   38      1.75      0.00
   13   15   38     -4.17      0.00
   15   15   38    -18.85      0.00
    0   16   38      1.07      0.00
    2   16   38      7.18      0.00
    4   16   38      1.68      0.00
    6   16   38      0.83      0.00
    8   16   38      1.89      0.00
   10   16   38     -2.79      0.00
   12   16   38     -3.51      0.00
   14   16   38      9.79      0.00
    1   17   38      0.48      0.00
    3   17   38     -1.63      0.00
    5   17   38     -6.05      0.00
    7   17   38      2.56      0.00
    9   17   38    -11.01      0.00
   11   17   38     -3.94      0.00
   13   17   38    -18.85      0.00
    0   18   38     -3.53      0.00
    2   18   38     -2.39      0.00
    4   18   38      7.55      0.00
    6   18   38     -8.54      0.00
    8   18   38      0.98      0.00
   10   18   38     -5.50      0.00
   12   18   38     -4.90      0.00
    1   19   38      6.40      0.00
    3   19   38      9.02      0.00
    5   19   38     11.59      0.00
    7   19   38      6.17      0.00
    9   19   38     -2.22      0.00
   11   19   38      1.50      0.00
    0   20   38      0.92      0.00
    2   20   38     -2.73      0.00
    4   20   38     -0.30      0.00
    6   20   38      3.69      0.00
    8   20   38     -3.90      0.00
   10   20   38      2.94      0.00
    1   21   38      6.03      0.00
    3   21   38      6.07      0.00
    5   21   38      0.82      0.00
    7   21   38     -5.81      0.00
    0   22   38      1.56      0.00
    2   22   38      5.94      0.00
    4   22   38      2.55      0.00
    0    1   39     -2.86      0.00
    1    2   39     -5.01      0.00
    0    3   39     -3.72      0.00
    2    3   39      1.44      0.00
    1    4   39     -1.31      0.00
    3    4   39     -1.31      0.00
    0    5   39      0.03      0.00
    2    5   39     -3.04      0.00
    4    5   39     -0.48      0.00
    1    6   39      3.52      0.00
    3    6   39      3.23      0.00
    5    6   39      3.33      0.00
    0    7   39     -8.11      0.00
    2    7   39      5.65      0.00
    4    7   39     -2.54      0.00
    6    7   39      0.47      0.00
    1    8   39     -2.33      0.00
    3    8   39     -2.40      0.00
    5    8   39      3.95      0.00
    7    8   39     -1.52      0.00
    0    9   39      4.93      0.00
    2    9   39     -7.16      0.00
    4    9   39      1.60      0.00
    6    9   39    -11.89      0.00
    8    9   39     -2.58      0.00
    1   10   39    -14.04      0.00
    3   10   39      2.54      0.00
    5   10   39      4.49      0.00
    7   10   39     -2.48      0.00
    9   10   39      2.14      0.00
    0   11   39     -5.73      0.00
    2   11   39      1.67      0.00
    4   11   39      0.13      0.00
    6   11   39      3.33      0.00
    8   11   39      0.86      0.00
   10   11   39      3.92      0.00
    1   12   39      1.76      0.00
    3   12   39      9.71      0.00
    5   12   39      4.77      0.00
    7   12   39     -0.95      0.00
    9   12   39     -3.74      0.00
   11   12   39     -4.86      0.00
    0   13   39     -1.35      0.00
    2   13   39      1.69      0.00
    4   13   39     -6.37      0.00
    6   13   39     -6.64      0.00
    8   13   39     -5.05      0.00
   10   13   39      6.56      0.00
   12   13   39      7.09      0.00
    1   14   39      2.41      0.00
    3   14   39      4.16      0.00
    5   14   39      3.95      0.00
    7   14   39      8.87      0.00
    9   14   39     -6.36      0.00
   11   14   39      3.23      0.00
   13   14   39      4.72      0.00
    0   15   39     -2.64      0.00
    2   15   39     -3.85      0.00
    4   15   39     -2.87      0.00
    6   15   39      7.55      0.00
    8   15   39     -1.56      0.00
   10   15   39      1.79      0.00
   12   15   39     16.61      0.00
   14   15   39     -3.94      0.00
    1   16   39      2.42      0.00
    3   16   39     -0.29      0.00
    5   16   39     12.49      0.00
    7   16   39     -8.59      0.00
    9   16   39     -1.80      0.00
   11   16   39     -1.73      0.00
   13   16   39      8.09      0.00
   15   16   39    -10.55      0.00
    0   17   39     10.04      0.00
    2   17   39     -5.38      0.00
    4   17   39      2.67      0.00
    6   17   39     -9.54      0.00
    8   17   39      8.47      0.00
   10   17   39     -5.79      0.00
   12   17   39     -0.41      0.00
   14   17   39      1.11      0.00
    1   18   39      1.60      0.00
    3   18   39     -2.73      0.00
    5   18   39     -1.43      0.00
    7   18   39      2.12      0.00
    9   18   39      2.98      0.00
   11   18   39     -1.72      0.00
   13   18   39      3.41      0.00
    0   19   39     -7.03      0.00
    2   19   39     -4.34      0.00
    4   19   39     -2.85      0.00
    6   19   39      4.14      0.00
    8   19   39     -0.65      0.00
   10   19   39      3.83      0.00
    1   20   39     -3.27      0.00
    3   20   39      5.97      0.00
    5   20   39     -3.32      0.00
    7   20   39      4.16      0.00
    9   20   39      5.60      0.00
    0   21   39     -7.21      0.00
    2   21   39      6.49      0.00
    4   21   39      0.78      0.00
    6   21   39     -2.50      0.00
    1   22   39     -0.69      0.00
    3   22   39     -3.88      0.00
    0    0   40     -8.83      0.00
    0    2   40     -5.67      0.00
    2    2   40    -10.28      0.00
    1    3   40      3.73      0.00
    0    4   40      4.94      0.00
    2    4   40      1.46      0.00
    4    4   40      4.02      0.00
    1    5   40      2.90      0.00
    3    5   40     -1.42      0.00
    0    6   40      4.97      0.00
    2    6   40     -1.31      0.00
    4    6   40     -1.22      0.00
    6    6   40      1.60      0.00
    1    7   40      2.49      0.00
    3    7   40      6.93      0.00
    5    7   40      2.34      0.00
    0    8   40      0.46      0.00
    2    8   40      1.61      0.00
    4    8   40     -5.30      0.00
    6    8   40     -8.02      0.00
    8    8   40     -5.83      0.00
    1    9   40     -4.28      0.00
    3    9   40     -3.81      0.00
    5    9   40     -1.15      0.00
    7    9   40     -0.46      0.00
    0   10   40      2.52      0.00
    2   10   40     -5.47      0.00
    4   10   40      1.38      0.00
    6   10   40     -1.01      0.00
    8   10   40      5.85      0.00
   10   10   40     -1.17      0.00
    1   11   40      5.87      0.00
    3   11   40     -4.56      0.00
    5   11   40     -2.49      0.00
    7   11   40      8.08      0.00
    9   11   40      4.15      0.00
    0   12   40     -6.73      0.00
    2   12   40     -8.69      0.00
    4   12   40     -3.49      0.00
    6   12   40      6.17      0.00
    8   12   40     -6.13      0.00
   10   12   40      3.27      0.00
   12   12   40     -0.27      0.00
    1   13   40     -0.40      0.00
    3   13   40      4.60      0.00
    5   13   40      2.06      0.00
    7   13   40     -0.04      0.00
    9   13   40     -0.04      0.00
   11   13   40      3.37      0.00
    0   14   40     -1.54      0.00
    2   14   40     -0.19      0.00
    4   14   40      1.65      0.00
    6   14   40      1.90      0.00
    8   14   40     -3.11      0.00
   10   14   40      4.37      0.00
   12   14   40      1.06      0.00
   14   14   40     12.07      0.00
    1   15   40      2.84      0.00
    3   15   40      8.88      0.00
    5   15   40      6.50      0.00
    7   15   40      4.84      0.00
    9   15   40      6.48      0.00
   11   15   40     -6.22      0.00
   13   15   40      8.58      0.00
    0   16   40      1.43      0.00
    2   16   40    -14.85      0.00
    4   16   40      3.66      0.00
    6   16   40     -0.68      0.00
    8   16   40      4.06      0.00
   10   16   40      1.94      0.00
   12   16   40     -1.58      0.00
   14   16   40     -5.89      0.00
    1   17   40      4.67      0.00
    3   17   40      1.76      0.00
    5   17   40      4.58      0.00
    7   17   40    -11.64      0.00
    9   17   40     -3.92      0.00
   11   17   40     -2.54      0.00
   13   17   40    -13.46      0.00
    0   18   40     -6.54      0.00
    2   18   40     -2.80      0.00
    4   18   40      4.88      0.00
    6   18   40     -2.96      0.00
    8   18   40      7.32      0.00
   10   18   40      8.44      0.00
   12   18   40      0.23      0.00
    1   19   40      3.90      0.00
    3   19   40     -6.75      0.00
    5   19   40    -10.92      0.00
    7   19   40     -2.59      0.00
    9   19   40     -8.78      0.00
   11   19   40      3.30      0.00
    0   20   40     -6.73      0.00
    2   20   40     -7.17      0.00
    4   20   40     -4.03      0.00
    6   20   40     -0.88      0.00
    8   20   40     -4.06      0.00
    1   21   40      7.36      0.00
    3   21   40     -2.52      0.00
    5   21   40     -0.46      0.00
    7   21   40     -2.08      0.00
    0   22   40      3.23      0.00
    2   22   40      1.15      0.00
    0    1   41      4.95      0.00
    1    2   41      1.17      0.00
    0    3   41      3.13      0.00
    2    3   41      0.74      0.00
    1    4   41     -1.60      0.00
    3    4   41     -0.23      0.00
    0    5   41      3.07      0.00
    2    5   41     -0.69      0.00
    4    5   41     -0.91      0.00
    1    6   41     -6.16      0.00
    3    6   41      0.39      0.00
    5    6   41      1.84      0.00
    0    7   41     -2.14      0.00
    2    7   41     -0.60      0.00
    4    7   41     -5.33      0.00
    6    7   41      1.36      0.00
    1    8   41     -2.21      0.00
    3    8   41     -0.09      0.00
    5    8   41     -1.77      0.00
    7    8   41     -1.43      0.00
    0    9   41      3.30      0.00
    2    9   41     -5.79      0.00
    4    9   41     -3.26      0.00
    6    9   41      1.56      0.00
    8    9   41     -1.28      0.00
    1   10   41      4.92      0.00
    3   10   41      2.02      0.00
    5   10   41      4.15      0.00
    7   10   41     -1.07      0.00
    9   10   41      0.49      0.00
    0   11   41      1.75      0.00
    2   11   41      1.19      0.00
    4   11   41     -4.98      0.00
    6   11   41      1.21      0.00
    8   11   41      0.06      0.00
   10   11   41      3.28      0.00
    1   12   41      5.24      0.00
    3   12   41     -0.67      0.00
    5   12   41     -9.09      0.00
    7   12   41      8.25      0.00
    9   12   41     -1.47      0.00
   11   12   41     -6.96      0.00
    0   13   41     10.63      0.00
    2   13   41      0.21      0.00
    4   13   41      8.69      0.00
    6   13   41      2.94      0.00
    8   13   41     -5.03      0.00
   10   13   41      5.51      0.00
   12   13   41      0.28      0.00
    1   14   41     -4.96      0.00
    3   14   41      1.33      0.00
    5   14   41      3.41      0.00
    7   14   41     -4.19      0.00
    9   14   41      3.42      0.00
   11   14   41      3.45      0.00
   13   14   41      5.71      0.00
    0   15   41      1.49      0.00
    2   15   41     -3.51      0.00
    4   15   41     -5.45      0.00
    6   15   41     -4.71      0.00
    8   15   41      0.01      0.00
   10   15   41     -8.08      0.00
   12   15   41      2.33      0.00
   14   15   41     -7.39      0.00
    1   16   41     -4.33      0.00
    3   16   41     -2.37      0.00
    5   16   41     -2.26      0.00
    7   16   41      3.35      0.00
    9   16   41      3.50      0.00
   11   16   41     -2.33      0.00
   13   16   41      9.23      0.00
   15   16   41    -13.87      0.00
    0   17   41     -6.87      0.00
    2   17   41      2.03      0.00
    4   17   41     -6.58      0.00
    6   17   41     -8.44      0.00
    8   17   41      6.13      0.00
   10   17   41      6.06      0.00
   12   17   41     -6.24      0.00
    1   18   41     -5.46      0.00
    3   18   41      0.25      0.00
    5   18   41     -5.93      0.00
    7   18   41      4.25      0.00
    9   18   41     -5.25      0.00
   11   18   41      1.13      0.00
    0   19   41     -5.33      0.00
    2   19   41      1.94      0.00
    4   19   41      1.57      0.00
    6   19   41     -4.71      0.00
    8   19   41     -3.08      0.00
   10   19   41    -13.80      0.00
    1   20   41      6.62      0.00
    3   20   41      1.40      0.00
    5   20   41      2.98      0.00
    7   20   41      2.60      0.00
    9   20   41      1.47      0.00
    0   21   41      2.39      0.00
    2   21   41     -2.82      0.00
    4   21   41     -0.31      0.00
    6   21   41     -0.09      0.00
    1    1   42     -7.78      0.00
    0    2   42      8.30      0.00
    1    3   42     -1.82      0.00
    3    3   42    -10.41      0.00
    0    4   42     -6.57      0.00
    2    4   42     -4.30      0.00
    1    5   42     -1.41      0.00
    3    5   42     -1.67      0.00
    5    5   42      2.18      0.00
    0    6   42      0.41      0.00
    2    6   42      2.38      0.00
    4    6   42     -2.31      0.00
    1    7   42      5.35      0.00
    3    7   42      4.56      0.00
    5    7   42      1.44      0.00
    7    7   42     -0.45      0.00
    0    8   42     -4.12      0.00
    2    8   42      5.45      0.00
    4    8   42      6.61      0.00
    6    8   42      9.55      0.00
    1    9   42     -4.33      0.00
    3    9   42      1.09      0.00
    5    9   42      8.99      0.00
    7    9   42      5.24      0.00
    9    9   42     -0.04      0.00
    0   10   42     17.96      0.00
    2   10   42      3.61      0.00
    4   10   42      5.15      0.00
    6   10   42     -7.42      0.00
    8   10   42      3.33      0.00
    1   11   42      0.40      0.00
    3   11   42     -5.07      0.00
    5   11   42      3.76      0.00
    7   11   42     -2.90      0.00
    9   11   42     -6.52      0.00
   11   11   42     -1.80      0.00
    0   12   42      6.23      0.00
    2   12   42      0.02      0.00
    4   12   42     -9.69      0.00
    6   12   42      5.70      0.00
    8   12   42      0.90      0.00
   10   12   42     10.23      0.00
    1   13   42     -3.78      0.00
    3   13   42     13.03      0.00
    5   13   42      6.96      0.00
    7   13   42      0.62      0.00
    9   13   42     -0.07      0.00
   11   13   42     -2.09      0.00
   13   13   42    -16.01      0.00
    0   14   42      4.05      0.00
    2   14   42     11.65      0.00
    4   14   42      3.62      0.00
    6   14   42     -2.43      0.00
    8   14   42      2.90      0.00
   10   14   42     -6.59      0.00
   12   14   42     -4.82      0.00
    1   15   42      0.86      0.00
    3   15   42      0.95      0.00
    5   15   42     -4.70      0.00
    7   15   42     15.42      0.00
    9   15   42      7.57      0.00
   11   15   42     -4.15      0.00
   13   15   42     -5.56      0.00
   15   15   42     15.39      0.00
    0   16   42      0.59      0.00
    2   16   42     -0.16      0.00
    4   16   42    -13.36      0.00
    6   16   42      2.25      0.00
    8   16   42     -3.67      0.00
   10   16   42      3.65      0.00
   12   16   42      1.09      0.00
   14   16   42     14.26      0.00
    1   17   42      1.14      0.00
    3   17   42      8.28      0.00
    5   17   42      2.12      0.00
    7   17   42     -2.49      0.00
    9   17   42     -4.52      0.00
   11   17   42      8.77      0.00
   13   17   42      1.26      0.00
    0   18   42     -4.26      0.00
    2   18   42      2.57      0.00
    4   18   42      3.95      0.00
    6   18   42     -3.81      0.00
    8   18   42      7.35      0.00
   10   18   42      0.27      0.00
   12   18   42      5.45      0.00
    1   19   42      1.57      0.00
    3   19   42     -1.13      0.00
    5   19   42      2.99      0.00
    7   19   42      1.90      0.00
    9   19   42      0.19      0.00
    0   20   42      4.77      0.00
    2   20   42     -0.34      0.00
    4   20   42      5.49      0.00
    6   20   42      4.25      0.00
    8   20   42     -4.11      0.00
    1   21   42     11.14      0.00
    3   21   42     -1.45      0.00
    5   21   42      1.95      0.00
    0    1   43     -1.16      0.00
    1    2   43     14.06      0.00
    0    3   43      2.38      0.00
    2    3   43     -0.06      0.00
    1    4   43      0.34      0.00
    3    4   43      3.63      0.00
    0    5   43    -15.91      0.00
    2    5   43     -2.99      0.00
    4    5   43     -3.23      0.00
    1    6   43      6.60      0.00
    3    6   43      2.64      0.00
    5    6   43     -2.82      0.00
    0    7   43      3.11      0.00
    2    7   43     -3.11      0.00
    4    7   43     -1.91      0.00
    6    7   43     -2.63      0.00
    1    8   43     -3.30      0.00
    3    8   43     -0.01      0.00
    5    8   43      2.21      0.00
    7    8   43     -4.06      0.00
    0    9   43      0.33      0.00
    2    9   43      1.79      0.00
    4    9   43     -3.08      0.00
    6    9   43     -1.32      0.00
    8    9   43      3.15      0.00
    1   10   43      0.78      0.00
    3   10   43     -1.64      0.00
    5   10   43      2.42      0.00
    7   10   43     -5.09      0.00
    9   10   43      2.48      0.00
    0   11   43     -0.41      0.00
    2   11   43     -3.20      0.00
    4   11   43      0.86      0.00
    6   11   43     -0.69      0.00
    8   11   43     -1.13      0.00
   10   11   43     -6.55      0.00
    1   12   43     -4.64      0.00
    3   12   43     -1.68      0.00
    5   12   43     -2.42      0.00
    7   12   43     -7.17      0.00
    9   12   43      0.25      0.00
   11   12   43     -0.76      0.00
    0   13   43     -6.41      0.00
    2   13   43      1.00      0.00
    4   13   43     -6.32      0.00
    6   13   43     -4.80      0.00
    8   13   43     -0.06      0.00
   10   13   43     -3.11      0.00
   12   13   43      6.23      0.00
    1   14   43      4.25      0.00
    3   14   43      4.37      0.00
    5   14   43     -9.14      0.00
    7   14   43      7.98      0.00
    9   14   43      7.09      0.00
   11   14   43    -10.70      0.00
   13   14   43     -2.93      0.00
    0   15   43      8.89      0.00
    2   15   43      8.60      0.00
    4   15   43     -0.40      0.00
    6   15   43      3.15      0.00
    8   15   43     -9.88      0.00
   10   15   43     -1.78      0.00
   12   15   43      2.74      0.00
   14   15   43     11.88      0.00
    1   16   43      1.09      0.00
    3   16   43      0.67      0.00
    5   16   43      5.91      0.00
    7   16   43     -2.34      0.00
    9   16   43      9.91      0.00
   11   16   43     -2.72      0.00
   13   16   43      4.34      0.00
    0   17   43     -6.97      0.00
    2   17   43     -5.70      0.00
    4   17   43      5.85      0.00
    6   17   43      5.04      0.00
    8   17   43      5.17      0.00
   10   17   43      0.61      0.00
   12   17   43      1.08      0.00
    1   18   43      7.11      0.00
    3   18   43      3.04      0.00
    5   18   43      0.80      0.00
    7   18   43     -3.91      0.00
    9   18   43      1.88      0.00
   11   18   43      2.15      0.00
    0   19   43      2.04      0.00
    2   19   43     -3.23      0.00
    4   19   43      5.21      0.00
    6   19   43     10.59      0.00
    8   19   43     10.28      0.00
   10   19   43      5.49      0.00
    1   20   43      5.47      0.00
    3   20   43     -3.40      0.00
    5   20   43     -5.92      0.00
    7   20   43     -3.04      0.00
    0   21   43     -2.35      0.00
    2   21   43      2.04      0.00
    4   21   43      3.12      0.00
    0    0   44     10.00      0.00
    0    2   44     -4.86      0.00
    2    2   44     -8.68      0.00
    1    3   44      0.25      0.00
    0    4   44      2.57      0.00
    2    4   44      4.96      0.00
    4    4   44      3.78      0.00
    1    5   44     -2.04      0.00
    3    5   44     -1.25      0.00
    0    6   44     12.02      0.00
    2    6   44     -1.17      0.00
    4    6   44      0.57      0.00
    6    6   44     -5.20      0.00
    1    7   44     -1.47      0.00
    3    7   44      1.12      0.00
    5    7   44     -2.73      0.00
    0    8   44      0.92      0.00
    2    8   44      1.01      0.00
    4    8   44     -6.64      0.00
    6    8   44      2.01      0.00
    8    8   44      5.55      0.00
    1    9   44     -3.85      0.00
    3    9   44     -9.81      0.00
    5    9   44     -0.79      0.00
    7    9   44      2.11      0.00
    0   10   44      7.31      0.00
    2   10   44     -3.38      0.00
    4   10   44     -1.51      0.00
    6   10   44     -5.88      0.00
    8   10   44      3.53      0.00
   10   10   44     -0.78      0.00
    1   11   44      3.35      0.00
    3   11   44      2.72      0.00
    5   11   44     -0.70      0.00
    7   11   44     -2.01      0.00
    9   11   44      6.72      0.00
    0   12   44     -0.95      0.00
    2   12   44      1.95      0.00
    4   12   44      5.05      0.00
    6   12   44      9.39      0.00
    8   12   44     -6.02      0.00
   10   12   44      9.95      0.00
   12   12   44     -0.29      0.00
    1   13   44     -0.42      0.00
    3   13   44     -7.02      0.00
    5   13   44     -4.24      0.00
    7   13   44      6.74      0.00
    9   13   44     -7.51      0.00
   11   13   44     -5.49      0.00
    0   14   44      1.53      0.00
    2   14   44      2.00      0.00
    4   14   44      5.27      0.00
    6   14   44     -0.01      0.00
    8   14   44     -0.54      0.00
   10   14   44     -3.66      0.00
   12   14   44    -13.75      0.00
   14   14   44     -7.79      0.00
    1   15   44     -2.64      0.00
    3   15   44      4.37      0.00
    5   15   44      1.92      0.00
    7   15   44     -4.82      0.00
    9   15   44      5.32      0.00
   11   15   44      0.67      0.00
   13   15   44      4.15      0.00
    0   16   44      9.36      0.00
    2   16   44     -9.04      0.00
    4   16   44      4.72      0.00
    6   16   44     -3.20      0.00
    8   16   44    -11.75      0.00
   10   16   44     -8.29      0.00
   12   16   44     -9.00      0.00
   14   16   44     -8.80      0.00
    1   17   44     -4.42      0.00
    3   17   44    -10.25      0.00
    5   17   44     -2.21      0.00
    7   17   44     -1.88      0.00
    9   17   44     -4.77      0.00
   11   17   44      4.25      0.00
    0   18   44     -3.94      0.00
    2   18   44      9.08      0.00
    4   18   44      1.32      0.00
    6   18   44      0.12      0.00
    8   18   44      9.66      0.00
   10   18   44      1.47      0.00
    1   19   44     -2.25      0.00
    3   19   44     -1.24      0.00
    5   19   44     -1.34      0.00
    7   19   44      3.76      0.00
    9   19   44     -0.77      0.00
    0   20   44      8.28      0.00
    2   20   44     -5.63      0.00
    4   20   44      9.60      0.00
    6   20   44      9.90      0.00
    1   21   44     -3.01      0.00
    3   21   44     -6.21      0.00
    0    1   45      5.35      0.00
    1    2   45     -1.41      0.00
    0    3   45     -5.60      0.00
    2    3   45      2.92      0.00
    1    4   45      0.85      0.00
    3    4   45     -0.43      0.00
    0    5   45      4.24      0.00
    2    5   45     -0.14      0.00
    4    5   45     -1.42      0.00
    1    6   45     -1.92      0.00
    3    6   45     -0.70      0.00
    5    6   45     -4.53      0.00
    0    7   45     11.22      0.00
    2    7   45      3.44      0.00
    4    7   45      4.10      0.00
    6    7   45      1.80      0.00
    1    8   45     -0.53      0.00
    3    8   45     -1.99      0.00
    5    8   45     -2.46      0.00
    7    8   45     -1.97      0.00
    0    9   45     -5.12      0.00
    2    9   45      2.68      0.00
    4    9   45     -1.69      0.00
    6    9   45      4.32      0.00
    8    9   45     -1.65      0.00
    1   10   45      3.11      0.00
    3   10   45     -1.77      0.00
    5   10   45     -3.36      0.00
    7   10   45      5.53      0.00
    9   10   45     -1.33      0.00
    0   11   45     -1.27      0.00
    2   11   45     -6.59      0.00
    4   11   45      3.13      0.00
    6   11   45      0.90      0.00
    8   11   45     -0.36      0.00
   10   11   45      0.14      0.00
    1   12   45     -2.75      0.00
    3   12   45      2.61      0.00
    5   12   45     -0.89      0.00
    7   12   45     -4.75      0.00
    9   12   45     -5.63      0.00
   11   12   45      2.52      0.00
    0   13   45     -0.76      0.00
    2   13   45     11.32      0.00
    4   13   45     -2.73      0.00
    6   13   45     -3.77      0.00
    8   13   45      7.92      0.00
   10   13   45     -5.24      0.00
   12   13   45     -0.21      0.00
    1   14   45     -7.28      0.00
    3   14   45     -1.00      0.00
    5   14   45     -3.89      0.00
    7   14   45     -1.94      0.00
    9   14   45      1.64      0.00
   11   14   45      0.33      0.00
   13   14   45     -0.60      0.00
    0   15   45      7.27      0.00
    2   15   45      0.06      0.00
    4   15   45      5.81      0.00
    6   15   45      1.51      0.00
    8   15   45      0.75      0.00
   10   15   45      0.60      0.00
   12   15   45      3.48      0.00
   14   15   45     -0.12      0.00
    1   16   45     -0.84      0.00
    3   16   45    -10.43      0.00
    5   16   45     -1.13      0.00
    7   16   45      1.27      0.00
    9   16   45      1.97      0.00
   11   16   45     -1.85      0.00
   13   16   45      0.54      0.00
    0   17   45     -1.46      0.00
    2   17   45      2.36      0.00
    4   17   45      2.01      0.00
    6   17   45     -1.81      0.00
    8   17   45      1.54      0.00
   10   17   45      3.18      0.00
   12   17   45     -1.31      0.00
    1   18   45      2.57      0.00
    3   18   45      1.48      0.00
    5   18   45     -8.59      0.00
    7   18   45     -7.71      0.00
    9   18   45     -2.91      0.00
    0   19   45     -3.66      0.00
    2   19   45     -7.39      0.00
    4   19   45     -0.54      0.00
    6   19   45     -2.24      0.00
    8   19   45     -2.28      0.00
    1   20   45     -8.43      0.00
    3   20   45     -0.45      0.00
    5   20   45    -10.18      0.00
    0   21   45     -7.66      0.00
    1    1   46     -8.20      0.00
    0    2   46      0.84      0.00
    1    3   46     -0.10      0.00
    3    3   46     -3.49      0.00
    0    4   46     -1.49      0.00
    2    4   46      5.69      0.00
    1    5   46      0.49      0.00
    3    5   46     -6.61      0.00
    5    5   46      0.37      0.00
    0    6   46      2.23      0.00
    2    6   46     -1.40      0.00
    4    6   46     -0.07      0.00
    1    7   46     -4.23      0.00
    3    7   46      2.20      0.00
    5    7   46      0.59      0.00
    7    7   46     -2.57      0.00
    0    8   46      0.20      0.00
    2    8   46      5.18      0.00
    4    8   46      6.76      0.00
    6    8   46      5.38      0.00
    1    9   46      2.13      0.00
    3    9   46      1.71      0.00
    5    9   46      2.55      0.00
    7    9   46     -5.14      0.00
    9    9   46     -9.39      0.00
    0   10   46     10.13      0.00
    2   10   46      6.83      0.00
    4   10   46      8.07      0.00
    6   10   46      1.08      0.00
    8   10   46      0.91      0.00
    1   11   46     12.41      0.00
    3   11   46      5.01      0.00
    5   11   46     -1.47      0.00
    7   11   46     -4.54      0.00
    9   11   46      1.00      0.00
   11   11   46      6.62      0.00
    0   12   46     -1.32      0.00
    2   12   46      5.37      0.00
    4   12   46      3.29      0.00
    6   12   46      8.15      0.00
    8   12   46     -1.35      0.00
   10   12   46      5.35      0.00
    1   13   46     -2.57      0.00
    3   13   46     -2.16      0.00
    5   13   46      1.39      0.00
    7   13   46     -7.79      0.00
    9   13   46    -11.16      0.00
   11   13   46     -1.72      0.00
   13   13   46    -14.84      0.00
    0   14   46      4.48      0.00
    2   14   46      4.97      0.00
    4   14   46     -9.43      0.00
    6   14   46      0.73      0.00
    8   14   46      6.19      0.00
   10   14   46      6.35      0.00
   12   14   46     -0.76      0.00
    1   15   46     -4.88      0.00
    3   15   46      2.83      0.00
    5   15   46    -15.24      0.00
    7   15   46      2.19      0.00
    9   15   46      3.10      0.00
   11   15   46      7.65      0.00
   13   15   46      8.84      0.00
    0   16   46     -7.14      0.00
    2   16   46      4.71      0.00
    4   16   46      6.42      0.00
    6   16   46      2.14      0.00
    8   16   46     -0.99      0.00
   10   16   46     -7.52      0.00
   12   16   46     11.60      0.00
    1   17   46      4.88      0.00
    3   17   46     -6.84      0.00
    5   17   46     -0.37      0.00
    7   17   46      0.94      0.00
    9   17   46      1.43      0.00
   11   17   46     -2.18      0.00
    0   18   46     -9.33      0.00
    2   18   46      3.47      0.00
    4   18   46      9.36      0.00
    6   18   46      4.31      0.00
    8   18   46     -1.63      0.00
   10   18   46     -6.54      0.00
    1   19   46     -5.88      0.00
    3   19   46      4.81      0.00
    5   19   46      0.10      0.00
    7   19   46      0.13      0.00
    0   20   46     -4.03      0.00
    2   20   46    -11.95      0.00
    4   20   46     -0.55      0.00
    0    1   47      9.98      0.00
    1    2   47     -3.63      0.00
    0    3   47     -0.78      0.00
    2    3   47     14.28      0.00
    1    4   47     -3.83      0.00
    3    4   47     -5.72      0.00
    0    5   47      1.87      0.00
    2    5   47     -3.69      0.00
    4    5   47     -2.29      0.00
    1    6   47     -4.20      0.00
    3    6   47      0.63      0.00
    5    6   47      6.06      0.00
    0    7   47      7.75      0.00
    2    7   47      5.31      0.00
    4    7   47     12.58      0.00
    6    7   47     -5.06      0.00
    1    8   47     -6.02      0.00
    3    8   47      2.37      0.00
    5    8   47      1.70      0.00
    7    8   47     -2.63      0.00
    0    9   47     -0.86      0.00
    2    9   47      4.78      0.00
    4    9   47     -0.21      0.00
    6    9   47      4.89      0.00
    8    9   47     -0.63      0.00
    1   10   47    -11.57      0.00
    3   10   47    -13.14      0.00
    5   10   47     -1.95      0.00
    7   10   47     -2.09      0.00
    9   10   47     -4.43      0.00
    0   11   47     -1.57      0.00
    2   11   47     -1.58      0.00
    4   11   47      1.99      0.00
    6   11   47     -1.22      0.00
    8   11   47     -2.77      0.00
   10   11   47      0.08      0.00
    1   12   47     -7.41      0.00
    3   12   47      7.20      0.00
    5   12   47     -5.33      0.00
    7   12   47     -0.46      0.00
    9   12   47     -0.20      0.00
   11   12   47     -2.54      0.00
    0   13   47     -2.94      0.00
    2   13   47      0.91      0.00
    4   13   47      3.04      0.00
    6   13   47      8.87      0.00
    8   13   47     -5.90      0.00
   10   13   47      4.22      0.00
   12   13   47     -4.85      0.00
    1   14   47     -5.39      0.00
    3   14   47    -11.06      0.00
    5   14   47      4.27      0.00
    7   14   47    -12.96      0.00
    9   14   47      6.31      0.00
   11   14   47     16.21      0.00
   13   14   47      5.52      0.00
    0   15   47      6.26      0.00
    2   15   47     -4.77      0.00
    4   15   47     -3.42      0.00
    6   15   47      1.33      0.00
    8   15   47      2.47      0.00
   10   15   47      5.09      0.00
   12   15   47      7.24      0.00
   14   15   47     -4.01      0.00
    1   16   47     -0.03      0.00
    3   16   47      4.26      0.00
    5   16   47      1.35      0.00
    7   16   47     10.61      0.00
    9   16   47     10.61      0.00
   11   16   47      3.28      0.00
    0   17   47      2.90      0.00
    2   17   47      4.12      0.00
    4   17   47      4.05      0.00
    6   17   47      2.40      0.00
    8   17   47      3.72      0.00
   10   17   47      1.18      0.00
    1   18   47      0.00      0.00
    3   18   47     -5.20      0.00
    5   18   47      1.77      0.00
    7   18   47     -6.94      0.00
    9   18   47      5.51      0.00
    0   19   47     -7.52      0.00
    2   19   47      4.44      0.00
    4   19   47     -4.47      0.00
    6   19   47     -6.50      0.00
    1   20   47      7.31      0.00
    3   20   47     -0.18      0.00
    0    0   48      5.97      0.00
    0    2   48     -9.03      0.00
    2    2   48    -11.28      0.00
    1    3   48     -3.24      0.00
    0    4   48      1.15      0.00
    2    4   48     -5.63      0.00
    4    4   48     -0.11      0.00
    1    5   48      0.04      0.00
    3    5   48     -1.31      0.00
    0    6   48     -4.49      0.00
    2    6   48     -5.56      0.00
    4    6   48     -5.09      0.00
    6    6   48      4.92      0.00
    1    7   48     -2.80      0.00
    3    7   48      6.25      0.00
    5    7   48     -3.47      0.00
    0    8   48      9.39      0.00
    2    8   48      7.69      0.00
    4    8   48      2.28      0.00
    6    8   48      2.68      0.00
    8    8   48      0.66      0.00
    1    9   48      5.02      0.00
    3    9   48     -2.43      0.00
    5    9   48     -1.26      0.00
    7    9   48     11.73      0.00
    0   10   48     -6.01      0.00
    2   10   48     -6.89      0.00
    4   10   48      5.12      0.00
    6   10   48     -1.99      0.00
    8   10   48     -0.33      0.00
   10   10   48     -4.85      0.00
    1   11   48      0.70      0.00
    3   11   48     -6.34      0.00
    5   11   48     -0.55      0.00
    7   11   48     -3.83      0.00
    9   11   48      2.03      0.00
    0   12   48     -0.76      0.00
    2   12   48     -0.39      0.00
    4   12   48     -6.14      0.00
    6   12   48      2.90      0.00
    8   12   48     -5.29      0.00
   10   12   48      1.03      0.00
   12   12   48    -15.64      0.00
    1   13   48     -2.44      0.00
    3   13   48     -5.13      0.00
    5   13   48     -2.61      0.00
    7   13   48      3.50      0.00
    9   13   48      4.84      0.00
   11   13   48      1.81      0.00
    0   14   48     -1.95      0.00
    2   14   48      2.20      0.00
    4   14   48      9.49      0.00
    6   14   48      1.01      0.00
    8   14   48     -6.07      0.00
   10   14   48      1.58      0.00
   12   14   48      2.43      0.00
   14   14   48     10.22      0.00
    1   15   48    -18.34      0.00
    3   15   48     -4.06      0.00
    5   15   48     -9.48      0.00
    7   15   48     -3.70      0.00
    9   15   48     -6.82      0.00
   11   15   48     -2.27      0.00
   13   15   48      2.10      0.00
    0   16   48    -12.04      0.00
    2   16   48      4.38      0.00
    4   16   48      0.80      0.00
    6   16   48      2.93      0.00
    8   16   48      1.94      0.00
   10   16   48    -12.15      0.00
   12   16   48     -3.41      0.00
    1   17   48      1.09      0.00
    3   17   48    -17.35      0.00
    5   17   48     -7.46      0.00
    7   17   48      0.15      0.00
    9   17   48    -11.35      0.00
   11   17   48    -11.32      0.00
    0   18   48      7.09      0.00
    2   18   48     -3.90      0.00
    4   18   48     -3.15      0.00
    6   18   48     -2.23      0.00
    8   18   48     -4.44      0.00
    1   19   48      8.83      0.00
    3   19   48     -8.38      0.00
    5   19   48     -0.16      0.00
    7   19   48     -7.25      0.00
    0   20   48     -5.37      0.00
    2   20   48     -6.46      0.00
    0    1   49     -2.79      0.00
    1    2   49      8.41      0.00
    0    3   49     -0.10      0.00
    2    3   49      2.72      0.00
    1    4   49     -2.84      0.00
    3    4   49     -2.65      0.00
    0    5   49      2.79      0.00
    2    5   49      3.77      0.00
    4    5   49      5.13      0.00
    1    6   49     -3.42      0.00
    3    6   49      1.16      0.00
    5    6   49     -9.60      0.00
    0    7   49      3.27      0.00
    2    7   49      5.64      0.00
    4    7   49      4.63      0.00
    6    7   49     -1.24      0.00
    1    8   49     -1.50      0.00
    3    8   49     -2.96      0.00
    5    8   49     -3.36      0.00
    7    8   49      3.68      0.00
    0    9   49     -3.91      0.00
    2    9   49      2.84      0.00
    4    9   49     -3.99      0.00
    6    9   49     -0.35      0.00
    8    9   49     -1.53      0.00
    1   10   49      5.11      0.00
    3   10   49      0.38      0.00
    5   10   49      5.69      0.00
    7   10   49     -1.10      0.00
    9   10   49      1.75      0.00
    0   11   49      1.86      0.00
    2   11   49      0.26      0.00
    4   11   49     11.92      0.00
    6   11   49      8.67      0.00
    8   11   49     11.73      0.00
   10   11   49      1.88      0.00
    1   12   49     -0.70      0.00
    3   12   49      0.79      0.00
    5   12   49     -6.07      0.00
    7   12   49      5.66      0.00
    9   12   49      3.12      0.00
   11   12   49     -3.30      0.00
    0   13   49     -5.09      0.00
    2   13   49     -2.35      0.00
    4   13   49     -2.49      0.00
    6   13   49     -0.57      0.00
    8   13   49     -4.82      0.00
   10   13   49      8.13      0.00
   12   13   49      3.73      0.00
    1   14   49      0.03      0.00
    3   14   49     -2.86      0.00
    5   14   49      3.41      0.00
    7   14   49     -2.24      0.00
    9   14   49      3.26      0.00
   11   14   49     -2.80      0.00
   13   14   49      0.53      0.00
    0   15   49      0.70      0.00
    2   15   49      3.69      0.00
    4   15   49     -0.98      0.00
    6   15   49      0.52      0.00
    8   15   49      9.82      0.00
   10   15   49      0.22      0.00
   12   15   49     -8.55      0.00
    1   16   49      3.59      0.00
    3   16   49      4.65      0.00
    5   16   49     -9.47      0.00
    7   16   49      4.86      0.00
    9   16   49      2.43      0.00
   11   16   49     -5.13      0.00
    0   17   49     -9.76      0.00
    2   17   49      9.74      0.00
    4   17   49     13.20      0.00
    6   17   49      1.38      0.00
    8   17   49      5.76      0.00
   10   17   49     -3.14      0.00
    1   18   49     12.54      0.00
    3   18   49      0.63      0.00
    5   18   49     -4.74      0.00
    7   18   49    -13.24      0.00
    0   19   49     11.43      0.00
    2   19   49      2.92      0.00
    4   19   49      8.42      0.00
    6   19   49     -3.70      0.00
    1    1   50     -2.07      0.00
    0    2   50     -6.08      0.00
    1    3   50     11.81      0.00
    3    3   50      1.63      0.00
    0    4   50      2.30      0.00
    2    4   50      8.80      0.00
    1    5   50      3.51      0.00
    3    5   50      0.42      0.00
    5    5   50      1.37      0.00
    0    6   50      1.34      0.00
    2    6   50     -1.38      0.00
    4    6   50     -5.74      0.00
    1    7   50     -2.49      0.00
    3    7   50     -2.82      0.00
    5    7   50     -2.37      0.00
    7    7   50     -0.72      0.00
    0    8   50     -2.13      0.00
    2    8   50      7.98      0.00
    4    8   50      3.88      0.00
    6    8   50      1.55      0.00
    1    9   50     -3.02      0.00
    3    9   50     -8.09      0.00
    5    9   50     -3.22      0.00
    7    9   50     -6.22      0.00
    9    9   50     -7.46      0.00
    0   10   50     11.02      0.00
    2   10   50     -5.87      0.00
    4   10   50      6.68      0.00
    6   10   50     -4.95      0.00
    8   10   50      3.05      0.00
    1   11   50     -4.28      0.00
    3   11   50      0.11      0.00
    5   11   50     -5.01      0.00
    7   11   50     -3.61      0.00
    9   11   50     -5.45      0.00
   11   11   50    -12.46      0.00
    0   12   50     -2.66      0.00
    2   12   50      7.99      0.00
    4   12   50     -5.65      0.00
    6   12   50     13.39      0.00
    8   12   50     -0.78      0.00
   10   12   50     10.18      0.00
    1   13   50     -3.68      0.00
    3   13   50     -1.96      0.00
    5   13   50     -4.18      0.00
    7   13   50      3.83      0.00
    9   13   50      4.26      0.00
   11   13   50      7.82      0.00
   13   13   50      8.98      0.00
    0   14   50      1.97      0.00
    2   14   50      9.96      0.00
    4   14   50     -3.51      0.00
    6   14   50      1.47      0.00
    8   14   50     10.08      0.00
   10   14   50     -2.28      0.00
   12   14   50     -0.77      0.00
    1   15   50      0.66      0.00
    3   15   50      9.95      0.00
    5   15   50      1.80      0.00
    7   15   50     -3.08      0.00
    9   15   50     -1.53      0.00
   11   15   50     -1.25      0.00
    0   16   50     14.99      0.00
    2   16   50      2.80      0.00
    4   16   50      3.86      0.00
    6   16   50      7.97      0.00
    8   16   50     -5.16      0.00
   10   16   50     -6.31      0.00
    1   17   50      3.97      0.00
    3   17   50      1.68      0.00
    5   17   50     -2.84      0.00
    7   17   50     -4.49      0.00
    9   17   50     -8.67      0.00
    0   18   50     -3.50      0.00
    2   18   50     -7.28      0.00
    4   18   50     -3.65      0.00
    6   18   50     -2.96      0.00
    8   18   50     -0.63      0.00
    1   19   50     -8.12      0.00
    3   19   50     -4.80      0.00
    5   19   50      6.09      0.00
    0    1   51     -4.81      0.00
    1    2   51      3.55      0.00
    0    3   51      0.17      0.00
    2    3   51      4.88      0.00
    1    4   51      9.46      0.00
    3    4   51      2.85      0.00
    0    5   51      2.85      0.00
    2    5   51      1.80      0.00
    4    5   51      2.65      0.00
    1    6   51     -1.51      0.00
    3    6   51     -0.91      0.00
    5    6   51     -1.90      0.00
    0    7   51     -5.17      0.00
    2    7   51    -12.46      0.00
    4    7   51     -9.55      0.00
    6    7   51     -0.01      0.00
    1    8   51     -3.18      0.00
    3    8   51     -1.12      0.00
    5    8   51     -3.88      0.00
    7    8   51     -8.48      0.00
    0    9   51     -0.85      0.00
    2    9   51      1.08      0.00
    4    9   51      3.83      0.00
    6    9   51     -0.51      0.00
    8    9   51     -7.80      0.00
    1   10   51     11.16      0.00
    3   10   51     -4.35      0.00
    5   10   51     -5.34      0.00
    7   10   51      3.20      0.00
    9   10   51      1.05      0.00
    0   11   51      0.26      0.00
    2   11   51     -3.14      0.00
    4   11   51      0.53      0.00
    6   11   51      4.47      0.00
    8   11   51     -3.76      0.00
   10   11   51      0.19      0.00
    1   12   51     -2.66      0.00
    3   12   51      0.49      0.00
    5   12   51      5.48      0.00
    7   12   51    -12.77      0.00
    9   12   51     -8.44      0.00
   11   12   51     -2.73      0.00
    0   13   51      2.56      0.00
    2   13   51      1.22      0.00
    4   13   51     -0.66      0.00
    6   13   51     -3.47      0.00
    8   13   51      0.28      0.00
   10   13   51     -5.37      0.00
   12   13   51      5.75      0.00
    1   14   51    -16.08      0.00
    3   14   51     -0.80      0.00
    5   14   51     -1.30      0.00
    7   14   51      1.76      0.00
    9   14   51      9.60      0.00
   11   14   51     -1.99      0.00
   13   14   51      4.04      0.00
    0   15   51      6.99      0.00
    2   15   51     -4.80      0.00
    4   15   51      9.07      0.00
    6   15   51      7.33      0.00
    8   15   51     -7.10      0.00
   10   15   51      9.40      0.00
   12   15   51     -5.15      0.00
    1   16   51     -1.81      0.00
    3   16   51     -0.73      0.00
    5   16   51      0.22      0.00
    7   16   51     -2.55      0.00
    9   16   51      5.88      0.00
    0   17   51    -14.12      0.00
    2   17   51     15.64      0.00
    4   17   51     11.71      0.00
    6   17   51      4.94      0.00
    8   17   51     -1.89      0.00
    1   18   51     -8.80      0.00
    3   18   51      0.27      0.00
    5   18   51     -3.29      0.00
    7   18   51      6.48      0.00
    0   19   51     12.51      0.00
    2   19   51      2.21      0.00
    0    0   52      3.64      0.00
    0    2   52     -4.45      0.00
    2    2   52     -5.09      0.00
    1    3   52     -2.02      0.00
    0    4   52     -0.43      0.00
    2    4   52      0.40      0.00
    4    4   52      6.75      0.00
    1    5   52     -0.32      0.00
    3    5   52     -4.40      0.00
    0    6   52      3.98      0.00
    2    6   52      0.55      0.00
    4    6   52     -2.13      0.00
    6    6   52      4.56      0.00
    1    7   52     -2.79      0.00
    3    7   52      0.04      0.00
    5    7   52     -3.89      0.00
    0    8   52    -11.21      0.00
    2    8   52     -3.93      0.00
    4    8   52     -0.79      0.00
    6    8   52     -2.45      0.00
    8    8   52     -7.52      0.00
    1    9   52      1.28      0.00
    3    9   52     -6.70      0.00
    5    9   52     -4.04      0.00
    7    9   52     10.33      0.00
    0   10   52     -4.59      0.00
    2   10   52      0.32      0.00
    4   10   52    -13.27      0.00
    6   10   52    -10.81      0.00
    8   10   52     -0.81      0.00
   10   10   52     -5.59      0.00
    1   11   52      4.54      0.00
    3   11   52     -7.50      0.00
    5   11   52     -4.01      0.00
    7   11   52     -5.95      0.00
    9   11   52     -3.74      0.00
    0   12   52     -4.25      0.00
    2   12   52     -8.31      0.00
    4   12   52     -0.59      0.00
    6   12   52      1.32      0.00
    8   12   52      2.45      0.00
   10   12   52      1.94      0.00
   12   12   52      3.98      0.00
    1   13   52      0.70      0.00
    3   13   52      2.41      0.00
    5   13   52     -3.18      0.00
    7   13   52      4.32      0.00
    9   13   52      2.45      0.00
   11   13   52     -4.06      0.00
    0   14   52     -8.60      0.00
    2   14   52      0.31      0.00
    4   14   52     -8.94      0.00
    6   14   52    -12.72      0.00
    8   14   52    -16.92      0.00
   10   14   52     -2.18      0.00
   12   14   52     -5.01      0.00
    1   15   52      9.09      0.00
    3   15   52     -4.50      0.00
    5   15   52      9.70      0.00
    7   15   52     11.36      0.00
    9   15   52      3.53      0.00
   11   15   52     -5.20      0.00
    0   16   52     13.78      0.00
    2   16   52     11.98      0.00
    4   16   52     -9.44      0.00
    6   16   52     -4.97      0.00
    8   16   52    -11.00      0.00
   10   16   52     -7.10      0.00
    1   17   52     14.81      0.00
    3   17   52     -2.50      0.00
    5   17   52     -3.43      0.00
    7   17   52     13.46      0.00
    0   18   52     -6.85      0.00
    2   18   52     -1.69      0.00
    4   18   52      0.63      0.00
    6   18   52      5.84      0.00
    1   19   52     -0.40      0.00
    0    1   53    -11.39      0.00
    1    2   53      2.25      0.00
    0    3   53     -1.42      0.00
    2    3   53     -7.51      0.00
    1    4   53     -0.51      0.00
    3    4   53     -2.63      0.00
    0    5   53    -12.61      0.00
    2    5   53     -4.54      0.00
    4    5   53      0.71      0.00
    1    6   53      2.88      0.00
    3    6   53      1.12      0.00
    5    6   53     -5.72      0.00
    0    7   53      1.70      0.00
    2    7   53     -3.75      0.00
    4    7   53     10.05      0.00
    6    7   53     -1.57      0.00
    1    8   53     -3.67      0.00
    3    8   53      0.57      0.00
    5    8   53     -1.03      0.00
    7    8   53      0.41      0.00
    0    9   53    -26.22      0.00
    2    9   53      2.98      0.00
    4    9   53     -4.38      0.00
    6    9   53     -0.31      0.00
    8    9   53     -1.62      0.00
    1   10   53      4.81      0.00
    3   10   53     -4.49      0.00
    5   10   53      0.35      0.00
    7   10   53      6.90      0.00
    9   10   53      0.63      0.00
    0   11   53      8.29      0.00
    2   11   53     -1.09      0.00
    4   11   53      2.75      0.00
    6   11   53     -3.95      0.00
    8   11   53      5.18      0.00
   10   11   53     -2.47      0.00
    1   12   53     -2.13      0.00
    3   12   53     10.89      0.00
    5   12   53      2.04      0.00
    7   12   53      2.34      0.00
    9   12   53     -2.65      0.00
   11   12   53     -2.38      0.00
    0   13   53     -6.68      0.00
    2   13   53      2.02      0.00
    4   13   53      9.79      0.00
    6   13   53      5.68      0.00
    8   13   53     -4.79      0.00
   10   13   53     -2.63      0.00
   12   13   53     -1.07      0.00
    1   14   53      3.57      0.00
    3   14   53     -1.91      0.00
    5   14   53     -5.63      0.00
    7   14   53     -8.71      0.00
    9   14   53     12.06      0.00
   11   14   53      2.83      0.00
    0   15   53    -14.80      0.00
    2   15   53      5.33      0.00
    4   15   53    -11.45      0.00
    6   15   53    -13.72      0.00
    8   15   53      1.12      0.00
   10   15   53     -9.18      0.00
    1   16   53    -12.26      0.00
    3   16   53      3.09      0.00
    5   16   53      3.48      0.00
    7   16   53      4.24      0.00
    9   16   53     -1.77      0.00
    0   17   53      1.06      0.00
    2   17   53     -1.46      0.00
    4   17   53      4.93      0.00
    6   17   53      3.95      0.00
    1   18   53      4.17      0.00
    3   18   53      0.84      0.00
    5   18   53     -3.47      0.00
    1    1   54     14.90      0.00
    0    2   54     16.68      0.00
    1    3   54      1.82      0.00
    3    3   54      2.32      0.00
    0    4   54     -9.99      0.00
    2    4   54      3.39      0.00
    1    5   54     -3.67      0.00
    3    5   54     -4.23      0.00
    5    5   54      1.84      0.00
    0    6   54      7.10      0.00
    2    6   54      4.15      0.00
    4    6   54      9.06      0.00
    1    7   54      2.19      0.00
    3    7   54      2.44      0.00
    5    7   54     -4.82      0.00
    7    7   54      8.64      0.00
    0    8   54      4.13      0.00
    2    8   54      9.26      0.00
    4    8   54      8.47      0.00
    6    8   54      9.38      0.00
    1    9   54     -2.01      0.00
    3    9   54     -0.32      0.00
    5    9   54      0.05      0.00
    7    9   54     -1.09      0.00
    9    9   54     -2.79      0.00
    0   10   54     -0.67      0.00
    2   10   54     -2.65      0.00
    4   10   54      2.30      0.00
    6   10   54      0.53      0.00
    8   10   54      2.45      0.00
    1   11   54     -0.20      0.00
    3   11   54     -4.53      0.00
    5   11   54     -2.59      0.00
    7   11   54      1.29      0.00
    9   11   54      4.36      0.00
   11   11   54      2.59      0.00
    0   12   54      1.16      0.00
    2   12   54     -2.36      0.00
    4   12   54     -3.22      0.00
    6   12   54      4.36      0.00
    8   12   54     -6.13      0.00
   10   12   54      3.84      0.00
    1   13   54      5.03      0.00
    3   13   54      3.48      0.00
    5   13   54      1.54      0.00
    7   13   54     -0.32      0.00
    9   13   54      3.24      0.00
   11   13   54      1.37      0.00
   13   13   54      3.07      0.00
    0   14   54     10.37      0.00
    2   14   54     11.02      0.00
    4   14   54     -4.45      0.00
    6   14   54     -1.07      0.00
    8   14   54      1.63      0.00
   10   14   54     -1.69      0.00
   12   14   54     -4.44      0.00
    1   15   54     -1.99      0.00
    3   15   54     -1.64      0.00
    5   15   54     -3.12      0.00
    7   15   54     -3.32      0.00
    9   15   54     -4.09      0.00
    0   16   54     12.90      0.00
    2   16   54      2.09      0.00
    4   16   54     -0.66      0.00
    6   16   54      8.17      0.00
    8   16   54      7.66      0.00
    1   17   54     -0.79      0.00
    3   17   54     -1.94      0.00
    5   17   54     -4.82      0.00
    7   17   54     -2.60      0.00
    0   18   54     -3.73      0.00
    2   18   54     -0.41      0.00
    4   18   54     14.36      0.00
    0    1   55      1.08      0.00
    1    2   55      3.72      0.00
    0    3   55     -3.89      0.00
    2    3   55     -1.03      0.00
    1    4   55      1.47      0.00
    3    4   55     -3.92      0.00
    0    5   55      8.36      0.00
    2    5   55     -0.17      0.00
    4    5   55     -2.36      0.00
    1    6   55      2.05      0.00
    3    6   55     -1.01      0.00
    5    6   55     -4.07      0.00
    0    7   55     -3.70      0.00
    2    7   55     -4.28      0.00
    4    7   55     -6.44      0.00
    6    7   55     -2.50      0.00
    1    8   55     -2.21      0.00
    3    8   55     -8.98      0.00
    5    8   55      3.08      0.00
    7    8   55      6.94      0.00
    0    9   55      3.52      0.00
    2    9   55      3.60      0.00
    4    9   55     13.90      0.00
    6    9   55      6.92      0.00
    8    9   55     -2.25      0.00
    1   10   55     -4.44      0.00
    3   10   55      2.39      0.00
    5   10   55      5.78      0.00
    7   10   55      5.21      0.00
    9   10   55      1.81      0.00
    0   11   55     -2.76      0.00
    2   11   55      1.57      0.00
    4   11   55     -0.98      0.00
    6   11   55      3.64      0.00
    8   11   55     -1.32      0.00
   10   11   55      6.84      0.00
    1   12   55      5.30      0.00
    3   12   55      3.14      0.00
    5   12   55     10.90      0.00
    7   12   55     -8.26      0.00
    9   12   55     -1.80      0.00
   11   12   55      1.57      0.00
    0   13   55     19.70      0.00
    2   13   55     -4.23      0.00
    4   13   55      8.33      0.00
    6   13   55      6.34      0.00
    8   13   55     -0.73      0.00
   10   13   55      6.10      0.00
   12   13   55      5.92      0.00
    1   14   55     -7.87      0.00
    3   14   55     -2.28      0.00
    5   14   55     -5.19      0.00
    7   14   55     -3.04      0.00
    9   14   55     -1.05      0.00
   11   14   55     -4.09      0.00
    0   15   55    -21.64      0.00
    2   15   55     -9.27      0.00
    4   15   55     -1.29      0.00
    6   15   55     -7.83      0.00
    8   15   55    -15.13      0.00
   10   15   55     -4.07      0.00
    1   16   55    -26.49      0.00
    3   16   55     -9.38      0.00
    5   16   55     -0.08      0.00
    7   16   55      4.90      0.00
    0   17   55     -3.25      0.00
    2   17   55     -1.95      0.00
    4   17   55    -13.30      0.00
    6   17   55     -8.56      0.00
    1   18   55      1.21      0.00
    0    0   56    -15.02      0.00
    0    2   56     -3.93      0.00
    2    2   56     -2.63      0.00
    1    3   56     -9.43      0.00
    0    4   56    -15.40      0.00
    2    4   56     -2.20      0.00
    4    4   56     -1.13      0.00
    1    5   56     -1.80      0.00
    3    5   56      0.28      0.00
    0    6   56     14.64      0.00
    2    6   56      2.88      0.00
    4    6   56     -2.94      0.00
    6    6   56     -0.05      0.00
    1    7   56     10.19      0.00
    3    7   56     -0.84      0.00
    5    7   56     -2.01      0.00
    0    8   56      0.95      0.00
    2    8   56      1.88      0.00
    4    8   56     10.34      0.00
    6    8   56      8.11      0.00
    8    8   56      2.00      0.00
    1    9   56     15.32      0.00
    3    9   56      9.52      0.00
    5    9   56     -0.66      0.00
    7    9   56      2.78      0.00
    0   10   56      0.71      0.00
    2   10   56     10.60      0.00
    4   10   56     -7.23      0.00
    6   10   56    -10.36      0.00
    8   10   56     -2.54      0.00
   10   10   56      8.17      0.00
    1   11   56      9.49      0.00
    3   11   56     -8.34      0.00
    5   11   56     -0.78      0.00
    7   11   56     -3.37      0.00
    9   11   56     -2.51      0.00
    0   12   56     -5.16      0.00
    2   12   56     -0.91      0.00
    4   12   56      1.37      0.00
    6   12   56     -6.24      0.00
    8   12   56      4.43      0.00
   10   12   56     -4.01      0.00
   12   12   56      2.07      0.00
    1   13   56     -4.30      0.00
    3   13   56     -7.20      0.00
    5   13   56     -2.47      0.00
    7   13   56      6.51      0.00
    9   13   56      2.17      0.00
   11   13   56      1.90      0.00
    0   14   56     -1.67      0.00
    2   14   56      2.99      0.00
    4   14   56      0.61      0.00
    6   14   56     14.02      0.00
    8   14   56     -9.02      0.00
   10   14   56     -0.08      0.00
    1   15   56     14.39      0.00
    3   15   56     -2.97      0.00
    5   15   56     -9.92      0.00
    7   15   56     -7.02      0.00
    9   15   56      3.31      0.00
    0   16   56     -6.20      0.00
    2   16   56     17.86      0.00
    4   16   56      1.82      0.00
    6   16   56     -0.14      0.00
    1   17   56     -7.75      0.00
    3   17   56     -2.60      0.00
    5   17   56     10.59      0.00
    0    1   57     -5.55      0.00
    1    2   57      6.75      0.00
    0    3   57      7.54      0.00
    2    3   57      1.81      0.00
    1    4   57      2.23      0.00
    3    4   57     -6.74      0.00
    0    5   57     10.35      0.00
    2    5   57     -0.77      0.00
    4    5   57      1.73      0.00
    1    6   57     -1.38      0.00
    3    6   57     -6.59      0.00
    5    6   57     -5.41      0.00
    0    7   57     -5.61      0.00
    2    7   57     11.60      0.00
    4    7   57      7.41      0.00
    6    7   57    -11.72      0.00
    1    8   57     -8.52      0.00
    3    8   57      1.81      0.00
    5    8   57     -9.81      0.00
    7    8   57      9.15      0.00
    0    9   57     -5.02      0.00
    2    9   57      1.93      0.00
    4    9   57      9.39      0.00
    6    9   57      9.52      0.00
    8    9   57     -3.21      0.00
    1   10   57      0.21      0.00
    3   10   57     -2.62      0.00
    5   10   57      2.02      0.00
    7   10   57     -1.68      0.00
    9   10   57     -1.59      0.00
    0   11   57     -0.94      0.00
    2   11   57      8.82      0.00
    4   11   57     -0.81      0.00
    6   11   57     -9.11      0.00
    8   11   57      6.28      0.00
   10   11   57      3.67      0.00
    1   12   57      7.48      0.00
    3   12   57     15.96      0.00
    5   12   57     -2.07      0.00
    7   12   57     -0.29      0.00
    9   12   57      4.02      0.00
   11   12   57     -4.79      0.00
    0   13   57      5.97      0.00
    2   13   57      0.46      0.00
    4   13   57      0.31      0.00
    6   13   57      2.77      0.00
    8   13   57      0.65      0.00
   10   13   57     -2.45      0.00
    1   14   57      7.60      0.00
    3   14   57     -0.53      0.00
    5   14   57      1.61      0.00
    7   14   57      3.28      0.00
    9   14   57      5.25      0.00
    0   15   57    -13.51      0.00
    2   15   57     14.04      0.00
    4   15   57      7.26      0.00
    6   15   57     -1.23      0.00
    8   15   57      0.48      0.00
    1   16   57      1.89      0.00
    3   16   57      6.97      0.00
    5   16   57      2.31      0.00
    0   17   57     -1.15      0.00
    2   17   57     -1.42      0.00
    1    1   58      1.73      0.00
    0    2   58     -9.35      0.00
    1    3   58     -1.10      0.00
    3    3   58     -0.47      0.00
    0    4   58      3.63      0.00
    2    4   58      2.83      0.00
    1    5   58      2.38      0.00
    3    5   58     -2.31      0.00
    5    5   58      2.56      0.00
    0    6   58      4.91      0.00
    2    6   58      3.33      0.00
    4    6   58      9.50      0.00
    1    7   58      1.41      0.00
    3    7   58      6.31      0.00
    5    7   58     -2.21      0.00
    7    7   58     -5.69      0.00
    0    8   58     -6.46      0.00
    2    8   58     -9.52      0.00
    4    8   58     -2.54      0.00
    6    8   58      1.39      0.00
    1    9   58      0.72      0.00
    3    9   58     -5.51      0.00
    5    9   58     -2.14      0.00
    7    9   58     -0.40      0.00
    9    9   58    -10.77      0.00
    0   10   58     -6.75      0.00
    2   10   58      5.81      0.00
    4   10   58      3.20      0.00
    6   10   58      2.68      0.00
    8   10   58      7.35      0.00
    1   11   58     -5.90      0.00
    3   11   58      6.60      0.00
    5   11   58     -3.83      0.00
    7   11   58      6.20      0.00
    9   11   58      4.29      0.00
   11   11   58     -0.13      0.00
    0   12   58     -4.67      0.00
    2   12   58    -26.19      0.00
    4   12   58     -3.75      0.00
    6   12   58    -10.46      0.00
    8   12   58     -1.64      0.00
   10   12   58     -0.28      0.00
    1   13   58     -1.61      0.00
    3   13   58     -3.65      0.00
    5   13   58     11.21      0.00
    7   13   58     -6.20      0.00
    9   13   58      5.83      0.00
    0   14   58     -4.09      0.00
    2   14   58      8.93      0.00
    4   14   58     -3.41      0.00
    6   14   58      2.53      0.00
    8   14   58    -11.75      0.00
    1   15   58    -16.01      0.00
    3   15   58      0.65      0.00
    5   15   58     -4.44      0.00
    7   15   58      7.66      0.00
    0   16   58     12.03      0.00
    2   16   58     -4.93      0.00
    4   16   58      7.27      0.00
    0    1   59     18.13      0.00
    1    2   59      2.04      0.00
    0    3   59     -5.14      0.00
    2    3   59      3.11      0.00
    1    4   59     -0.03      0.00
    3    4   59     -5.52      0.00
    0    5   59      3.55      0.00
    2    5   59      1.33      0.00
    4    5   59     -0.60      0.00
    1    6   59     -2.31      0.00
    3    6   59      2.45      0.00
    5    6   59      0.90      0.00
    0    7   59     -2.26      0.00
    2    7   59      0.94      0.00
    4    7   59     -0.21      0.00
    6    7   59     -6.40      0.00
    1    8   59     -5.37      0.00
    3    8   59     -9.86      0.00
    5    8   59     -4.02      0.00
    7    8   59      0.04      0.00
    0    9   59    -13.68      0.00
    2    9   59    -17.20      0.00
    4    9   59     -3.42      0.00
    6    9   59      5.64      0.00
    8    9   59     -0.37      0.00
    1   10   59      5.65      0.00
    3   10   59      8.86      0.00
    5   10   59      6.35      0.00
    7   10   59      3.99      0.00
    9   10   59      5.56      0.00
    0   11   59      3.30      0.00
    2   11   59     -5.00      0.00
    4   11   59      1.94      0.00
    6   11   59     -6.03      0.00
    8   11   59      0.40      0.00
   10   11   59      6.51      0.00
    1   12   59      6.60      0.00
    3   12   59     -2.72      0.00
    5   12   59     11.57      0.00
    7   12   59      4.58      0.00
    9   12   59      3.93      0.00
   11   12   59      7.20      0.00
    0   13   59      9.02      0.00
    2   13   59      1.81      0.00
    4   13   59      8.32      0.00
    6   13   59      7.13      0.00
    8   13   59     -5.24      0.00
   10   13   59      0.16      0.00
    1   14   59      0.59      0.00
    3   14   59      3.28      0.00
    5   14   59     -0.90      0.00
    7   14   59      5.24      0.00
    0   15   59     20.24      0.00
    2   15   59      6.02      0.00
    4   15   59     -7.26      0.00
    6   15   59     -0.67      0.00
    1   16   59     -5.23      0.00
    3   16   59     -6.05      0.00
    0    0   60    -10.13      0.00
    0    2   60      7.99      0.00
    2    2   60     26.40      0.00
    1    3   60      1.28      0.00
    0    4   60      5.28      0.00
    2    4   60      3.03      0.00
    4    4   60     -6.28      0.00
    1    5   60     -5.82      0.00
    3    5   60     -0.29      0.00
    0    6   60     -6.64      0.00
    2    6   60     -5.18      0.00
    4    6   60     12.23      0.00
    6    6   60      5.52      0.00
    1    7   60      4.15      0.00
    3    7   60     -3.99      0.00
    5    7   60      5.02      0.00
    0    8   60      7.79      0.00
    2    8   60      7.81      0.00
    4    8   60    -11.29      0.00
    6    8   60     -8.29      0.00
    8    8   60     -5.79      0.00
    1    9   60      1.19      0.00
    3    9   60      1.68      0.00
    5    9   60     -2.21      0.00
    7    9   60      6.73      0.00
    0   10   60     -1.41      0.00
    2   10   60      8.77      0.00
    4   10   60      1.77      0.00
    6   10   60      4.17      0.00
    8   10   60      3.22      0.00
   10   10   60      2.37      0.00
    1   11   60      3.65      0.00
    3   11   60     -8.18      0.00
    5   11   60      4.42      0.00
    7   11   60     -1.98      0.00
    9   11   60     -8.36      0.00
    0   12   60     -4.25      0.00
    2   12   60    -10.51      0.00
    4   12   60      1.09      0.00
    6   12   60      1.76      0.00
    8   12   60     -3.04      0.00
   10   12   60     -2.25      0.00
    1   13   60     -6.91      0.00
    3   13   60      4.85      0.00
    5   13   60      1.84      0.00
    7   13   60     -2.47      0.00
    9   13   60      3.12      0.00
    0   14   60     -9.88      0.00
    2   14   60     19.24      0.00
    4   14   60      0.94      0.00
    6   14   60      3.86      0.00
    8   14   60     10.33      0.00
    1   15   60     17.63      0.00
    3   15   60    -10.99      0.00
    5   15   60     -1.30      0.00
    0   16   60      6.80      0.00
    2   16   60      9.28      0.00
    0    1   61      8.05      0.00
    1    2   61      1.23      0.00
    0    3   61     -3.81      0.00
    2    3   61      0.20      0.00
    1    4   61     -9.08      0.00
    3    4   61     -0.89      0.00
    0    5   61      3.34      0.00
    2    5   61     -3.19      0.00
    4    5   61      2.66      0.00
    1    6   61    -12.95      0.00
    3    6   61      1.21      0.00
    5    6   61      8.53      0.00
    0    7   61    -19.22      0.00
    2    7   61     -6.40      0.00
    4    7   61    -13.63      0.00
    6    7   61     -7.70      0.00
    1    8   61      7.48      0.00
    3    8   61     -5.03      0.00
    5    8   61     -9.48      0.00
    7    8   61     -4.22      0.00
    0    9   61     -7.32      0.00
    2    9   61     -0.65      0.00
    4    9   61      3.97      0.00
    6    9   61      0.58      0.00
    8    9   61     -8.28      0.00
    1   10   61     -2.83      0.00
    3   10   61     -0.90      0.00
    5   10   61    -12.41      0.00
    7   10   61     -3.94      0.00
    9   10   61     -3.47      0.00
    0   11   61    -12.08      0.00
    2   11   61      6.93      0.00
    4   11   61     -5.49      0.00
    6   11   61      8.61      0.00
    8   11   61      5.11      0.00
   10   11   61     -3.60      0.00
    1   12   61     -3.85      0.00
    3   12   61     -1.02      0.00
    5   12   61     -0.42      0.00
    7   12   61     12.83      0.00
    9   12   61      6.83      0.00
    0   13   61     -2.40      0.00
    2   13   61     -5.44      0.00
    4   13   61     -6.82      0.00
    6   13   61    -10.52      0.00
    8   13   61     -0.50      0.00
    1   14   61      4.76      0.00
    3   14   61     -3.63      0.00
    5   14   61     -9.21      0.00
    7   14   61      1.21      0.00
    0   15   61      9.48      0.00
    2   15   61     13.94      0.00
    4   15   61     11.19      0.00
    1    1   62      2.73      0.00
    0    2   62      0.85      0.00
    1    3   62     -3.71      0.00
    3    3   62     -5.28      0.00
    0    4   62     -0.87      0.00
    2    4   62    -12.07      0.00
    1    5   62      0.64      0.00
    3    5   62     -1.54      0.00
    5    5   62     11.72      0.00
    0    6   62      4.15      0.00
    2    6   62      5.63      0.00
    4    6   62      2.71      0.00
    1    7   62     -0.10      0.00
    3    7   62     -8.45      0.00
    5    7   62     -7.48      0.00
    7    7   62     -4.94      0.00
    0    8   62      8.52      0.00
    2    8   62      1.81      0.00
    4    8   62     -1.28      0.00
    6    8   62      6.64      0.00
    1    9   62      5.76      0.00
    3    9   62      2.95      0.00
    5    9   62      2.66      0.00
    7    9   62     -0.76      0.00
    9    9   62     -0.62      0.00
    0   10   62      1.21      0.00
    2   10   62     -4.52      0.00
    4   10   62      4.10      0.00
    6   10   62     -7.91      0.00
    8   10   62     -1.55      0.00
    1   11   62     -2.62      0.00
    3   11   62      3.11      0.00
    5   11   62     -7.18      0.00
    7   11   62     -5.02      0.00
    9   11   62     -2.51      0.00
    0   12   62     -7.01      0.00
    2   12   62     -7.96      0.00
    4   12   62      7.44      0.00
    6   12   62     -6.26      0.00
    8   12   62     -4.98      0.00
    1   13   62    -10.42      0.00
    3   13   62     -9.90      0.00
    5   13   62      1.57      0.00
    7   13   62     -6.08      0.00
    0   14   62      2.57      0.00
    2   14   62    -13.84      0.00
    4   14   62      2.64      0.00
    6   14   62      1.19      0.00
    1   15   62     -6.83      0.00
    0    1   63      3.91      0.00
    1    2   63     -2.71      0.00
    0    3   63      4.45      0.00
    2    3   63      3.63      0.00
    1    4   63      1.67      0.00
    3    4   63      2.68      0.00
    0    5   63      4.10      0.00
    2    5   63      1.82      0.00
    4    5   63     -5.95      0.00
    1    6   63      2.90      0.00
    3    6   63     -1.78      0.00
    5    6   63     -1.76      0.00
    0    7   63      2.77      0.00
    2    7   63      1.04      0.00
    4    7   63      1.83      0.00
    6    7   63      0.63      0.00
    1    8   63      7.83      0.00
    3    8   63      4.85      0.00
    5    8   63     10.24      0.00
    7    8   63      3.98      0.00
    0    9   63      2.61      0.00
    2    9   63     -1.95      0.00
    4    9   63      5.77      0.00
    6    9   63     -0.68      0.00
    8    9   63     15.67      0.00
    1   10   63     -9.07      0.00
    3   10   63     -2.46      0.00
    5   10   63     -7.16      0.00
    7   10   63      0.26      0.00
    9   10   63      8.66      0.00
    0   11   63      1.68      0.00
    2   11   63     -2.33      0.00
    4   11   63     -4.06      0.00
    6   11   63      6.34      0.00
    8   11   63      8.59      0.00
    1   12   63      3.05      0.00
    3   12   63     -8.18      0.00
    5   12   63     -0.14      0.00
    7   12   63     -6.97      0.00
    0   13   63      4.02      0.00
    2   13   63     -8.89      0.00
    4   13   63      1.84      0.00
    6   13   63      0.60      0.00
    1   14   63    -13.30      0.00
    3   14   63     -3.23      0.00
    0    0   64     -9.03      0.00
    0    2   64     -0.21      0.00
    2    2   64      8.75      0.00
    1    3   64     -0.31      0.00
    0    4   64      3.39      0.00
    2    4   64      1.85      0.00
    4    4   64     -7.93      0.00
    1    5   64     -2.04      0.00
    3    5   64      2.86      0.00
    0    6   64     -1.90      0.00
    2    6   64     -6.20      0.00
    4    6   64    -15.24      0.00
    6    6   64    -18.96      0.00
    1    7   64      5.21      0.00
    3    7   64     16.51      0.00
    5    7   64      3.38      0.00
    0    8   64      0.84      0.00
    2    8   64      0.88      0.00
    4    8   64     -7.67      0.00
    6    8   64      0.21      0.00
    8    8   64      1.45      0.00
    1    9   64      1.52      0.00
    3    9   64     -6.39      0.00
    5    9   64     12.46      0.00
    7    9   64     -7.04      0.00
    0   10   64     -3.96      0.00
    2   10   64      6.89      0.00
    4   10   64      7.53      0.00
    6   10   64     -5.56      0.00
    8   10   64     -8.65      0.00
   10   10   64    -12.30      0.00
    1   11   64      6.13      0.00
    3   11   64     -6.22      0.00
    5   11   64    -18.40      0.00
    7   11   64      1.68      0.00
    9   11   64      7.25      0.00
    0   12   64      7.98      0.00
    2   12   64     18.97      0.00
    4   12   64      7.85      0.00
    6   12   64      2.23      0.00
    1   13   64     -0.13      0.00
    3   13   64     -9.50      0.00
    5   13   64     15.38      0.00
    0   14   64      5.36      0.00
    2   14   64     12.46      0.00
    0    1   65     12.28      0.00
    1    2   65     11.37      0.00
    0    3   65    -11.42      0.00
    2    3   65      9.15      0.00
    1    4   65      0.50      0.00
    3    4   65      7.50      0.00
    0    5   65      4.74      0.00
    2    5   65     -1.33      0.00
    4    5   65      0.37      0.00
    1    6   65     -3.86      0.00
    3    6   65     -3.76      0.00
    5    6   65      1.92      0.00
    0    7   65      0.95      0.00
    2    7   65      8.61      0.00
    4    7   65      2.95      0.00
    6    7   65      3.33      0.00
    1    8   65     -1.38      0.00
    3    8   65     -0.28      0.00
    5    8   65      6.47      0.00
    7    8   65     -1.07      0.00
    0    9   65      1.11      0.00
    2    9   65     13.00      0.00
    4    9   65     -5.45      0.00
    6    9   65     10.07      0.00
    8    9   65     -0.70      0.00
    1   10   65      5.30      0.00
    3   10   65      2.60      0.00
    5   10   65     -7.62      0.00
    7   10   65      2.37      0.00
    9   10   65      2.73      0.00
    0   11   65     -0.81      0.00
    2   11   65      3.51      0.00
    4   11   65      0.50      0.00
    6   11   65     -6.33      0.00
    8   11   65      4.02      0.00
    1   12   65      1.87      0.00
    3   12   65      8.49      0.00
    5   12   65     -8.98      0.00
    0   13   65      3.30      0.00
    2   13   65     15.93      0.00
    4   13   65      7.92      0.00
    1    1   66      3.28      0.00
    0    2   66     -3.62      0.00
    1    3   66      1.55      0.00
    3    3   66     -1.48      0.00
    0    4   66     -8.31      0.00
    2    4   66     -3.42      0.00
    1    5   66      8.16      0.00
    3    5   66     -3.03      0.00
    5    5   66      7.80      0.00
    0    6   66      9.21      0.00
    2    6   66      2.18      0.00
    4    6   66      5.57      0.00
    1    7   66     -7.43      0.00
    3    7   66      0.98      0.00
    5    7   66      4.04      0.00
    7    7   66      1.07      0.00
    0    8   66     -0.02      0.00
    2    8   66     -0.30      0.00
    4    8   66     -5.95      0.00
    6    8   66      8.47      0.00
    1    9   66     -0.24      0.00
    3    9   66     -7.34      0.00
    5    9   66      9.06      0.00
    7    9   66     -9.41      0.00
    9    9   66     -7.92      0.00
    0   10   66      7.49      0.00
    2   10   66     -3.79      0.00
    4   10   66      8.95      0.00
    6   10   66    -11.22      0.00
    8   10   66      7.73      0.00
    1   11   66     -2.96      0.00
    3   11   66      6.84      0.00
    5   11   66     -4.55      0.00
    7   11   66     -4.38      0.00
    0   12   66      6.73      0.00
    2   12   66     -9.43      0.00
    4   12   66      4.99      0.00
    1   13   66     -5.52      0.00
    0    1   67      9.30      0.00
    1    2   67     -2.82      0.00
    0    3   67    -11.73      0.00
    2    3   67      1.51      0.00
    1    4   67     -4.84      0.00
    3    4   67     -6.06      0.00
    0    5   67      6.72      0.00
    2    5   67     -6.56      0.00
    4    5   67      0.44      0.00
    1    6   67      1.39      0.00
    3    6   67      6.56      0.00
    5    6   67      7.39      0.00
    0    7   67     -9.62      0.00
    2    7   67     -7.29      0.00
    4    7   67     -0.46      0.00
    6    7   67      7.06      0.00
    1    8   67     -0.83      0.00
    3    8   67     -2.22      0.00
    5    8   67     -2.95      0.00
    7    8   67      6.27      0.00
    0    9   67     11.76      0.00
    2    9   67      5.77      0.00
    4    9   67     -0.02      0.00
    6    9   67    -10.29      0.00
    8    9   67     -3.22      0.00
    1   10   67    -23.22      0.00
    3   10   67     -0.40      0.00
    5   10   67      4.54      0.00
    7   10   67     -1.30      0.00
    0   11   67     -1.17      0.00
    2   11   67      6.01      0.00
    4   11   67     14.84      0.00
    6   11   67     -1.86      0.00
    1   12   67     15.53      0.00
    3   12   67     -0.63      0.00
    0    0   68     -8.14      0.00
    0    2   68     -0.73      0.00
    2    2   68     -3.66      0.00
    1    3   68     -2.24      0.00
    0    4   68     -6.68      0.00
    2    4   68      4.58      0.00
    4    4   68     -0.22      0.00
    1    5   68      0.90      0.00
    3    5   68      2.12      0.00
    0    6   68      2.88      0.00
    2    6   68     12.69      0.00
    4    6   68      1.16      0.00
    6    6   68     -2.14      0.00
    1    7   68     -1.43      0.00
    3    7   68     11.56      0.00
    5    7   68     -0.24      0.00
    0    8   68     -7.54      0.00
    2    8   68     -6.24      0.00
    4    8   68     -9.42      0.00
    6    8   68      1.66      0.00
    8    8   68     -1.92      0.00
    1    9   68     -3.91      0.00
    3    9   68    -13.75      0.00
    5    9   68      1.13      0.00
    7    9   68      0.86      0.00
    0   10   68      0.97      0.00
    2   10   68     -3.87      0.00
    4   10   68     -0.44      0.00
    6   10   68      7.65      0.00
    1   11   68      7.97      0.00
    3   11   68      1.19      0.00
    0   12   68    -15.97      0.00
    0    1   69      7.09      0.00
    1    2   69     -9.29      0.00
    0    3   69     -3.98      0.00
    2    3   69     -0.54      0.00
    1    4   69      9.33      0.00
    3    4   69     -1.07      0.00
    0    5   69     -3.13      0.00
    2    5   69      6.61      0.00
    4    5   69     -4.67      0.00
    1    6   69     -5.45      0.00
    3    6   69      4.41      0.00
    5    6   69      7.65      0.00
    0    7   69    -15.05      0.00
    2    7   69     -9.50      0.00
    4    7   69    -10.50      0.00
    6    7   69    -12.70      0.00
    1    8   69      5.25      0.00
    3    8   69     -3.31      0.00
    5    8   69      1.07      0.00
    7    8   69      4.13      0.00
    0    9   69     -7.29      0.00
    2    9   69     -1.45      0.00
    4    9   69    -13.14      0.00
    6    9   69     -2.73      0.00
    1   10   69     -9.06      0.00
    3   10   69      0.24      0.00
    5   10   69     -0.59      0.00
    0   11   69     -5.88      0.00
    2   11   69     13.47      0.00
    1    1   70     -6.49      0.00
    0    2   70      1.93      0.00
    1    3   70      3.30      0.00
    3    3   70     -9.96      0.00
    0    4   70     -2.81      0.00
    2    4   70      1.43      0.00
    1    5   70      0.12      0.00
    3    5   70     -5.92      0.00
    5    5   70      5.25      0.00
    0    6   70     -4.23      0.00
    2    6   70      4.81      0.00
    4    6   70      3.34      0.00
    1    7   70     -4.58      0.00
    3    7   70     -1.75      0.00
    5    7   70      3.04      0.00
    7    7   70     -3.26      0.00
    0    8   70      6.32      0.00
    2    8   70     -9.85      0.00
    4    8   70     -6.93      0.00
    6    8   70      9.17      0.00
    1    9   70      5.03      0.00
    3    9   70    -12.27      0.00
    5    9   70     -1.74      0.00
    0   10   70     14.28      0.00
    2   10   70      3.58      0.00
    0    1   71      1.07      0.00
    1    2   71     -8.31      0.00
    0    3   71      6.25      0.00
    2    3   71      0.37      0.00
    1    4   71     11.76      0.00
    3    4   71      6.04      0.00
    0    5   71      0.14      0.00
    2    5   71     -9.78      0.00
    4    5   71     -0.51      0.00
    1    6   71     -5.73      0.00
    3    6   71     -5.65      0.00
    5    6   71      3.59      0.00
    0    7   71     -6.48      0.00
    2    7   71      2.98      0.00
    4    7   71      6.46      0.00
    6    7   71      4.60      0.00
    1    8   71     16.87      0.00
    3    8   71     18.74      0.00
    5    8   71      5.04      0.00
    0    9   71     -8.37      0.00
    2    9   71     -3.76      0.00
    0    0   72     13.84      0.00
    0    2   72     -5.47      0.00
    2    2   72      1.47      0.00
    1    3   72    -15.16      0.00
    0    4   72      3.95      0.00
    2    4   72     -0.71      0.00
    4    4   72    -14.56      0.00
    1    5   72      9.68      0.00
    3    5   72     -9.58      0.00
    0    6   72     -6.70      0.00
    2    6   72     11.10      0.00
    4    6   72    -10.11      0.00
    6    6   72     -3.11      0.00
    1    7   72      8.37      0.00
    3    7   72     17.90      0.00
    5    7   72      0.72      0.00
    0    8   72      0.17      0.00
    2    8   72     -3.87      0.00
    0    1   73      5.95      0.00
    1    2   73     -4.59      0.00
    0    3   73      4.59      0.00
    2    3   73     11.65      0.00
    1    4   73      7.38      0.00
    3    4   73    -11.21      0.00
    0    5   73      6.39      0.00
    2    5   73      4.79      0.00
    4    5   73     -7.39      0.00
    1    6   73     -3.35      0.00
    3    6   73     -7.27      0.00
    5    6   73      0.34      0.00
    0    7   73      4.52      0.00
    2    7   73     14.17      0.00
    1    1   74     -7.39      0.00
    0    2   74     -1.88      0.00
    1    3   74      1.37      0.00
    3    3   74      2.40      0.00
    0    4   74     -3.65      0.00
    2    4   74      4.84      0.00
    1    5   74      2.82      0.00
    3    5   74      0.60      0.00
    0    6   74     -4.47      0.00
    2    6   74     -9.88      0.00
    0    1   75      6.54      0.00
    1    2   75     -7.78      0.00
    0    3   75      4.59      0.00
    2    3   75      3.03      0.00
    1    4   75     -4.12      0.00
    3    4   75     14.12      0.00
    0    5   75      1.94      0.00
    2    5   75    -10.15      0.00
    0    0   76     14.44      0.00
    0    2   76     -7.37      0.00
    2    2   76     -2.47      0.00
    1    3   76     -0.05      0.00
   14   22    0     -3.95      0.00
   10   24    0     -6.13      0.00
    0    1    1     90.16      0.00
   18   19    1     -5.96      0.00
   14   22    2     -4.86      0.00
   10   24    2      7.36      0.00
   14   22    4      0.16      0.00
   10   24    4      8.69      0.00
    7   25    4     -5.40      0.00
   12   23    5      2.97      0.00
   14   22    6     -7.54      0.00
   10   24    6     11.21      0.00
    7   25    6     -6.93      0.00
   12   23    7      1.40      0.00
   10   24    8     -1.83      0.00
    7   25    8      6.80      0.00
   12   23    9    -16.60      0.00
   15   21   10     -4.22      0.00
    7   25   10      8.83      0.00
    6   25   11    -12.33      0.00
   15   21   12     -0.97      0.00
    9   24   13      8.93      0.00
    6   25   13      9.47      0.00
   16   20   14     -6.03      0.00
   13   22   15     -4.35      0.00
    9   24   15     -2.27      0.00
   18   18   16     -9.62      0.00
   17   19   16      9.37      0.00
   16   20   16      2.73      0.00
   11   23   16     -1.22      0.00
    5   25   16     -7.79      0.00
    8   24   18      3.40      0.00
   14   21   19      1.85      0.00
    4   25   19     11.37      0.00
    3   25   20      2.61      0.00
   15   20   21     -2.18      0.00
   10   23   21    -19.74      0.00
    7   24   21      4.56      0.00
    0   25   21     -4.51      0.00
    2   25   21    -13.86      0.00
   12   22   22     11.62      0.00
    1   25   22     11.52      0.00
   16   19   23     -6.52      0.00
   13   21   24      1.34      0.00
    9   23   24     22.64      0.00
    6   24   24     -0.17      0.00
   17   18   25     -0.51      0.00
   11   22   25    -10.03      0.00
    8   23   27    -12.79      0.00
    5   24   27     -5.04      0.00
   15   19   28     10.87      0.00
    4   24   28     10.85      0.00
   12   21   29     -6.61      0.00
    3   24   29    -17.77      0.00
   17   17   30    -33.40      0.00
   16   18   30     -5.43      0.00
    7   23   30     -1.03      0.00
    0   24   30    -12.38      0.00
    2   24   30     -0.95      0.00
   13   20   31     -4.84      0.00
    9   22   31     -4.31      0.00
    6   23   31      1.41      0.00
   11   21   32     -0.32      0.00
   14   19   33    -17.94      0.00
   12   20   34      2.54      0.00
    8   22   34     -0.77      0.00
   10   21   35      1.92      0.00
   13   19   36      4.03      0.00
    1   23   36     -9.18      0.00
   11   20   37      3.61      0.00
   15   17   38      5.02      0.00
   12   19   39      1.48      0.00
    8   21   39      6.13      0.00
    5   22   39     -3.24      0.00
   10   20   40     -4.75      0.00
    4   22   40     -6.79      0.00
   14   17   41     14.43      0.00
    1   22   41      5.26      0.00
   11   19   42      3.59      0.00
   13   17   44      4.46      0.00
   11   18   45     -8.23      0.00
    7   20   45     -1.01      0.00
    2   21   45      4.54      0.00
    9   19   46     -3.54      0.00
    6   20   46      9.58      0.00
    1   21   46     -0.02      0.00
   13   16   47     17.31      0.00
    8   19   47      0.14      0.00
    5   20   47    -10.41      0.00
    4   20   48      5.67      0.00
    9   18   49     -0.77      0.00
    1   20   49      9.09      0.00
    3   20   49     11.31      0.00
   13   15   50     -2.67      0.00
   11   16   51      0.85      0.00
    4   19   51     -5.83      0.00
    9   17   52      9.31      0.00
    3   19   52     -2.00      0.00
    8   17   53      1.98      0.00
    0   19   53     -0.82      0.00
   11   15   54      2.70      0.00
    9   16   55     -0.87      0.00
    3   18   55     -7.03      0.00
    8   16   56      9.95      0.00
    0   18   56      5.36      0.00
    7   16   57      2.94      0.00
    4   17   57      1.21      0.00
   11   13   58    -10.16      0.00
   10   14   58      3.09      0.00
    6   16   58     -0.43      0.00
    1   17   58    -14.08      0.00
    3   17   58     -3.48      0.00
    9   14   59      2.90      0.00
    5   16   59     -9.37      0.00
    4   16   60     -4.65      0.00
    1   16   61    -12.57      0.00
   11   11   62    -28.36      0.00
   10   12   62     -0.21      0.00
    3   15   62      4.59      0.00
   10   11   63      8.45      0.00
    9   12   63     -8.17      0.00
    5   14   63     -1.35      0.00
    0   15   63    -10.06      0.00
    2   15   63      3.70      0.00
    8   12   64    -12.57      0.00
    4   14   64     -1.76      0.00
    7   12   65      1.79      0.00
    1   14   65      1.87      0.00
    6   12   66      4.21      0.00
    3   13   66    -13.83      0.00
    5   12   67     -3.75      0.00
    0   13   67      2.07      0.00
    5   11   68     11.00      0.00
    2   12   68      1.50      0.00
    4   11   69     -3.06      0.00
    4   10   70      7.86      0.00
    1   11   70    -16.59      0.00
    4    9   71      2.05      0.00
    1   10   71      1.91      0.00
    4    8   72     -1.26      0.00
    1    9   72     15.39      0.00
    3    9   72     -0.57      0.00
    4    7   73      8.77      0.00
    1    8   73     -0.77      0.00
    3    8   73      0.72      0.00
    5    5   74      3.98      0.00
    4    6   74     -4.06      0.00
    1    7   74     -2.93      0.00
    1    6   75     -7.24      0.00
    0    4   76     -1.82      0.00
    2    4   76      9.60      0.00
    0    0    0      0.00      0.00
# SQUEEZE RESULTS (Version =  30715)
# Note: Data are Listed for all Voids in the P1 Unit Cell
# i.e. Centre of Gravity, Solvent Accessible Volume,
# Recovered number of Electrons in the Void and
# Details about the Squeezed Material
loop_
  _platon_squeeze_void_nr
  _platon_squeeze_void_average_x
  _platon_squeeze_void_average_y
  _platon_squeeze_void_average_z
  _platon_squeeze_void_volume
  _platon_squeeze_void_count_electrons
  _platon_squeeze_void_content
   1 -0.062  0.238  0.055     17646      3357 ' '
# Missing Reflections Below sin(th)/lambda = 0.25
loop_
  _platon_missing_refln_index_h
  _platon_missing_refln_index_k
  _platon_missing_refln_index_l
  _platon_missing_refln_theta
    0    1    1     1.075
_platon_squeeze_void_probe_radius                  1.20
_platon_squeeze_details
)
TITL wpp7      I 41/a m d   R = 0.12
CELL   20.0090   20.0090   59.0290     90.00     90.00     90.00
SPGR I41/amd
# Solvent Accessible Volume =   17779.8
# Electrons Found in S.A.V. =    3335.7
# Note: Atoms in Void as Cxxx and Qxxx all others
Q101 0.316 0.754 0.246 !       1.98 eA-3
Q102 0.500 0.230 0.150 !       1.97 eA-3
Q103 0.184 0.756 0.238 !       1.60 eA-3
C104 0.500 0.515 0.130 !       1.48 eA-3
C105 1.000 0.265 0.060 !       1.47 eA-3
C106 0.881 0.747 0.016 !       1.39 eA-3
C107 0.500 0.515 0.114 !       1.35 eA-3
C108 1.000 0.469 0.118 !       1.21 eA-3
C109 0.321 0.246 0.066 !       1.16 eA-3
C110 1.000 0.552 0.094 !       1.14 eA-3
C111 0.674 0.753 0.152 !       1.13 eA-3
C112 1.000 0.859 0.223 !       1.10 eA-3
C113 0.846 0.750 0.004 !       1.10 eA-3
C114 0.780 0.014 0.249 !       1.05 eA-3
C115 0.477 0.562 0.119 !       1.04 eA-3
C116 0.705 0.253 0.043 !       1.00 eA-3
C117 1.000 0.939 0.245 !       0.98 eA-3
C118 0.256 0.751 0.148 !       0.97 eA-3
C119 0.500 0.498 0.219 !       0.96 eA-3
Q120 0.955 0.832 0.008 !       0.96 eA-3
C121 0.879 0.753 0.164 !       0.94 eA-3
C122 0.249 0.923 0.008 !       0.94 eA-3
C123 0.219 0.753 0.137 !       0.93 eA-3
C124 0.500 0.472 0.175 !       0.93 eA-3
Q125 1.000 0.500 0.000 !       0.93 eA-3
C126 0.409 0.742 0.187 !       0.93 eA-3
C127 0.781 0.296 0.142 !       0.90 eA-3
C128 1.000 0.933 0.230 !       0.87 eA-3
C129 1.000 0.799 0.069 !       0.86 eA-3
C130 0.792 0.255 0.098 !       0.84 eA-3
C131 0.394 0.748 0.172 !       0.84 eA-3
C132 1.000 0.240 0.031 !       0.82 eA-3
Q133 1.000 0.889 0.024 !       0.81 eA-3
C134 0.796 0.034 0.233 !       0.81 eA-3
C135 0.133 0.252 0.102 !       0.80 eA-3
C136 0.716 0.707 0.129 !       0.80 eA-3
C137 0.651 0.219 0.223 !       0.80 eA-3
C138 0.261 0.278 0.146 !       0.80 eA-3
C139 0.253 0.794 0.065 !       0.79 eA-3
C140 0.280 0.748 0.086 !       0.79 eA-3
C141 1.000 0.998 0.183 !       0.79 eA-3
C142 0.191 0.188 0.137 !       0.79 eA-3
C143 0.333 0.749 0.137 !       0.78 eA-3
C144 0.024 0.597 0.094 !       0.78 eA-3
C145 0.168 0.753 0.047 !       0.78 eA-3
C146 0.974 0.431 0.121 !       0.77 eA-3
C147 0.234 0.126-0.001 !       0.77 eA-3
C148 0.202 0.661 0.120 !       0.77 eA-3
C149 0.298 0.839 0.380 !       0.77 eA-3
C150 0.976 0.171 0.075 !       0.76 eA-3
C151 0.038 0.597 0.239 !       0.76 eA-3
C152 0.335 0.246 0.227 !       0.75 eA-3
C153 0.712 0.748 0.074 !       0.75 eA-3
C154 0.079 0.671 0.160 !       0.74 eA-3
C155 0.500 0.060 0.219 !       0.74 eA-3
C156 0.500 0.408 0.041 !       0.73 eA-3
C157 0.706 0.832 0.117 !       0.73 eA-3
C158 0.234 0.810 0.135 !       0.73 eA-3
C159 0.663 0.249 0.188 !       0.72 eA-3
C160 0.282 0.703 0.098 !       0.72 eA-3
C161 1.000 0.316 0.055 !       0.72 eA-3
C162 0.671 0.749 0.078 !       0.72 eA-3
Q163 0.793 0.954 0.084 !       0.72 eA-3
C164 0.673 0.530 0.028 !       0.72 eA-3
C165 0.759 0.807 0.125 !       0.71 eA-3
C166 0.741 0.693 0.375 !       0.71 eA-3
C167 1.000 0.751 0.059 !       0.71 eA-3
C168 0.500 0.455 0.418 !       0.71 eA-3
C169 1.000 0.045 0.082 !       0.71 eA-3
C170 0.500 0.285 0.225 !       0.70 eA-3
C171 0.766 0.670 0.386 !       0.70 eA-3
C172 0.289 0.721 0.060 !       0.70 eA-3
C173 0.500 0.746 0.109 !       0.70 eA-3
C174 0.981 0.122 0.085 !       0.70 eA-3
C175 1.000 0.578 0.121 !       0.70 eA-3
C176 0.031 0.836 0.074 !       0.69 eA-3
C177 0.443 0.752 0.168 !       0.69 eA-3
C178 0.046 0.827 0.175 !       0.69 eA-3
Q179 0.667 0.559 0.174 !       0.69 eA-3
C180 0.969 0.988 0.169 !       0.69 eA-3
C181 1.000 0.189 0.215 !       0.69 eA-3
Q182 0.140 0.469 0.046 !       0.68 eA-3
C183 0.207 0.750 0.035 !       0.68 eA-3
C184 0.518 0.747 0.023 !       0.68 eA-3
C185 0.967 0.842 0.094 !       0.68 eA-3
C186 0.500 0.382 0.014 !       0.68 eA-3
C187 1.000 0.249 0.090 !       0.67 eA-3
C188 0.500 0.073 0.419 !       0.67 eA-3
C189 0.500 0.452 0.022 !       0.67 eA-3
C190 0.271 0.247 0.172 !       0.67 eA-3
C191 0.500 0.749 0.141 !       0.67 eA-3
C192 0.955 0.253 0.039 !       0.67 eA-3
C193 0.878 0.957 0.240 !       0.67 eA-3
C194 0.341 0.218 0.238 !       0.67 eA-3
C195 0.230 0.689 0.029 !       0.66 eA-3
C196 0.206 0.246 0.027 !       0.66 eA-3
C197 0.671 0.190 0.205 !       0.66 eA-3
C198 1.000 0.662 0.203 !       0.66 eA-3
C199 0.046 0.719 0.066 !       0.65 eA-3
)
;
_shelx_fab_checksum              74751
loop_
_space_group_symop_operation_xyz
'x, y, z'
'-x, -y+1/2, z'
'x, -y, -z'
'-x, y+1/2, -z'
'-y+1/4, -x+1/4, -z+3/4'
'y+1/4, x+3/4, -z+1/4'
'y+1/4, -x+1/4, z+3/4'
'-y+1/4, x+3/4, z+1/4'
'x+1/2, y+1/2, z+1/2'
'-x+1/2, -y+1, z+1/2'
'x+1/2, -y+1/2, -z+1/2'
'-x+1/2, y+1, -z+1/2'
'-y+3/4, -x+3/4, -z+5/4'
'y+3/4, x+5/4, -z+3/4'
'y+3/4, -x+3/4, z+5/4'
'-y+3/4, x+5/4, z+3/4'
'-x, -y, -z'
'x, y-1/2, -z'
'-x, y, z'
'x, -y-1/2, z'
'y-1/4, x-1/4, z-3/4'
'-y-1/4, -x-3/4, z-1/4'
'-y-1/4, x-1/4, -z-3/4'
'y-1/4, -x-3/4, -z-1/4'
'-x+1/2, -y+1/2, -z+1/2'
'x+1/2, y, -z+1/2'
'-x+1/2, y+1/2, z+1/2'
'x+1/2, -y, z+1/2'
'y+1/4, x+1/4, z-1/4'
'-y+1/4, -x-1/4, z+1/4'
'-y+1/4, x+1/4, -z-1/4'
'y+1/4, -x-1/4, -z+1/4'
loop_
_atom_site_label
_atom_site_type_symbol
_atom_site_fract_x
_atom_site_fract_y
_atom_site_fract_z
_atom_site_U_iso_or_equiv
_atom_site_adp_type
_atom_site_occupancy
_atom_site_site_symmetry_order
_atom_site_calc_flag
_atom_site_refinement_flags_posn
_atom_site_refinement_flags_adp
_atom_site_refinement_flags_occupancy
Cu1 Cu 1.0000 0.93485(4) 1.00347(2) 0.0622(3) Uani 1 2 d S TU P
Cu2 Cu 0.5000 0.7500 0.89737(2) 0.0552(3) Uani 1 4 d S TU P
O1 O 0.93206(17) 0.93276(18) 0.97972(5) 0.0870(10) Uani 1 1 d . . .
O2 O 0.93205(17) 1.04575(18) 0.97380(5) 0.0832(10) Uani 1 1 d . . .
O3 O 0.56880(15) 0.81880(15) 0.89398(5) 0.0737(9) Uani 1 1 d . . .
O4 O 0.5000 0.7500 0.93333(14) 0.1266(12) Uani 1 4 d S TU P
H4A H 0.5261 0.7759 0.9405 0.152 Uiso 0.25 1 d R U P
H4B H 0.4739 0.7240 0.9405 0.152 Uiso 0.25 1 d R U P
O5 O 1.0000 0.8320(3) 1.00989(9) 0.1266(12) Uani 1 2 d S TU P
H5A H 0.9740 0.8063 1.0025 0.152 Uiso 0.5 1 d R U P
H5B H 1.0260 0.8159 1.0199 0.152 Uiso 0.5 1 d R U P
C1 C 0.9133(3) 0.9864(3) 0.96954(8) 0.0801(15) Uani 1 1 d . . .
C2 C 0.8622(2) 0.9776(3) 0.95076(7) 0.0812(14) Uani 1 1 d . . .
C3 C 0.8413(3) 1.0314(3) 0.93873(8) 0.0952(17) Uani 1 1 d . . .
H3 H 0.8559 1.0740 0.9427 0.114 Uiso 1 1 calc R U .
C4 C 0.7978(3) 1.0230(3) 0.92034(9) 0.1040(19) Uani 1 1 d . U .
H4 H 0.7845 1.0603 0.9121 0.125 Uiso 1 1 calc R U .
C5 C 0.7742(3) 0.9607(3) 0.91413(8) 0.0844(15) Uani 1 1 d . U .
C6 C 0.7957(3) 0.9065(3) 0.92724(8) 0.0989(18) Uani 1 1 d . . .
H6 H 0.7800 0.8640 0.9238 0.119 Uiso 1 1 calc R U .
C7 C 0.8395(3) 0.9142(3) 0.94524(8) 0.0985(18) Uani 1 1 d . . .
H7 H 0.8536 0.8772 0.9535 0.118 Uiso 1 1 calc R U .
C8 C 0.7312(3) 0.9509(3) 0.89404(8) 0.0791(14) Uani 1 1 d . . .
C9 C 0.7389(2) 0.9889(2) 0.8750 0.087(2) Uani 1 2 d S T P
H9 H 0.7717 1.0217 0.8750 0.104 Uiso 1 2 calc R U P
C10 C 0.6825(2) 0.9036(3) 0.89394(7) 0.0790(14) Uani 1 1 d . . .
H10 H 0.6756 0.8777 0.9068 0.095 Uiso 1 1 calc R U .
C11 C 0.6431(2) 0.8931(2) 0.8750 0.0690(17) Uani 1 2 d S T P
C12 C 0.5897(2) 0.8397(2) 0.8750 0.0697(17) Uani 1 2 d S T P
loop_
_atom_site_aniso_label
_atom_site_aniso_U_11
_atom_site_aniso_U_22
_atom_site_aniso_U_33
_atom_site_aniso_U_23
_atom_site_aniso_U_13
_atom_site_aniso_U_12
Cu1 0.0770(6) 0.0616(5) 0.0479(4) -0.0032(3) 0.000 0.000
Cu2 0.0647(7) 0.0615(7) 0.0394(5) 0.000 0.000 0.000
O1 0.103(3) 0.091(3) 0.067(2) 0.0010(18) -0.0171(19) -0.017(2)
O2 0.096(3) 0.087(2) 0.067(2) 0.0034(18) -0.0148(18) -0.004(2)
O3 0.082(2) 0.082(2) 0.0569(19) 0.0105(16) -0.0078(15) -0.0198(17)
O4 0.170(2) 0.0749(10) 0.135(2) 0.000 0.000 0.000
O5 0.170(2) 0.0749(10) 0.135(2) 0.000 0.000 0.000
C1 0.075(3) 0.116(5) 0.050(3) -0.004(3) 0.007(2) -0.007(3)
C2 0.084(3) 0.108(4) 0.052(3) 0.010(3) -0.011(2) -0.016(3)
C3 0.120(5) 0.089(4) 0.077(4) 0.008(3) -0.033(3) -0.026(3)
C4 0.129(5) 0.090(3) 0.094(4) 0.024(3) -0.037(4) -0.029(3)
C5 0.091(4) 0.089(3) 0.073(3) 0.017(3) -0.016(3) -0.023(3)
C6 0.120(5) 0.094(4) 0.082(4) 0.009(3) -0.033(3) -0.030(4)
C7 0.131(5) 0.096(4) 0.068(3) 0.014(3) -0.029(3) -0.030(4)
C8 0.088(3) 0.086(3) 0.064(3) 0.017(3) -0.019(3) -0.027(3)
C9 0.096(4) 0.096(4) 0.069(5) 0.018(3) -0.018(3) -0.036(4)
C10 0.083(3) 0.097(4) 0.056(3) 0.016(2) -0.017(2) -0.014(3)
C11 0.072(3) 0.072(3) 0.063(4) 0.008(2) -0.008(2) -0.014(3)
C12 0.071(3) 0.071(3) 0.067(4) 0.013(2) -0.013(2) 0.001(3)
loop_
_atom_type_symbol
_atom_type_description
_atom_type_scat_dispersion_real
_atom_type_scat_dispersion_imag
_atom_type_scat_source
C C 0.0033 0.0016 'International Tables Vol C Tables 4.2.6.8 and 6.1.1.4'
H H 0.0000 0.0000 'International Tables Vol C Tables 4.2.6.8 and 6.1.1.4'
O O 0.0106 0.0060 'International Tables Vol C Tables 4.2.6.8 and 6.1.1.4'
N N 0.0061 0.0033 'International Tables Vol C Tables 4.2.6.8 and 6.1.1.4'
Cu Cu 0.3201 1.2651 'International Tables Vol C Tables 4.2.6.8 and 6.1.1.4'
loop_
_geom_angle_atom_site_label_1
_geom_angle_atom_site_label_2
_geom_angle_atom_site_label_3
_geom_angle
_geom_angle_site_symmetry_1
_geom_angle_site_symmetry_3
O2 Cu1 O2 88.4(2) 17_777 3_577
O2 Cu1 O1 90.75(14) 17_777 19_755
O2 Cu1 O1 169.67(15) 3_577 19_755
O2 Cu1 O1 169.67(15) 17_777 .
O2 Cu1 O1 90.75(14) 3_577 .
O1 Cu1 O1 88.2(2) 19_755 .
O2 Cu1 O5 94.08(15) 17_777 .
O2 Cu1 O5 94.08(15) 3_577 .
O1 Cu1 O5 96.25(16) 19_755 .
O1 Cu1 O5 96.25(16) . .
O2 Cu1 Cu1 84.85(11) 17_777 17_777
O2 Cu1 Cu1 84.85(11) 3_577 17_777
O1 Cu1 Cu1 84.82(11) 19_755 17_777
O1 Cu1 Cu1 84.82(11) . 17_777
O5 Cu1 Cu1 178.50(16) . 17_777
O3 Cu2 O3 89.40(18) 2_665 20_575
O3 Cu2 O3 89.41(18) 2_665 19_655
O3 Cu2 O3 168.28(17) 20_575 19_655
O3 Cu2 O3 168.27(17) 2_665 .
O3 Cu2 O3 89.40(19) 20_575 .
O3 Cu2 O3 89.40(18) 19_655 .
O3 Cu2 O4 95.86(8) 2_665 .
O3 Cu2 O4 95.86(8) 20_575 .
O3 Cu2 O4 95.86(8) 19_655 .
O3 Cu2 O4 95.87(8) . .
O3 Cu2 Cu2 84.14(8) 2_665 5_666
O3 Cu2 Cu2 84.14(8) 20_575 5_666
O3 Cu2 Cu2 84.14(8) 19_655 5_666
O3 Cu2 Cu2 84.13(8) . 5_666
O4 Cu2 Cu2 180.0 . 5_666
C1 O1 Cu1 121.4(3) . .
C1 O2 Cu1 121.9(3) . 17_777
C12 O3 Cu2 123.7(3) . .
Cu2 O4 H4A 120.0 . .
Cu2 O4 H4B 120.0 . .
H4A O4 H4B 120.0 . .
Cu1 O5 H5A 120.1 . .
Cu1 O5 H5B 119.9 . .
H5A O5 H5B 120.0 . .
O2 C1 O1 126.9(5) . .
O2 C1 C2 116.9(5) . .
O1 C1 C2 116.2(5) . .
C3 C2 C7 120.2(5) . .
C3 C2 C1 119.8(5) . .
C7 C2 C1 119.9(5) . .
C2 C3 C4 120.1(5) . .
C2 C3 H3 120.0 . .
C4 C3 H3 120.0 . .
C5 C4 C3 121.7(5) . .
C5 C4 H4 119.1 . .
C3 C4 H4 119.1 . .
C4 C5 C6 116.5(5) . .
C4 C5 C8 122.0(5) . .
C6 C5 C8 121.4(5) . .
C7 C6 C5 122.2(5) . .
C7 C6 H6 118.9 . .
C5 C6 H6 118.9 . .
C2 C7 C6 119.3(5) . .
C2 C7 H7 120.4 . .
C6 C7 H7 120.4 . .
C10 C8 C9 117.7(5) . .
C10 C8 C5 120.8(4) . .
C9 C8 C5 121.5(5) . .
C8 C9 C8 123.6(7) . 14_446
C8 C9 H9 118.2 . .
C8 C9 H9 118.2 14_446 .
C8 C10 C11 121.1(4) . .
C8 C10 H10 119.5 . .
C11 C10 H10 119.5 . .
C10 C11 C10 118.8(6) 14_446 .
C10 C11 C12 120.6(3) 14_446 .
C10 C11 C12 120.6(3) . .
O3 C12 O3 124.4(6) . 14_446
O3 C12 C11 117.8(3) . .
O3 C12 C11 117.8(3) 14_446 .
loop_
_geom_bond_atom_site_label_1
_geom_bond_atom_site_label_2
_geom_bond_distance
_geom_bond_site_symmetry_2
Cu1 O2 1.949(3) 17_777
Cu1 O2 1.949(3) 3_577
Cu1 O1 1.953(3) 19_755
Cu1 O1 1.953(3) .
Cu1 O5 2.093(5) .
Cu1 Cu1 2.6391(15) 17_777
Cu2 O3 1.957(3) 2_665
Cu2 O3 1.957(3) 20_575
Cu2 O3 1.957(3) 19_655
Cu2 O3 1.957(3) .
Cu2 O4 2.123(8) .
Cu2 Cu2 2.6408(18) 5_666
O1 C1 1.286(6) .
O2 C1 1.271(6) .
O2 Cu1 1.949(3) 17_777
O3 C12 1.267(4) .
O4 H4A 0.8500 .
O4 H4B 0.8500 .
O5 H5A 0.8500 .
O5 H5B 0.8501 .
C1 C2 1.518(6) .
C2 C3 1.357(7) .
C2 C7 1.385(7) .
C3 C4 1.402(7) .
C3 H3 0.9300 .
C4 C5 1.383(7) .
C4 H4 0.9300 .
C5 C6 1.399(7) .
C5 C8 1.478(6) .
C6 C7 1.387(7) .
C6 H6 0.9300 .
C7 H7 0.9300 .
C8 C10 1.359(6) .
C8 C9 1.365(5) .
C9 C8 1.365(5) 14_446
C9 H9 0.9300 .
C10 C11 1.384(5) .
C10 H10 0.9300 .
C11 C10 1.384(5) 14_446
C11 C12 1.513(8) .
C12 O3 1.267(4) 14_446
loop_
_geom_torsion_atom_site_label_1
_geom_torsion_atom_site_label_2
_geom_torsion_atom_site_label_3
_geom_torsion_atom_site_label_4
_geom_torsion
_geom_torsion_site_symmetry_1
_geom_torsion_site_symmetry_4
Cu1 O2 C1 O1 3.8(7) 17_777 .
Cu1 O2 C1 C2 -177.4(3) 17_777 .
Cu1 O1 C1 O2 -3.6(7) . .
Cu1 O1 C1 C2 177.6(3) . .
O2 C1 C2 C3 3.1(7) . .
O1 C1 C2 C3 -178.0(5) . .
O2 C1 C2 C7 180.0(5) . .
O1 C1 C2 C7 -1.1(7) . .
C7 C2 C3 C4 -1.3(9) . .
C1 C2 C3 C4 175.5(5) . .
C2 C3 C4 C5 1.0(10) . .
C3 C4 C5 C6 0.4(9) . .
C3 C4 C5 C8 -176.7(6) . .
C4 C5 C6 C7 -1.4(9) . .
C8 C5 C6 C7 175.7(5) . .
C3 C2 C7 C6 0.3(9) . .
C1 C2 C7 C6 -176.5(5) . .
C5 C6 C7 C2 1.1(9) . .
C4 C5 C8 C10 -145.9(6) . .
C6 C5 C8 C10 37.2(8) . .
C4 C5 C8 C9 34.1(8) . .
C6 C5 C8 C9 -142.7(5) . .
C10 C8 C9 C8 -0.7(4) . 14_446
C5 C8 C9 C8 179.2(6) . 14_446
C9 C8 C10 C11 1.5(7) . .
C5 C8 C10 C11 -178.5(4) . .
C8 C10 C11 C10 -0.8(4) . 14_446
C8 C10 C11 C12 179.2(4) . .
Cu2 O3 C12 O3 0.00(13) . 14_446
Cu2 O3 C12 C11 180.00(13) . .
C10 C11 C12 O3 -159.9(3) 14_446 .
C10 C11 C12 O3 20.1(3) . .
C10 C11 C12 O3 20.1(3) 14_446 14_446
C10 C11 C12 O3 -159.9(3) . 14_446
