#------------------------------------------------------------------------------
#$Date: 2017-08-03 05:20:19 +0300 (Thu, 03 Aug 2017) $
#$Revision: 199484 $
#$URL: file:///home/coder/svn-repositories/cod/cif/7/04/38/7043893.cif $
#------------------------------------------------------------------------------
#
# This file is available in the Crystallography Open Database (COD),
# http://www.crystallography.net/
#
# All data on this site have been placed in the public domain by the
# contributors.
#
data_7043893
loop_
_publ_author_name
'Wang, Peng'
'Chen, Kai'
'Liu, Qing'
'Wang, Huai-Wei'
'Azam, Mohammad'
'Al-Resayes, Saud I'
'Lu, Yi'
'Sun, Wei-Yin'
_publ_section_title
;
 Fine tuning catalytic and sorption properties of metal-organic frameworks
 via in situ ligand exchange
;
_journal_name_full               'Dalton Trans.'
_journal_paper_doi               10.1039/C7DT02231J
_journal_year                    2017
_chemical_formula_moiety         'C52 H36 Cu3 N2 O17, 8(C3 H7 N O)'
_chemical_formula_sum            'C152 H184 Cu6 N20 O50'
_chemical_formula_weight         3472.42
_space_group_crystal_system      tetragonal
_space_group_IT_number           141
_space_group_name_Hall           '-I 4bd 2'
_space_group_name_H-M_alt        'I 41/a m d'
_symmetry_space_group_name_Hall  '-I 4bd 2'
_symmetry_space_group_name_H-M   'I 41/a m d :2'
_atom_sites_solution_hydrogens   mixed
_audit_creation_method           SHELXL-2014/7
_audit_update_record
;
2017-07-15 deposited with the CCDC.
2017-08-02 downloaded from the CCDC.
;
_cell_angle_alpha                90
_cell_angle_beta                 90
_cell_angle_gamma                90
_cell_formula_units_Z            4
_cell_length_a                   19.627(2)
_cell_length_b                   19.627
_cell_length_c                   60.175(6)
_cell_measurement_reflns_used    2658
_cell_measurement_temperature    293(2)
_cell_measurement_theta_max      17.24
_cell_measurement_theta_min      2.18
_cell_volume                     23181(3)
_computing_cell_refinement       'Bruker SMART'
_computing_data_collection       'Bruker SMART'
_computing_data_reduction        'Bruker SAINT'
_computing_molecular_graphics    'Bruker SHELXTL'
_computing_publication_material  'Bruker SHELXTL'
_computing_structure_refinement  'SHELXL-2014/7 (Sheldrick, 2014)'
_computing_structure_solution    'Bruker SHELXTL'
_diffrn_ambient_temperature      293(2)
_diffrn_measured_fraction_theta_full 0.991
_diffrn_measured_fraction_theta_max 0.991
_diffrn_measurement_device_type  'CCD area detector'
_diffrn_measurement_method       'phi and omega scans'
_diffrn_radiation_type           MoK\a
_diffrn_radiation_wavelength     0.71073
_diffrn_reflns_av_R_equivalents  0.1750
_diffrn_reflns_av_unetI/netI     0.0745
_diffrn_reflns_Laue_measured_fraction_full 0.991
_diffrn_reflns_Laue_measured_fraction_max 0.991
_diffrn_reflns_limit_h_max       23
_diffrn_reflns_limit_h_min       -23
_diffrn_reflns_limit_k_max       23
_diffrn_reflns_limit_k_min       -22
_diffrn_reflns_limit_l_max       73
_diffrn_reflns_limit_l_min       -66
_diffrn_reflns_number            66775
_diffrn_reflns_point_group_measured_fraction_full 0.991
_diffrn_reflns_point_group_measured_fraction_max 0.991
_diffrn_reflns_theta_full        25.242
_diffrn_reflns_theta_max         25.681
_diffrn_reflns_theta_min         1.452
_exptl_absorpt_coefficient_mu    0.603
_exptl_absorpt_correction_T_max  0.7456
_exptl_absorpt_correction_T_min  0.6804
_exptl_absorpt_correction_type   multi-scan
_exptl_absorpt_process_details   sadabs
_exptl_crystal_colour            dark-green
_exptl_crystal_density_diffrn    0.995
_exptl_crystal_description       block
_exptl_crystal_F_000             7240
_exptl_crystal_size_max          0.400
_exptl_crystal_size_mid          0.400
_exptl_crystal_size_min          0.200
_refine_diff_density_max         0.696
_refine_diff_density_min         -0.701
_refine_diff_density_rms         0.081
_refine_ls_extinction_method     none
_refine_ls_goodness_of_fit_ref   1.120
_refine_ls_hydrogen_treatment    constr
_refine_ls_matrix_type           full
_refine_ls_number_parameters     259
_refine_ls_number_reflns         5808
_refine_ls_number_restraints     329
_refine_ls_restrained_S_all      1.159
_refine_ls_R_factor_all          0.1318
_refine_ls_R_factor_gt           0.0738
_refine_ls_shift/su_max          0.001
_refine_ls_shift/su_mean         0.000
_refine_ls_structure_factor_coef Fsqd
_refine_ls_weighting_details
'w=1/[\s^2^(Fo^2^)+(0.1000P)^2^+0.0100P] where P=(Fo^2^+2Fc^2^)/3'
_refine_ls_weighting_scheme      calc
_refine_ls_wR_factor_gt          0.1863
_refine_ls_wR_factor_ref         0.2157
_reflns_Friedel_coverage         0.000
_reflns_number_gt                2920
_reflns_number_total             5808
_reflns_threshold_expression     'I > 2\s(I)'
_cod_data_source_file            c7dt02231j2.cif
_cod_data_source_block           swy5
_cod_original_cell_volume        23181(5)
_cod_database_code               7043893
_shelx_shelxl_version_number     2014/7
_shelx_space_group_comment
;
The symmetry employed for this shelxl refinement is uniquely defined
by the following loop, which should always be used as a source of
symmetry information in preference to the above space-group names.
They are only intended as comments.
;
_shelx_estimated_absorpt_t_min   0.794
_shelx_estimated_absorpt_t_max   0.889
_shelx_res_file
;

    wpp1_sq.res created by SHELXL-2014/7


TITL                                  wpp1 in I4(1)/amd
CELL   0.71073     19.627   19.627   60.175   90.000   90.000   90.000
ZERR        4       0.002    0.0000    0.006    0.000    0.000    0.000
LATT 2
SYMM -X, 0.50000-Y,Z
SYMM X,-Y,-Z
SYMM -X, 0.50000+Y,-Z
SYMM  0.25000-Y, 0.25000-X, 0.75000-Z
SYMM  0.25000+Y, 0.75000+X, 0.25000-Z
SYMM  0.25000+Y, 0.25000-X, 0.75000+Z
SYMM  0.25000-Y, 0.75000+X, 0.25000+Z
SFAC C  H  N  O  Cu
UNIT 608  736  80  200  24
MERG 2
L.S. 5 0   78
ACTA
bond $h
FMAP 2
omit   0   1   7
omit   1   4   7
omit   2   2  16
omit   1   3  12
omit   0   1  21
omit   1   7   2
omit   0   0   4
omit   2   4  14
omit   2   4   4
omit   1   2  13
omit   0   2   4
omit   2   8   0
omit   4   5   5
omit   0   2   0
omit   4   6   4
omit   2   3  17
omit   1   3  10
omit   0   4   4
omit   1   3   4
omit   1   1  18
omit   0   6   6
omit   2   5   5
omit   0   2  18
omit   0   0  12
omit   2   9   1
omit   0   6   4
omit   1   2   9
omit   2   7   7
omit   0   9   1
omit   2   5   3
omit   2   3  15
size .4 .4 .2
omit   2   4   0
omit   2   6   6
omit   2   5   9
omit   2   2   0
omit   4   6   8
omit   3   9   8
omit   1   2  21
omit   3   5  20
omit   1   1  46
omit   1   1   6
omit   0   6   2
omit   2   6   4
omit   0   2   8
omit   4   7   1
omit   4   7  11
omit   2   2  28
omit   0   2   6
omit   0   2  26
omit   1   3  24

list 4
PLAN 200
dang 2.28 0.01 O5A o6a
dang 2.38 0.01 C16A O6a
dang 2.35 0.01 O5A C16A
dang 2.28 0.01 O5c o6c
dang 2.38 0.01 C16c O6c
dang 2.35 0.01 O5c C16c
dang 2.28 0.01 O5b o6b
dang 2.38 c14a c15a C14b c15b C14c C15c
dang 2.38 0.01 C16b O6b
dang 2.35 0.01 O5B C16B
FREE C14C C15C
DFIX 1.48 0.01 C13B C14B C13A C14A C13C C14C
DFIX 1.42 0.01 C14A O5A C14B O5B C14C O5C
DFIX 1.38 C15B O5B
DFIX 1.28 0.01 C15B O6B
DFIX 1.42 0.01 C15B C16B
DFIX 1.38 C15A O5A
DFIX 1.28 C15A O6A
DFIX 1.48 C15C C16C
DFIX 1.38 C15C O5C
DFIX 1.28 C15C O6C
DFIX 1.48 C15C C16C
FLAT 0.1 C14B O5B C15B O6B C16B
FLAT 0.01 C13C C14C O5C C15C C16C
DELU 0.01 $C $O
simu 0.002 Cu2 O3
SIMU 0.01 $C $O
shel 999 0.82
simu 0.002 N1 C13A N1 C13B N1 C13c
ISOR 0.01 C16C O6C C15C C16A
ABIN
WGHT    0.100000    0.010000
FVAR       0.02930
CU1   5    0.183917    0.750000    0.247190    10.50000    0.04150    0.07126 =
         0.04767    0.00000    0.00297    0.00000
CU2   5    0.000000    0.250000    0.353145    10.25000    0.05979    0.05851 =
         0.03401    0.00000    0.00000    0.00000
O1    4    0.299930    0.680787    0.275409    11.00000    0.06242    0.08835 =
         0.06522    0.01067   -0.00130   -0.00100
O2    4    0.187642    0.680208    0.270548    11.00000    0.05936    0.09286 =
         0.06523    0.01897   -0.00025   -0.00649
O3    4    0.000000    0.250000    0.317113    10.25000    0.13826    0.20035 =
         0.05559    0.00000    0.00000    0.00000
AFIX   3
H3A   2    0.026520    0.276520    0.310054    10.25000   -1.20000
H3B   2   -0.026520    0.223480    0.310054    10.25000   -1.20000
AFIX   0
O4    4    0.070310    0.320656    0.356573    11.00000    0.07381    0.08168 =
         0.05453    0.00739   -0.00451   -0.01978
O5A   4    0.000000    0.750000    0.183864    10.12500    0.16729    0.20892 =
         0.14405    0.00000    0.00000    0.00000
O6A   4    0.102474    0.750000    0.165686    10.12500    0.17950    0.27223 =
         0.21675    0.00000    0.00886    0.00000
O5B   4    0.000000    0.750000    0.305576    10.12500    0.10754    0.23435 =
         0.14448    0.00000    0.00000    0.00000
C16B  1   -0.065684    0.750000    0.337965    10.12500    0.14277    0.27863 =
         0.16784    0.00000    0.01616    0.00000
AFIX   3
H16G  2   -0.060026    0.750000    0.353808    10.12500   -1.50000
H16H  2   -0.090476    0.789940    0.333548    10.12500   -1.50000
H16I  2   -0.090476    0.710060    0.333548    10.12500   -1.50000
AFIX   0

PART 2
O5C   4    0.000000    0.555548    0.241877    10.25000    0.20538    0.14795 =
         0.24637   -0.00360    0.00000    0.00000
O6C   4    0.085438    0.485726    0.230498    10.25000    0.25203    0.25122 =
         0.25600   -0.01665    0.03576    0.02224
PART 0
N1    3    0.071946    0.750000    0.244969    10.50000    0.06387    0.11144 =
         0.11839    0.00000   -0.00434    0.00000
C1    1    0.240161    0.660712    0.280137    11.00000    0.06719    0.07812 =
         0.05606    0.00343   -0.00323   -0.00719
C2    1    0.231946    0.614054    0.299020    11.00000    0.07295    0.08738 =
         0.05883    0.01870   -0.00463   -0.01707
C3    1    0.169278    0.589160    0.304923    11.00000    0.07775    0.11395 =
         0.07612    0.03333   -0.01268   -0.02700
AFIX  43
H3    2    0.131659    0.600243    0.296249    11.00000   -1.20000
AFIX   0
C4    1    0.288487    0.592764    0.311592    11.00000    0.07635    0.10821 =
         0.07634    0.02734   -0.01153   -0.02337
AFIX  43
H4    2    0.332128    0.606838    0.307697    11.00000   -1.20000
AFIX   0
C5    1    0.160163    0.548120    0.323345    11.00000    0.08651    0.11473 =
         0.07519    0.03476   -0.01466   -0.03227
AFIX  43
H5    2    0.116475    0.534379    0.327310    11.00000   -1.20000
AFIX   0
C6    1    0.278749    0.550508    0.329898    11.00000    0.08655    0.10952 =
         0.07913    0.03329   -0.01795   -0.02266
AFIX  43
H6    2    0.316226    0.537465    0.338344    11.00000   -1.20000
AFIX   0
C7    1    0.214703    0.527455    0.335829    11.00000    0.08091    0.09672 =
         0.06606    0.02366   -0.01492   -0.02784
C8    1    0.204792    0.483791    0.355778    11.00000    0.08323    0.09514 =
         0.05969    0.01708   -0.01472   -0.02538
C9    1    0.244346    0.494346    0.375000    10.50000    0.09319    0.09319 =
         0.07008    0.01506   -0.01506   -0.03262
AFIX  43
H9    2    0.277851    0.527853    0.375001    10.50000   -1.20000
AFIX   0
C10   1    0.156537    0.432566    0.356260    11.00000    0.08345    0.08720 =
         0.05241    0.00946   -0.01519   -0.02402
AFIX  43
H10   2    0.131443    0.423620    0.343480    11.00000   -1.20000
AFIX   0
C11   1    0.144355    0.394355    0.375000    10.50000    0.07260    0.07260 =
         0.05915    0.01057   -0.01057   -0.01331
C12   1    0.090935    0.340935    0.375000    10.50000    0.06735    0.06735 =
         0.05295    0.00625   -0.00625   -0.00549
PART 1
C13A  1    0.036185    0.750000    0.226599    10.25000    0.06743    0.11364 =
         0.12001    0.00000   -0.00302    0.00000
part 2
AFIX   3
H13A  2    0.060238    0.750000    0.212703    10.12500   -1.20000
AFIX   0
part 1
C14A  1    0.047473    0.750000    0.202032    10.12500    0.11989    0.16348 =
         0.13590    0.00000    0.01037    0.00000
AFIX   3
H14A  2    0.076121    0.789417    0.199340    10.12500   -1.20000
H14B  2    0.076121    0.710583    0.199340    10.12500   -1.20000
AFIX   0
C15A  1    0.037561    0.750000    0.164000    10.12500    0.17944    0.22075 =
         0.15641    0.00000    0.00378    0.00000
C16A  1    0.000000    0.750000    0.144689    10.12500    0.19784    0.21230 =
         0.16715    0.00000    0.00000    0.00000
AFIX   3
H16A  2    0.021157    0.779682    0.134051    10.12500   -1.50000
H16B  2   -0.045366    0.765724    0.147733    10.12500   -1.50000
H16C  2    0.000000    0.704595    0.138789    10.12500   -1.50000
AFIX   0
C13B  1    0.034811    0.750000    0.266499    10.25000    0.06650    0.11384 =
         0.11976    0.00000   -0.00566    0.00000
part 2
AFIX   3
H13B  2    0.059489    0.750000    0.280271    10.12500   -1.20000
AFIX   0
part 1
C14B  1    0.055867    0.750000    0.290362    10.12500    0.08730    0.17512 =
         0.13084    0.00000   -0.01578    0.00000
AFIX   3
H14C  2    0.083603    0.710032    0.293202    10.12500   -1.20000
H14D  2    0.083603    0.789968    0.293202    10.12500   -1.20000
AFIX   0
C15B  1    0.000000    0.750000    0.327629    10.12500    0.13098    0.27009 =
         0.15915    0.00000    0.00000    0.00000
O6B   4    0.055320    0.750000    0.338833    10.12500    0.14684    0.28514 =
         0.17696    0.00000   -0.02431    0.00000
PART 2
C13C  1    0.040858    0.695611    0.244509    10.50000    0.06841    0.11473 =
         0.12084   -0.00033   -0.00435    0.00149
part 1
AFIX   3
H13C  2    0.066657    0.654062    0.244211    10.25000   -1.20000
AFIX   0
part 2
C14C  1    0.020310    0.624428    0.243222    10.25000    0.15430    0.15058 =
         0.20038   -0.00398   -0.00409   -0.01616
AFIX   3
H14E  2    0.064452    0.611905    0.237233    10.25000   -1.20000
H14F  2    0.025393    0.620167    0.259196    10.25000   -1.20000
AFIX   0
C15C  1    0.063718    0.522482    0.246697    10.25000    0.21301    0.18419 =
         0.23565   -0.00362   -0.00112    0.01221
C16C  1    0.054271    0.489132    0.268793    10.25000    0.22077    0.21590 =
         0.22513   -0.00522   -0.02516   -0.01185
AFIX   3
H16D  2    0.085409    0.451537    0.269796    10.25000   -1.50000
H16E  2    0.012608    0.477712    0.276275    10.25000   -1.50000
H16F  2    0.074181    0.528553    0.275650    10.25000   -1.50000
PART 0

AFIX   0
HKLF      4

REM                                   wpp1 in I4(1)/amd
REM R1 =  0.0738 for    2920 Fo > 4sig(Fo)  and  0.1318 for all    5808 data
REM    259 parameters refined using    329 restraints

END

WGHT      0.1435      0.0000

REM Highest difference peak  0.696,  deepest hole -0.701,  1-sigma level  0.081
Q1    1   0.0000  0.4872  0.2883  10.50000  0.05    0.59
Q2    1   0.0000  0.5637  0.2719  10.50000  0.05    0.55
Q3    1   0.0000  0.7935  0.3123  10.50000  0.05    0.54
Q4    1   0.0627  0.6113  0.2442  11.00000  0.05    0.53
Q5    1   0.1460  0.7500  0.1545  10.50000  0.05    0.39
Q6    1   0.0000  0.7500  0.3502  10.25000  0.05    0.38
Q7    1   0.0000  0.1732  0.3124  10.50000  0.05    0.38
Q8    1   0.0000  0.6880  0.1881  10.50000  0.05    0.36
Q9    1   0.0000  0.5712  0.2194  10.50000  0.05    0.36
Q10   1   0.0480  0.7500  0.3173  10.50000  0.05    0.34
Q11   1   0.1420  0.4842  0.2325  11.00000  0.05    0.30
Q12   1  -0.1048  0.7500  0.1411  10.50000  0.05    0.29
Q13   1   0.1037  0.5342  0.2531  11.00000  0.05    0.29
Q14   1   0.1322  0.4823  0.2570  11.00000  0.05    0.29
Q15   1   0.0430  0.6990  0.1826  11.00000  0.05    0.28
Q16   1   0.1300  0.4707  0.2403  11.00000  0.05    0.28
Q17   1   0.0604  0.7500  0.1800  10.50000  0.05    0.28
Q18   1   0.0000  0.6793  0.2417  10.50000  0.05    0.27
Q19   1   0.0000  0.7500  0.2801  10.25000  0.05    0.27
Q20   1   0.0713  0.7500  0.2001  10.50000  0.05    0.27
Q21   1   0.2502  0.5953  0.3030  11.00000  0.05    0.27
Q22   1   0.0415  0.6785  0.1672  11.00000  0.05    0.27
Q23   1   0.0885  0.5613  0.2404  11.00000  0.05    0.27
Q24   1   0.0000  0.8150  0.3337  10.50000  0.05    0.25
Q25   1   0.0000  0.5186  0.2248  10.50000  0.05    0.25
Q26   1   0.0000  0.7500  0.2249  10.25000  0.05    0.23
Q27   1   0.0000  0.4925  0.2392  10.50000  0.05    0.23
Q28   1   0.0255  0.5071  0.2543  11.00000  0.05    0.22
Q29   1   0.1608  0.5323  0.3155  11.00000  0.05    0.22
Q30   1   0.2719  0.5924  0.3321  11.00000  0.05    0.21
Q31   1   0.1194  0.2500  0.2450  10.50000  0.05    0.21
Q32   1   0.2848  0.5549  0.3183  11.00000  0.05    0.20
Q33   1   0.1921  0.5466  0.3366  11.00000  0.05    0.20
Q34   1   0.0000  0.2500  0.2902  10.25000  0.05    0.20
Q35   1  -0.0790  0.7500  0.3587  10.50000  0.05    0.20
Q36   1   0.0576  0.5898  0.2238  11.00000  0.05    0.20
Q37   1   0.1580  0.4134  0.3820  11.00000  0.05    0.20
Q38   1  -0.1327  0.7500  0.3420  10.50000  0.05    0.19
Q39   1   0.1895  0.5089  0.3535  11.00000  0.05    0.18
Q40   1   0.1581  0.4126  0.3418  11.00000  0.05    0.18
Q41   1   0.3462  0.5277  0.3384  11.00000  0.05    0.18
Q42   1   0.1668  0.4783  0.3618  11.00000  0.05    0.18
Q43   1   0.0847  0.4697  0.2125  11.00000  0.05    0.18
Q44   1  -0.0375  0.6868  0.3420  11.00000  0.05    0.18
Q45   1   0.0000  0.5224  0.3086  10.50000  0.05    0.18
Q46   1   0.3224  0.4932  0.3250  11.00000  0.05    0.17
Q47   1   0.0499  0.3150  0.3547  11.00000  0.05    0.17
Q48   1   0.0000  0.6757  0.2765  10.50000  0.05    0.17
Q49   1   0.1318  0.7500  0.2474  10.50000  0.05    0.17
Q50   1   0.0000  0.2500  0.2709  10.25000  0.05    0.17
Q51   1   0.0000  0.1799  0.2818  10.50000  0.05    0.17
Q52   1   0.2743  0.6214  0.3168  11.00000  0.05    0.17
Q53   1   0.0438  0.5184  0.2330  11.00000  0.05    0.17
Q54   1   0.1469  0.7500  0.2216  10.50000  0.05    0.16
Q55   1   0.0617  0.2500  0.3048  10.50000  0.05    0.16
Q56   1   0.2500  0.7500  0.2500  10.25000  0.05    0.16
Q57   1   0.2012  0.5200  0.3239  11.00000  0.05    0.16
Q58   1   0.0000  0.4132  0.1789  10.50000  0.05    0.16
Q59   1   0.0472  0.5192  0.2127  11.00000  0.05    0.16
Q60   1   0.0000  0.6296  0.1447  10.50000  0.05    0.16
Q61   1   0.0000  0.5987  0.1545  10.50000  0.05    0.16
Q62   1   0.0000  0.5822  0.1373  10.50000  0.05    0.16
Q63   1  -0.0414  0.7500  0.3968  10.50000  0.05    0.16
Q64   1   0.0000  0.2500  0.3666  10.25000  0.05    0.15
Q65   1   0.0504  0.4677  0.2173  11.00000  0.05    0.15
Q66   1  -0.0330  0.7500  0.4290  10.50000  0.05    0.15
Q67   1   0.0000  0.6742  0.1529  10.50000  0.05    0.15
Q68   1   0.0195  0.6071  0.1432  11.00000  0.05    0.15
Q69   1   0.0000  0.5801  0.2315  10.50000  0.05    0.15
Q70   1   0.0000  0.6006  0.1235  10.50000  0.05    0.15
Q71   1   0.1170  0.3175  0.2386  11.00000  0.05    0.15
Q72   1  -0.0705  0.8115  0.1491  11.00000  0.05    0.14
Q73   1   0.2159  0.5023  0.3156  11.00000  0.05    0.14
Q74   1   0.0947  0.2500  0.2594  10.50000  0.05    0.14
Q75   1   0.0000  0.7500  0.4068  10.25000  0.05    0.14
Q76   1   0.0000  0.5792  0.1867  10.50000  0.05    0.14
Q77   1   0.2369  0.5494  0.3381  11.00000  0.05    0.14
Q78   1   0.0000  0.5399  0.1334  10.50000  0.05    0.14
Q79   1   0.2481  0.6486  0.3241  11.00000  0.05    0.14
Q80   1   0.0437  0.5702  0.1296  11.00000  0.05    0.14
Q81   1   0.3194  0.5607  0.3510  11.00000  0.05    0.14
Q82   1   0.1050  0.2500  0.2283  10.50000  0.05    0.14
Q83   1   0.1529  0.7104  0.2662  11.00000  0.05    0.13
Q84   1   0.0538  0.3292  0.1835  11.00000  0.05    0.13
Q85   1   0.2187  0.5859  0.3430  11.00000  0.05    0.13
Q86   1   0.0000  0.1801  0.2716  10.50000  0.05    0.13
Q87   1   0.2176  0.4994  0.3635  11.00000  0.05    0.13
Q88   1   0.0255  0.3162  0.2679  11.00000  0.05    0.13
Q89   1   0.0842  0.4288  0.2343  11.00000  0.05    0.13
Q90   1   0.1058  0.5614  0.3370  11.00000  0.05    0.13
Q91   1   0.4330  0.5590  0.3539  11.00000  0.05    0.13
Q92   1   0.0000  0.7021  0.2100  10.50000  0.05    0.13
Q93   1   0.4004  0.4691  0.3540  11.00000  0.05    0.13
Q94   1   0.2460  0.7500  0.3007  10.50000  0.05    0.13
Q95   1  -0.0471  0.7070  0.4168  11.00000  0.05    0.13
Q96   1   0.4697  0.4460  0.3285  11.00000  0.05    0.13
Q97   1   0.0960  0.7144  0.2306  11.00000  0.05    0.13
Q98   1   0.2968  0.5615  0.2814  11.00000  0.05    0.13
Q99   1   0.1143  0.3091  0.2196  11.00000  0.05    0.13
Q100  1   0.1718  0.4700  0.3155  11.00000  0.05    0.13
Q101  1   0.0000  0.6771  0.1235  10.50000  0.05    0.12
Q102  1   0.4343  0.5992  0.3436  11.00000  0.05    0.12
Q103  1   0.0640  0.4782  0.2506  11.00000  0.05    0.12
Q104  1   0.1656  0.5647  0.2827  11.00000  0.05    0.12
Q105  1   0.0000  0.5785  0.1703  10.50000  0.05    0.12
Q106  1   0.1303  0.8336  0.1282  11.00000  0.05    0.12
Q107  1   0.0182  0.3172  0.2226  11.00000  0.05    0.12
Q108  1   0.1072  0.5004  0.3084  11.00000  0.05    0.12
Q109  1   0.3935  0.4419  0.3490  11.00000  0.05    0.12
Q110  1   0.1928  0.4279  0.3523  11.00000  0.05    0.12
Q111  1   0.0000  0.4732  0.3126  10.50000  0.05    0.12
Q112  1   0.3903  0.5609  0.3737  11.00000  0.05    0.12
Q113  1   0.0482  0.6127  0.1322  11.00000  0.05    0.12
Q114  1   0.0803  0.5506  0.3192  11.00000  0.05    0.12
Q115  1   0.0496  0.4606  0.3102  11.00000  0.05    0.12
Q116  1   0.2956  0.3919  0.3204  11.00000  0.05    0.12
Q117  1   0.0599  0.4473  0.1863  11.00000  0.05    0.12
Q118  1   0.0000  0.2025  0.3638  10.50000  0.05    0.11
Q119  1   0.0839  0.3996  0.1880  11.00000  0.05    0.11
Q120  1   0.2022  0.4859  0.3836  11.00000  0.05    0.11
Q121  1   0.2353  0.2852  0.2911  11.00000  0.05    0.11
Q122  1   0.0503  0.7500  0.2623  10.50000  0.05    0.11
Q123  1   0.1979  0.5562  0.3008  11.00000  0.05    0.11
Q124  1   0.4615  0.5771  0.3332  11.00000  0.05    0.11
Q125  1   0.2619  0.5746  0.3875  11.00000  0.05    0.11
Q126  1   0.2486  0.6755  0.3200  11.00000  0.05    0.11
Q127  1   0.4137  0.5083  0.3658  11.00000  0.05    0.11
Q128  1   0.0729  0.2500  0.3647  10.50000  0.05    0.11
Q129  1   0.0000  0.4263  0.3206  10.50000  0.05    0.11
Q130  1   0.1520  0.3639  0.2416  11.00000  0.05    0.11
Q131  1   0.0489  0.5237  0.1881  11.00000  0.05    0.11
Q132  1   0.4253  0.3915  0.3253  11.00000  0.05    0.11
Q133  1   0.1700  0.3633  0.3739  11.00000  0.05    0.10
Q134  1   0.1539  0.5583  0.3491  11.00000  0.05    0.10
Q135  1   0.0719  0.3546  0.2295  11.00000  0.05    0.10
Q136  1   0.1132  0.7500  0.2909  10.50000  0.05    0.10
Q137  1  -0.1002  0.6813  0.3386  11.00000  0.05    0.10
Q138  1   0.0802  0.2843  0.2485  11.00000  0.05    0.10
Q139  1   0.1590  0.6039  0.3146  11.00000  0.05    0.10
Q140  1   0.1893  0.5345  0.2889  11.00000  0.05    0.10
Q141  1   0.0491  0.2500  0.2829  10.50000  0.05    0.10
Q142  1   0.3127  0.5627  0.3750  10.50000  0.05    0.10
Q143  1   0.2500  0.3282  0.2500  10.50000  0.05    0.10
Q144  1   0.0324  0.5296  0.3827  11.00000  0.05    0.10
Q145  1   0.0849  0.5331  0.3798  11.00000  0.05    0.10
Q146  1   0.0669  0.4082  0.1989  11.00000  0.05    0.10
Q147  1   0.2969  0.7089  0.2813  11.00000  0.05    0.10
Q148  1   0.2011  0.4311  0.3247  11.00000  0.05    0.10
Q149  1  -0.0539  0.6406  0.3845  11.00000  0.05    0.10
Q150  1   0.2520  0.4337  0.3131  11.00000  0.05    0.10
Q151  1   0.0000  0.5069  0.3973  10.50000  0.05    0.10
Q152  1   0.3365  0.4182  0.3466  11.00000  0.05    0.10
Q153  1   0.0000  0.3972  0.3067  10.50000  0.05    0.10
Q154  1   0.2801  0.3259  0.3533  11.00000  0.05    0.10
Q155  1   0.0620  0.4310  0.2640  11.00000  0.05    0.09
Q156  1   0.0188  0.4094  0.1910  11.00000  0.05    0.09
Q157  1   0.2477  0.2986  0.2745  11.00000  0.05    0.09
Q158  1   0.1887  0.7500  0.2592  10.50000  0.05    0.09
Q159  1   0.4299  0.4289  0.3587  11.00000  0.05    0.09
Q160  1   0.2102  0.6923  0.1322  11.00000  0.05    0.09
Q161  1   0.2057  0.4230  0.3321  11.00000  0.05    0.09
Q162  1   0.3423  0.6425  0.3163  11.00000  0.05    0.09
Q163  1   0.3893  0.3630  0.3251  11.00000  0.05    0.09
Q164  1   0.1709  0.3402  0.2286  11.00000  0.05    0.09
Q165  1   0.2252  0.7120  0.1295  11.00000  0.05    0.09
Q166  1   0.1877  0.4255  0.2166  11.00000  0.05    0.09
Q167  1  -0.0332  0.6393  0.3865  11.00000  0.05    0.09
Q168  1   0.0699  0.2923  0.2327  11.00000  0.05    0.09
Q169  1   0.2410  0.3767  0.3167  11.00000  0.05    0.09
Q170  1   0.1310  0.6957  0.2420  11.00000  0.05    0.09
Q171  1   0.3299  0.4136  0.3203  11.00000  0.05    0.09
Q172  1   0.2774  0.4609  0.2891  11.00000  0.05    0.09
Q173  1   0.4373  0.4190  0.3407  11.00000  0.05    0.09
Q174  1   0.0000  0.8818  0.3445  10.50000  0.05    0.09
Q175  1   0.1529  0.2500  0.1919  10.50000  0.05    0.09
Q176  1   0.4054  0.4580  0.3261  11.00000  0.05    0.09
Q177  1   0.1785  0.4418  0.2075  11.00000  0.05    0.09
Q178  1   0.0000  0.5496  0.3848  10.50000  0.05    0.09
Q179  1   0.2539  0.4665  0.3239  11.00000  0.05    0.09
Q180  1  -0.0593  0.6301  0.3468  11.00000  0.05    0.09
Q181  1   0.2553  0.2500  0.2918  10.50000  0.05    0.09
Q182  1   0.1175  0.2925  0.2673  11.00000  0.05    0.09
Q183  1   0.3229  0.6649  0.2758  11.00000  0.05    0.09
Q184  1   0.0519  0.5750  0.3175  11.00000  0.05    0.09
Q185  1   0.0705  0.5189  0.3083  11.00000  0.05    0.09
Q186  1   0.0000  0.4430  0.2306  10.50000  0.05    0.09
Q187  1   0.0000  0.4757  0.1869  10.50000  0.05    0.09
Q188  1   0.4684  0.5110  0.3730  11.00000  0.05    0.09
Q189  1   0.2403  0.3109  0.3110  11.00000  0.05    0.09
Q190  1   0.4510  0.5999  0.3238  11.00000  0.05    0.09
Q191  1  -0.1486  0.7316  0.4121  11.00000  0.05    0.09
Q192  1   0.4593  0.5113  0.3384  11.00000  0.05    0.09
Q193  1   0.3654  0.6120  0.3029  11.00000  0.05    0.08
Q194  1   0.1908  0.4130  0.3090  11.00000  0.05    0.08
Q195  1   0.1296  0.6223  0.2595  11.00000  0.05    0.08
Q196  1   0.0615  0.3094  0.2828  11.00000  0.05    0.08
Q197  1   0.4522  0.5015  0.3644  11.00000  0.05    0.08
Q198  1   0.0000  0.4449  0.2599  10.50000  0.05    0.08
Q199  1   0.2346  0.3227  0.2206  11.00000  0.05    0.08
Q200  1   0.3358  0.4434  0.3129  11.00000  0.05    0.08
;
_shelx_res_checksum              21772
_shelx_fab_file
;
    0    2    0    -42.80      0.00
    2    2    0    441.10      0.00
    0    4    0    208.55      0.00
    2    4    0   -192.82      0.00
    4    4    0     93.89      0.00
    0    6    0   -138.95      0.00
    2    6    0     32.28      0.00
    4    6    0    -25.18      0.00
    6    6    0     -4.43      0.00
    0    8    0     35.45      0.00
    2    8    0     -5.26      0.00
    4    8    0     -2.46      0.00
    6    8    0      0.36      0.00
    8    8    0      2.92      0.00
    0   10    0    -28.06      0.00
    2   10    0     14.20      0.00
    4   10    0    -12.57      0.00
    6   10    0     -2.21      0.00
    8   10    0     -3.51      0.00
   10   10    0     -3.16      0.00
    0   12    0     25.77      0.00
    2   12    0    -13.49      0.00
    4   12    0     -1.58      0.00
    6   12    0     -5.66      0.00
    8   12    0      1.99      0.00
   10   12    0     -2.83      0.00
   12   12    0    -12.18      0.00
    0   14    0      9.88      0.00
    2   14    0     14.72      0.00
    4   14    0     10.30      0.00
    6   14    0     -0.51      0.00
    8   14    0     10.56      0.00
   10   14    0      1.12      0.00
   12   14    0    -10.30      0.00
   14   14    0      4.36      0.00
    0   16    0      9.08      0.00
    2   16    0     -0.93      0.00
    4   16    0      9.32      0.00
    6   16    0      4.24      0.00
    8   16    0     -2.81      0.00
   10   16    0     -4.19      0.00
   12   16    0      6.18      0.00
   14   16    0     -0.34      0.00
   16   16    0      5.82      0.00
    0   18    0      1.51      0.00
    2   18    0     -2.22      0.00
    4   18    0      1.38      0.00
    6   18    0     -9.14      0.00
    8   18    0      8.14      0.00
   10   18    0     -0.36      0.00
   12   18    0      1.09      0.00
   14   18    0      6.11      0.00
   16   18    0      1.39      0.00
   18   18    0      3.57      0.00
    0   20    0     12.77      0.00
    2   20    0     -0.85      0.00
    4   20    0      5.56      0.00
    6   20    0     19.10      0.00
    8   20    0     -5.11      0.00
   10   20    0     11.16      0.00
   12   20    0     -6.17      0.00
   14   20    0      2.97      0.00
    0   22    0      4.89      0.00
    2   22    0      9.84      0.00
    4   22    0     10.40      0.00
    6   22    0      1.73      0.00
    8   22    0     -3.29      0.00
   10   22    0     18.30      0.00
   12   22    0      6.58      0.00
    0   24    0     19.87      0.00
    2   24    0      5.84      0.00
    4   24    0     -1.36      0.00
    6   24    0     15.03      0.00
    8   24    0      4.07      0.00
    1    2    1    -61.88      0.00
    0    3    1    -74.46      0.00
    2    3    1    115.68      0.00
    1    4    1      3.39      0.00
    3    4    1      8.49      0.00
    0    5    1    -18.81      0.00
    2    5    1     24.76      0.00
    4    5    1    -12.39      0.00
    1    6    1     -1.93      0.00
    3    6    1     13.48      0.00
    5    6    1     -0.85      0.00
    0    7    1    -11.38      0.00
    2    7    1     -4.68      0.00
    4    7    1    -14.06      0.00
    6    7    1     -2.53      0.00
    1    8    1      0.71      0.00
    3    8    1     -8.85      0.00
    5    8    1      2.04      0.00
    7    8    1    -10.26      0.00
    0    9    1     -2.97      0.00
    2    9    1     18.23      0.00
    4    9    1      2.08      0.00
    6    9    1      7.89      0.00
    8    9    1      2.86      0.00
    1   10    1     -6.81      0.00
    3   10    1      1.14      0.00
    5   10    1     -3.25      0.00
    7   10    1      0.78      0.00
    9   10    1      2.74      0.00
    0   11    1     10.77      0.00
    2   11    1      0.00      0.00
    4   11    1     -2.97      0.00
    6   11    1      1.57      0.00
    8   11    1      0.05      0.00
   10   11    1     -4.44      0.00
    1   12    1      3.28      0.00
    3   12    1      0.22      0.00
    5   12    1      0.77      0.00
    7   12    1     -3.40      0.00
    9   12    1     -0.05      0.00
   11   12    1     11.21      0.00
    0   13    1    -19.58      0.00
    2   13    1     -8.44      0.00
    4   13    1     -4.48      0.00
    6   13    1     -9.49      0.00
    8   13    1     -2.68      0.00
   10   13    1     -0.98      0.00
   12   13    1     -3.07      0.00
    1   14    1      1.79      0.00
    3   14    1      2.27      0.00
    5   14    1     -3.63      0.00
    7   14    1     -2.90      0.00
    9   14    1      0.63      0.00
   11   14    1      3.70      0.00
   13   14    1      0.75      0.00
    0   15    1      2.79      0.00
    2   15    1     -3.20      0.00
    4   15    1     -3.93      0.00
    6   15    1      2.00      0.00
    8   15    1     -8.29      0.00
   10   15    1     -8.55      0.00
   12   15    1      1.41      0.00
   14   15    1      3.61      0.00
    1   16    1      4.50      0.00
    3   16    1     -1.26      0.00
    5   16    1      9.32      0.00
    7   16    1      1.80      0.00
    9   16    1     -5.76      0.00
   11   16    1     -0.88      0.00
   13   16    1     -5.97      0.00
   15   16    1      1.28      0.00
    0   17    1     -5.87      0.00
    2   17    1      1.41      0.00
    4   17    1      3.85      0.00
    6   17    1     -3.15      0.00
    8   17    1     -5.12      0.00
   10   17    1      2.51      0.00
   12   17    1      3.26      0.00
   14   17    1      1.09      0.00
   16   17    1      1.31      0.00
    1   18    1      1.20      0.00
    3   18    1      1.99      0.00
    5   18    1     -0.46      0.00
    7   18    1     -5.97      0.00
    9   18    1     -0.18      0.00
   11   18    1      9.07      0.00
   13   18    1    -12.28      0.00
   15   18    1      0.53      0.00
   17   18    1     -8.19      0.00
    0   19    1    -16.55      0.00
    2   19    1     -6.55      0.00
    4   19    1     -3.39      0.00
    6   19    1      6.95      0.00
    8   19    1      2.85      0.00
   10   19    1     -1.00      0.00
   12   19    1     -6.34      0.00
   14   19    1      5.18      0.00
   16   19    1     -7.54      0.00
    1   20    1      1.73      0.00
    3   20    1      1.39      0.00
    5   20    1     -2.77      0.00
    7   20    1      1.98      0.00
    9   20    1     -2.22      0.00
   11   20    1      6.06      0.00
   13   20    1      5.26      0.00
   15   20    1     -2.08      0.00
    0   21    1     -3.20      0.00
    2   21    1     -0.57      0.00
    4   21    1      4.14      0.00
    6   21    1      6.27      0.00
    8   21    1     -4.44      0.00
   10   21    1     12.44      0.00
   12   21    1      1.06      0.00
   14   21    1     -2.44      0.00
    1   22    1     -2.17      0.00
    3   22    1      7.21      0.00
    5   22    1     -0.14      0.00
    7   22    1     10.13      0.00
    9   22    1      8.28      0.00
   11   22    1      0.56      0.00
    0   23    1      2.29      0.00
    2   23    1      8.79      0.00
    4   23    1     -6.01      0.00
    6   23    1      0.26      0.00
    8   23    1      4.11      0.00
   10   23    1     -6.44      0.00
    1   24    1     -4.51      0.00
    3   24    1      3.05      0.00
    5   24    1      2.96      0.00
    7   24    1      5.83      0.00
    0   25    1     -2.01      0.00
    2   25    1     -8.63      0.00
    4   25    1    -13.54      0.00
    1    1    2   -187.39      0.00
    0    2    2     90.26      0.00
    1    3    2    -70.13      0.00
    3    3    2      9.35      0.00
    0    4    2    199.99      0.00
    2    4    2      7.97      0.00
    1    5    2      9.46      0.00
    3    5    2    -19.52      0.00
    5    5    2     -9.46      0.00
    0    6    2    -12.56      0.00
    2    6    2     27.27      0.00
    4    6    2     13.52      0.00
    1    7    2     -6.21      0.00
    3    7    2    -12.29      0.00
    5    7    2    -10.02      0.00
    7    7    2     -5.34      0.00
    0    8    2      0.51      0.00
    2    8    2     -8.60      0.00
    4    8    2    -15.97      0.00
    6    8    2      8.53      0.00
    1    9    2     -3.97      0.00
    3    9    2     -4.41      0.00
    5    9    2     -0.84      0.00
    7    9    2     -6.34      0.00
    9    9    2     -2.77      0.00
    0   10    2    -10.42      0.00
    2   10    2     11.46      0.00
    4   10    2      1.03      0.00
    6   10    2      8.26      0.00
    8   10    2     -0.72      0.00
    1   11    2      4.83      0.00
    3   11    2      0.31      0.00
    5   11    2     -3.60      0.00
    7   11    2      2.37      0.00
    9   11    2      1.84      0.00
   11   11    2     -6.53      0.00
    0   12    2      5.02      0.00
    2   12    2     -2.58      0.00
    4   12    2      4.76      0.00
    6   12    2      2.89      0.00
    8   12    2      1.65      0.00
   10   12    2      3.58      0.00
    1   13    2     -7.35      0.00
    3   13    2      1.47      0.00
    5   13    2      0.92      0.00
    7   13    2     -8.42      0.00
    9   13    2     -6.10      0.00
   11   13    2     -0.90      0.00
   13   13    2      6.61      0.00
    0   14    2      5.20      0.00
    2   14    2     -5.21      0.00
    4   14    2      0.73      0.00
    6   14    2     -1.33      0.00
    8   14    2      3.44      0.00
   10   14    2     -4.66      0.00
   12   14    2      5.29      0.00
    1   15    2      1.78      0.00
    3   15    2     -1.26      0.00
    5   15    2     -1.88      0.00
    7   15    2      1.26      0.00
    9   15    2     -8.35      0.00
   11   15    2     -0.50      0.00
   13   15    2     -0.69      0.00
   15   15    2     10.26      0.00
    0   16    2      2.19      0.00
    2   16    2      1.05      0.00
    4   16    2     -0.46      0.00
    6   16    2     -7.98      0.00
    8   16    2      5.96      0.00
   10   16    2     -1.37      0.00
   12   16    2     -4.74      0.00
   14   16    2      8.72      0.00
    1   17    2     -3.34      0.00
    3   17    2     -3.99      0.00
    5   17    2     -2.61      0.00
    7   17    2      5.27      0.00
    9   17    2     -2.49      0.00
   11   17    2     -4.02      0.00
   13   17    2      4.40      0.00
   15   17    2     -5.62      0.00
   17   17    2      7.20      0.00
    0   18    2     -8.52      0.00
    2   18    2      4.84      0.00
    4   18    2     -2.87      0.00
    6   18    2      1.30      0.00
    8   18    2      2.23      0.00
   10   18    2     -0.66      0.00
   12   18    2     -1.57      0.00
   14   18    2      2.66      0.00
   16   18    2      0.33      0.00
    1   19    2      3.19      0.00
    3   19    2     -0.61      0.00
    5   19    2      2.48      0.00
    7   19    2     -6.36      0.00
    9   19    2     -0.53      0.00
   11   19    2      2.42      0.00
   13   19    2     -4.23      0.00
   15   19    2      5.72      0.00
   17   19    2      2.41      0.00
    0   20    2     -6.83      0.00
    2   20    2     -1.65      0.00
    4   20    2     -5.30      0.00
    6   20    2      4.63      0.00
    8   20    2      4.09      0.00
   10   20    2      1.35      0.00
   12   20    2      3.87      0.00
   14   20    2      0.85      0.00
    1   21    2     -0.66      0.00
    3   21    2      8.94      0.00
    5   21    2     -5.84      0.00
    7   21    2     -2.34      0.00
    9   21    2    -10.06      0.00
   11   21    2      0.65      0.00
   13   21    2      0.34      0.00
    0   22    2     -4.53      0.00
    2   22    2     -3.72      0.00
    4   22    2     -6.75      0.00
    6   22    2     -0.71      0.00
    8   22    2     -1.29      0.00
   10   22    2     -7.12      0.00
   12   22    2      2.64      0.00
    1   23    2     10.25      0.00
    3   23    2     -7.72      0.00
    5   23    2      7.11      0.00
    7   23    2      3.60      0.00
    9   23    2      7.09      0.00
   11   23    2    -13.57      0.00
    0   24    2     -4.42      0.00
    2   24    2     -6.32      0.00
    4   24    2      4.77      0.00
    6   24    2    -10.67      0.00
    8   24    2      6.61      0.00
    1   25    2      4.18      0.00
    3   25    2      8.53      0.00
    5   25    2     -4.58      0.00
    0    1    3    499.34      0.00
    1    2    3    -90.10      0.00
    0    3    3    137.41      0.00
    2    3    3    -11.17      0.00
    1    4    3    -15.70      0.00
    3    4    3    -10.56      0.00
    0    5    3     -1.51      0.00
    2    5    3    -19.02      0.00
    4    5    3     31.28      0.00
    1    6    3     -2.73      0.00
    3    6    3     -2.02      0.00
    5    6    3      2.04      0.00
    0    7    3      9.54      0.00
    2    7    3    -38.42      0.00
    4    7    3     16.68      0.00
    6    7    3      0.35      0.00
    1    8    3      2.74      0.00
    3    8    3     -4.19      0.00
    5    8    3      2.67      0.00
    7    8    3     -1.52      0.00
    0    9    3    -30.34      0.00
    2    9    3      8.39      0.00
    4    9    3      3.00      0.00
    6    9    3      4.99      0.00
    8    9    3     -3.25      0.00
    1   10    3      1.94      0.00
    3   10    3     -0.03      0.00
    5   10    3     -2.86      0.00
    7   10    3     -6.03      0.00
    9   10    3      2.67      0.00
    0   11    3     14.33      0.00
    2   11    3     -5.44      0.00
    4   11    3      1.43      0.00
    6   11    3     -2.61      0.00
    8   11    3      0.18      0.00
   10   11    3     -0.58      0.00
    1   12    3     -5.27      0.00
    3   12    3      4.63      0.00
    5   12    3     -2.66      0.00
    7   12    3      4.06      0.00
    9   12    3     -3.53      0.00
   11   12    3     -0.21      0.00
    0   13    3     -3.80      0.00
    2   13    3     -7.29      0.00
    4   13    3     -0.85      0.00
    6   13    3     -0.36      0.00
    8   13    3     -2.89      0.00
   10   13    3     -2.81      0.00
   12   13    3      1.55      0.00
    1   14    3     -3.06      0.00
    3   14    3     -2.47      0.00
    5   14    3      4.06      0.00
    7   14    3     -2.66      0.00
    9   14    3     -8.90      0.00
   11   14    3      2.48      0.00
   13   14    3     -4.13      0.00
    0   15    3     -3.19      0.00
    2   15    3     -7.52      0.00
    4   15    3     -4.89      0.00
    6   15    3     -4.42      0.00
    8   15    3     -2.55      0.00
   10   15    3     -3.34      0.00
   12   15    3    -13.67      0.00
   14   15    3      2.70      0.00
    1   16    3     -4.14      0.00
    3   16    3     -0.97      0.00
    5   16    3      4.17      0.00
    7   16    3      2.53      0.00
    9   16    3     -1.51      0.00
   11   16    3     12.61      0.00
   13   16    3     -7.39      0.00
   15   16    3     -1.68      0.00
    0   17    3    -10.74      0.00
    2   17    3      1.99      0.00
    4   17    3      1.38      0.00
    6   17    3     -0.19      0.00
    8   17    3     -8.18      0.00
   10   17    3     -2.54      0.00
   12   17    3      6.91      0.00
   14   17    3    -10.18      0.00
   16   17    3      0.99      0.00
    1   18    3      5.03      0.00
    3   18    3     -8.16      0.00
    5   18    3      3.07      0.00
    7   18    3     -0.26      0.00
    9   18    3      1.94      0.00
   11   18    3     -3.61      0.00
   13   18    3     -4.47      0.00
   15   18    3      2.91      0.00
   17   18    3     -0.84      0.00
    0   19    3      0.49      0.00
    2   19    3      0.13      0.00
    4   19    3      8.45      0.00
    6   19    3      0.46      0.00
    8   19    3     11.69      0.00
   10   19    3      2.56      0.00
   12   19    3      7.40      0.00
   14   19    3      6.68      0.00
   16   19    3      4.53      0.00
    1   20    3     -6.25      0.00
    3   20    3     -0.49      0.00
    5   20    3    -10.26      0.00
    7   20    3     -7.59      0.00
    9   20    3     -0.09      0.00
   11   20    3      1.78      0.00
   13   20    3     -2.72      0.00
   15   20    3      2.16      0.00
    0   21    3      2.54      0.00
    2   21    3     -6.27      0.00
    4   21    3      9.68      0.00
    6   21    3      2.87      0.00
    8   21    3      4.89      0.00
   10   21    3     -0.59      0.00
   12   21    3      2.90      0.00
   14   21    3      0.63      0.00
    1   22    3     -0.18      0.00
    3   22    3     -4.18      0.00
    5   22    3     -3.38      0.00
    7   22    3      1.52      0.00
    9   22    3     -5.64      0.00
   11   22    3     -5.48      0.00
    0   23    3      4.03      0.00
    2   23    3      2.62      0.00
    4   23    3     10.23      0.00
    6   23    3     -6.96      0.00
    8   23    3     -1.95      0.00
   10   23    3      4.15      0.00
    1   24    3      5.91      0.00
    3   24    3     -5.12      0.00
    5   24    3     -3.28      0.00
    7   24    3     -2.89      0.00
    0   25    3     39.59      0.00
    2   25    3     13.83      0.00
    4   25    3    -10.16      0.00
    0    0    4   -120.19      0.00
    0    2    4    208.95      0.00
    2    2    4   -479.70      0.00
    1    3    4      1.24      0.00
    0    4    4    -56.78      0.00
    2    4    4     32.09      0.00
    4    4    4    -38.80      0.00
    1    5    4      9.56      0.00
    3    5    4     -8.49      0.00
    0    6    4     26.92      0.00
    2    6    4    -19.60      0.00
    4    6    4     26.74      0.00
    6    6    4    -20.37      0.00
    1    7    4     17.71      0.00
    3    7    4     18.32      0.00
    5    7    4      6.44      0.00
    0    8    4    -26.45      0.00
    2    8    4     15.74      0.00
    4    8    4    -16.28      0.00
    6    8    4      3.70      0.00
    8    8    4     -7.72      0.00
    1    9    4      0.11      0.00
    3    9    4      0.53      0.00
    5    9    4     11.02      0.00
    7    9    4      6.68      0.00
    0   10    4     -0.65      0.00
    2   10    4      2.73      0.00
    4   10    4     -5.00      0.00
    6   10    4     -1.55      0.00
    8   10    4     -2.61      0.00
   10   10    4     -7.49      0.00
    1   11    4    -12.56      0.00
    3   11    4     -2.66      0.00
    5   11    4     -2.54      0.00
    7   11    4      5.57      0.00
    9   11    4      1.91      0.00
    0   12    4      2.27      0.00
    2   12    4     -4.03      0.00
    4   12    4      0.61      0.00
    6   12    4      3.16      0.00
    8   12    4     -2.82      0.00
   10   12    4     -8.31      0.00
   12   12    4    -10.51      0.00
    1   13    4      1.97      0.00
    3   13    4      3.14      0.00
    5   13    4     -0.48      0.00
    7   13    4     -4.28      0.00
    9   13    4     -7.08      0.00
   11   13    4     -7.66      0.00
    0   14    4      2.88      0.00
    2   14    4    -11.76      0.00
    4   14    4      3.35      0.00
    6   14    4     -5.95      0.00
    8   14    4      7.57      0.00
   10   14    4      0.76      0.00
   12   14    4     -7.17      0.00
   14   14    4     -6.96      0.00
    1   15    4      0.80      0.00
    3   15    4     -5.46      0.00
    5   15    4     -7.44      0.00
    7   15    4      5.76      0.00
    9   15    4     -0.11      0.00
   11   15    4      1.11      0.00
   13   15    4     -5.46      0.00
    0   16    4      1.23      0.00
    2   16    4    -10.80      0.00
    4   16    4     -8.75      0.00
    6   16    4     -6.94      0.00
    8   16    4      1.07      0.00
   10   16    4     -3.20      0.00
   12   16    4     -0.79      0.00
   14   16    4      2.70      0.00
   16   16    4    -15.49      0.00
    1   17    4      2.51      0.00
    3   17    4     -3.79      0.00
    5   17    4     -4.84      0.00
    7   17    4    -10.72      0.00
    9   17    4      0.55      0.00
   11   17    4     -4.39      0.00
   13   17    4      2.17      0.00
   15   17    4      1.97      0.00
    0   18    4      0.47      0.00
    2   18    4      5.49      0.00
    4   18    4      7.43      0.00
    6   18    4     -0.64      0.00
    8   18    4     -6.14      0.00
   10   18    4      1.44      0.00
   12   18    4      1.85      0.00
   14   18    4      8.98      0.00
   16   18    4      8.57      0.00
   18   18    4     -0.66      0.00
    1   19    4      7.14      0.00
    3   19    4     -2.54      0.00
    5   19    4    -11.23      0.00
    7   19    4      7.80      0.00
    9   19    4     -5.29      0.00
   11   19    4      1.79      0.00
   13   19    4     -3.83      0.00
   15   19    4      1.19      0.00
   17   19    4     -4.76      0.00
    0   20    4      1.76      0.00
    2   20    4     -2.22      0.00
    4   20    4     -1.41      0.00
    6   20    4      3.12      0.00
    8   20    4     -5.99      0.00
   10   20    4     -9.96      0.00
   12   20    4    -12.75      0.00
   14   20    4      2.30      0.00
    1   21    4      9.91      0.00
    3   21    4     -3.62      0.00
    5   21    4      6.26      0.00
    7   21    4     -2.37      0.00
    9   21    4     -4.96      0.00
   11   21    4     -0.17      0.00
   13   21    4     -5.84      0.00
    0   22    4      4.45      0.00
    2   22    4     -6.12      0.00
    4   22    4     -1.84      0.00
    6   22    4     -0.72      0.00
    8   22    4    -14.10      0.00
   10   22    4     10.86      0.00
   12   22    4     -8.02      0.00
    1   23    4     -8.74      0.00
    3   23    4      9.81      0.00
    5   23    4    -14.37      0.00
    7   23    4      4.48      0.00
    9   23    4     -9.58      0.00
   11   23    4     -0.62      0.00
    0   24    4      1.08      0.00
    2   24    4      5.41      0.00
    4   24    4     -3.48      0.00
    6   24    4     -6.97      0.00
    8   24    4     -2.31      0.00
    1   25    4    -16.54      0.00
    3   25    4     10.82      0.00
    5   25    4      4.62      0.00
    0    1    5   -118.49      0.00
    1    2    5     11.55      0.00
    0    3    5    -92.20      0.00
    2    3    5    -41.21      0.00
    1    4    5    -92.08      0.00
    3    4    5     86.05      0.00
    0    5    5    -59.18      0.00
    2    5    5     20.66      0.00
    4    5    5    -10.96      0.00
    1    6    5     14.01      0.00
    3    6    5     -8.62      0.00
    5    6    5     16.71      0.00
    0    7    5     13.83      0.00
    2    7    5     29.85      0.00
    4    7    5     -3.44      0.00
    6    7    5      4.96      0.00
    1    8    5      5.99      0.00
    3    8    5      9.85      0.00
    5    8    5      8.01      0.00
    7    8    5      4.93      0.00
    0    9    5     -7.32      0.00
    2    9    5      5.56      0.00
    4    9    5     -5.37      0.00
    6    9    5     -3.72      0.00
    8    9    5      5.47      0.00
    1   10    5      1.66      0.00
    3   10    5     -0.23      0.00
    5   10    5      2.29      0.00
    7   10    5     -1.82      0.00
    9   10    5      6.24      0.00
    0   11    5     10.12      0.00
    2   11    5     -4.15      0.00
    4   11    5     -1.24      0.00
    6   11    5      5.70      0.00
    8   11    5     -3.13      0.00
   10   11    5     -2.30      0.00
    1   12    5     -1.37      0.00
    3   12    5     -2.36      0.00
    5   12    5     -4.13      0.00
    7   12    5     -1.61      0.00
    9   12    5      6.29      0.00
   11   12    5      2.62      0.00
    0   13    5     -8.86      0.00
    2   13    5      6.95      0.00
    4   13    5      0.37      0.00
    6   13    5      6.69      0.00
    8   13    5      2.20      0.00
   10   13    5      0.32      0.00
   12   13    5      0.14      0.00
    1   14    5     -7.15      0.00
    3   14    5     -1.88      0.00
    5   14    5     -3.00      0.00
    7   14    5     -3.01      0.00
    9   14    5     -2.75      0.00
   11   14    5      5.59      0.00
   13   14    5      0.34      0.00
    0   15    5     -2.99      0.00
    2   15    5    -11.06      0.00
    4   15    5      1.64      0.00
    6   15    5      1.10      0.00
    8   15    5     -2.58      0.00
   10   15    5      4.77      0.00
   12   15    5      5.60      0.00
   14   15    5     -3.76      0.00
    1   16    5     -0.11      0.00
    3   16    5      1.75      0.00
    5   16    5      0.39      0.00
    7   16    5     -4.68      0.00
    9   16    5      3.56      0.00
   11   16    5      7.14      0.00
   13   16    5     -1.11      0.00
   15   16    5      1.97      0.00
    0   17    5     -3.33      0.00
    2   17    5      6.24      0.00
    4   17    5      0.62      0.00
    6   17    5     -0.74      0.00
    8   17    5      2.83      0.00
   10   17    5      0.27      0.00
   12   17    5     -2.92      0.00
   14   17    5     10.91      0.00
   16   17    5     -1.51      0.00
    1   18    5     -2.34      0.00
    3   18    5     -7.87      0.00
    5   18    5      8.37      0.00
    7   18    5     15.99      0.00
    9   18    5      1.90      0.00
   11   18    5      6.73      0.00
   13   18    5     -3.80      0.00
   15   18    5     -3.04      0.00
   17   18    5      0.18      0.00
    0   19    5      3.78      0.00
    2   19    5     -1.09      0.00
    4   19    5      4.30      0.00
    6   19    5     -4.99      0.00
    8   19    5     -5.79      0.00
   10   19    5      5.62      0.00
   12   19    5     -0.80      0.00
   14   19    5     -3.93      0.00
   16   19    5     -5.06      0.00
    1   20    5      2.62      0.00
    3   20    5      9.46      0.00
    5   20    5      5.06      0.00
    7   20    5     -3.14      0.00
    9   20    5     -2.92      0.00
   11   20    5      0.37      0.00
   13   20    5     -8.35      0.00
   15   20    5      3.88      0.00
    0   21    5     -1.94      0.00
    2   21    5      4.62      0.00
    4   21    5     -3.44      0.00
    6   21    5     -0.83      0.00
    8   21    5      9.32      0.00
   10   21    5      8.39      0.00
   12   21    5      5.76      0.00
   14   21    5      4.54      0.00
    1   22    5     -4.80      0.00
    3   22    5      6.17      0.00
    5   22    5     -8.82      0.00
    7   22    5     -8.43      0.00
    9   22    5    -10.75      0.00
   11   22    5     -0.30      0.00
    0   23    5      1.90      0.00
    2   23    5      2.61      0.00
    4   23    5     -0.06      0.00
    6   23    5     10.56      0.00
    8   23    5     -1.70      0.00
   10   23    5      3.67      0.00
    1   24    5     -3.71      0.00
    3   24    5     -1.40      0.00
    5   24    5     -6.42      0.00
    7   24    5      2.04      0.00
    0   25    5     19.62      0.00
    2   25    5     -2.93      0.00
    4   25    5      1.58      0.00
    1    1    6    105.65      0.00
    0    2    6     34.86      0.00
    1    3    6     28.70      0.00
    3    3    6    196.52      0.00
    0    4    6    -74.95      0.00
    2    4    6    -81.91      0.00
    1    5    6     40.83      0.00
    3    5    6     -7.68      0.00
    5    5    6     25.82      0.00
    0    6    6      3.22      0.00
    2    6    6     -9.42      0.00
    4    6    6    -31.75      0.00
    1    7    6     -4.52      0.00
    3    7    6     -1.26      0.00
    5    7    6     -6.92      0.00
    7    7    6      3.39      0.00
    0    8    6     -2.75      0.00
    2    8    6     13.71      0.00
    4    8    6      7.92      0.00
    6    8    6      6.70      0.00
    1    9    6      6.56      0.00
    3    9    6     -9.07      0.00
    5    9    6      1.59      0.00
    7    9    6     -3.65      0.00
    9    9    6     -3.45      0.00
    0   10    6    -18.88      0.00
    2   10    6     -2.86      0.00
    4   10    6     -5.91      0.00
    6   10    6     11.40      0.00
    8   10    6     -4.79      0.00
    1   11    6      3.52      0.00
    3   11    6      3.70      0.00
    5   11    6     -2.09      0.00
    7   11    6     -3.99      0.00
    9   11    6      8.19      0.00
   11   11    6     -0.59      0.00
    0   12    6     -6.70      0.00
    2   12    6     -4.14      0.00
    4   12    6     -2.90      0.00
    6   12    6     -5.75      0.00
    8   12    6     -4.89      0.00
   10   12    6     -4.17      0.00
    1   13    6      0.83      0.00
    3   13    6      8.08      0.00
    5   13    6     -5.83      0.00
    7   13    6      5.77      0.00
    9   13    6      5.07      0.00
   11   13    6     -1.42      0.00
   13   13    6      1.39      0.00
    0   14    6     11.24      0.00
    2   14    6     -9.20      0.00
    4   14    6      6.25      0.00
    6   14    6      0.28      0.00
    8   14    6      1.71      0.00
   10   14    6      5.46      0.00
   12   14    6     -0.34      0.00
    1   15    6      6.01      0.00
    3   15    6      0.40      0.00
    5   15    6     -3.70      0.00
    7   15    6      2.35      0.00
    9   15    6      2.98      0.00
   11   15    6      1.37      0.00
   13   15    6      0.35      0.00
   15   15    6     -3.53      0.00
    0   16    6     -2.14      0.00
    2   16    6      2.33      0.00
    4   16    6      1.61      0.00
    6   16    6     -7.00      0.00
    8   16    6      1.66      0.00
   10   16    6     -2.37      0.00
   12   16    6     -2.11      0.00
   14   16    6      9.80      0.00
    1   17    6     -8.71      0.00
    3   17    6      2.08      0.00
    5   17    6      3.11      0.00
    7   17    6      0.75      0.00
    9   17    6      0.39      0.00
   11   17    6      7.27      0.00
   13   17    6      1.41      0.00
   15   17    6      0.80      0.00
   17   17    6      3.00      0.00
    0   18    6     -6.24      0.00
    2   18    6     -0.49      0.00
    4   18    6     -3.40      0.00
    6   18    6     -2.08      0.00
    8   18    6     -6.50      0.00
   10   18    6     -8.04      0.00
   12   18    6     -4.16      0.00
   14   18    6      1.25      0.00
   16   18    6     -6.63      0.00
    1   19    6      2.56      0.00
    3   19    6    -10.26      0.00
    5   19    6     -1.24      0.00
    7   19    6     -1.73      0.00
    9   19    6     -9.60      0.00
   11   19    6     -4.29      0.00
   13   19    6     -9.78      0.00
   15   19    6      3.27      0.00
    0   20    6      0.96      0.00
    2   20    6     16.84      0.00
    4   20    6     -2.92      0.00
    6   20    6      1.29      0.00
    8   20    6      4.11      0.00
   10   20    6     -0.14      0.00
   12   20    6      0.37      0.00
   14   20    6      5.03      0.00
    1   21    6      0.30      0.00
    3   21    6     -1.46      0.00
    5   21    6     -9.52      0.00
    7   21    6     -2.66      0.00
    9   21    6      5.91      0.00
   11   21    6     -6.88      0.00
   13   21    6      7.41      0.00
    0   22    6      3.02      0.00
    2   22    6      8.58      0.00
    4   22    6      2.89      0.00
    6   22    6     -4.62      0.00
    8   22    6      5.63      0.00
   10   22    6      0.06      0.00
   12   22    6      3.35      0.00
    1   23    6     -4.45      0.00
    3   23    6      2.55      0.00
    5   23    6      6.98      0.00
    7   23    6      5.56      0.00
    9   23    6     -6.17      0.00
    0   24    6      5.67      0.00
    2   24    6    -12.60      0.00
    4   24    6     10.39      0.00
    6   24    6     -2.00      0.00
    8   24    6     -1.84      0.00
    1   25    6    -12.86      0.00
    3   25    6     -5.49      0.00
    0    1    7    -89.50      0.00
    1    2    7      5.78      0.00
    0    3    7    -32.09      0.00
    2    3    7   -136.50      0.00
    1    4    7     -8.78      0.00
    3    4    7      7.21      0.00
    0    5    7     21.42      0.00
    2    5    7    -80.31      0.00
    4    5    7     -4.77      0.00
    1    6    7     19.01      0.00
    3    6    7    -19.43      0.00
    5    6    7     -4.82      0.00
    0    7    7    -16.80      0.00
    2    7    7     -4.60      0.00
    4    7    7     -7.77      0.00
    6    7    7     -8.67      0.00
    1    8    7      7.25      0.00
    3    8    7      4.17      0.00
    5    8    7      6.76      0.00
    7    8    7     -0.90      0.00
    0    9    7     11.46      0.00
    2    9    7      3.96      0.00
    4    9    7     15.80      0.00
    6    9    7    -10.14      0.00
    8    9    7      1.44      0.00
    1   10    7      7.62      0.00
    3   10    7      8.91      0.00
    5   10    7      5.90      0.00
    7   10    7     -0.57      0.00
    9   10    7      3.80      0.00
    0   11    7     10.66      0.00
    2   11    7      4.66      0.00
    4   11    7     -4.61      0.00
    6   11    7      1.68      0.00
    8   11    7     -8.32      0.00
   10   11    7      7.33      0.00
    1   12    7     -5.23      0.00
    3   12    7      2.18      0.00
    5   12    7     -2.31      0.00
    7   12    7      2.68      0.00
    9   12    7     -0.23      0.00
   11   12    7     10.73      0.00
    0   13    7     -2.96      0.00
    2   13    7      0.15      0.00
    4   13    7      1.24      0.00
    6   13    7      1.93      0.00
    8   13    7      0.30      0.00
   10   13    7      3.86      0.00
   12   13    7     -0.78      0.00
    1   14    7     -2.29      0.00
    3   14    7      4.73      0.00
    5   14    7      0.42      0.00
    7   14    7     -0.29      0.00
    9   14    7     -7.14      0.00
   11   14    7      6.17      0.00
   13   14    7      2.87      0.00
    0   15    7     16.61      0.00
    2   15    7      4.10      0.00
    4   15    7      8.15      0.00
    6   15    7     -0.43      0.00
    8   15    7      1.84      0.00
   10   15    7      0.83      0.00
   12   15    7      0.03      0.00
   14   15    7     -5.69      0.00
    1   16    7     -0.06      0.00
    3   16    7     -3.52      0.00
    5   16    7      2.69      0.00
    7   16    7     -2.05      0.00
    9   16    7      1.26      0.00
   11   16    7      2.69      0.00
   13   16    7     -5.62      0.00
   15   16    7      1.23      0.00
    0   17    7     -1.24      0.00
    2   17    7     -5.38      0.00
    4   17    7     -1.52      0.00
    6   17    7      5.80      0.00
    8   17    7      5.33      0.00
   10   17    7      0.51      0.00
   12   17    7     -7.54      0.00
   14   17    7     -2.78      0.00
   16   17    7    -14.95      0.00
    1   18    7      3.02      0.00
    3   18    7     -6.51      0.00
    5   18    7     -6.71      0.00
    7   18    7    -13.68      0.00
    9   18    7     -2.25      0.00
   11   18    7      2.42      0.00
   13   18    7    -10.88      0.00
   15   18    7     -0.35      0.00
   17   18    7      4.13      0.00
    0   19    7    -19.21      0.00
    2   19    7     -4.22      0.00
    4   19    7      4.03      0.00
    6   19    7     -7.56      0.00
    8   19    7      6.36      0.00
   10   19    7      1.78      0.00
   12   19    7      7.13      0.00
   14   19    7      0.22      0.00
   16   19    7      2.12      0.00
    1   20    7     -3.91      0.00
    3   20    7     -4.43      0.00
    5   20    7     -0.50      0.00
    7   20    7      5.32      0.00
    9   20    7      1.82      0.00
   11   20    7      4.58      0.00
   13   20    7      9.88      0.00
   15   20    7      1.84      0.00
    0   21    7    -10.59      0.00
    2   21    7     -9.90      0.00
    4   21    7     -8.23      0.00
    6   21    7     -2.13      0.00
    8   21    7     -4.28      0.00
   10   21    7     -2.17      0.00
   12   21    7     -0.15      0.00
   14   21    7     -0.44      0.00
    1   22    7      3.33      0.00
    3   22    7     -6.49      0.00
    5   22    7     17.45      0.00
    7   22    7     16.37      0.00
    9   22    7      2.20      0.00
   11   22    7      4.42      0.00
    0   23    7      1.10      0.00
    2   23    7    -12.47      0.00
    4   23    7      0.85      0.00
    6   23    7      0.19      0.00
    8   23    7      4.02      0.00
   10   23    7      6.91      0.00
    1   24    7      0.19      0.00
    3   24    7      5.84      0.00
    5   24    7      3.91      0.00
    7   24    7     13.59      0.00
    0   25    7     -9.37      0.00
    2   25    7     -5.75      0.00
    4   25    7     -6.48      0.00
    0    0    8    229.68      0.00
    0    2    8     93.12      0.00
    2    2    8    -65.37      0.00
    1    3    8     20.99      0.00
    0    4    8     78.90      0.00
    2    4    8    -50.65      0.00
    4    4    8     59.08      0.00
    1    5    8     24.72      0.00
    3    5    8      2.26      0.00
    0    6    8      5.32      0.00
    2    6    8    -16.91      0.00
    4    6    8    -12.23      0.00
    6    6    8      4.03      0.00
    1    7    8     -3.71      0.00
    3    7    8     -0.80      0.00
    5    7    8     -3.10      0.00
    0    8    8    -36.42      0.00
    2    8    8     17.73      0.00
    4    8    8     -1.62      0.00
    6    8    8     -8.50      0.00
    8    8    8      4.52      0.00
    1    9    8     -0.48      0.00
    3    9    8     -0.94      0.00
    5    9    8      5.83      0.00
    7    9    8     -9.14      0.00
    0   10    8     19.12      0.00
    2   10    8      6.67      0.00
    4   10    8     -3.15      0.00
    6   10    8      8.56      0.00
    8   10    8      6.47      0.00
   10   10    8      8.67      0.00
    1   11    8      0.11      0.00
    3   11    8      4.15      0.00
    5   11    8     -7.37      0.00
    7   11    8      0.28      0.00
    9   11    8     -2.24      0.00
    0   12    8     11.08      0.00
    2   12    8      2.00      0.00
    4   12    8      9.42      0.00
    6   12    8      3.39      0.00
    8   12    8      5.59      0.00
   10   12    8      3.88      0.00
   12   12    8     -0.40      0.00
    1   13    8      1.42      0.00
    3   13    8      2.12      0.00
    5   13    8     -1.52      0.00
    7   13    8     -2.05      0.00
    9   13    8      5.29      0.00
   11   13    8      4.43      0.00
    0   14    8     11.26      0.00
    2   14    8     -8.22      0.00
    4   14    8     -3.26      0.00
    6   14    8     -1.06      0.00
    8   14    8      1.15      0.00
   10   14    8     -1.31      0.00
   12   14    8     -5.28      0.00
   14   14    8      4.82      0.00
    1   15    8      0.84      0.00
    3   15    8      2.28      0.00
    5   15    8     -7.26      0.00
    7   15    8     -0.03      0.00
    9   15    8      3.64      0.00
   11   15    8      9.96      0.00
   13   15    8      5.03      0.00
    0   16    8     -6.48      0.00
    2   16    8     -4.40      0.00
    4   16    8      7.69      0.00
    6   16    8     -0.51      0.00
    8   16    8     -3.94      0.00
   10   16    8     -2.02      0.00
   12   16    8      2.14      0.00
   14   16    8     -1.45      0.00
   16   16    8     -1.69      0.00
    1   17    8      0.01      0.00
    3   17    8     -1.20      0.00
    5   17    8    -10.87      0.00
    7   17    8      1.09      0.00
    9   17    8     -1.80      0.00
   11   17    8     -5.70      0.00
   13   17    8     -2.57      0.00
   15   17    8      6.36      0.00
    0   18    8     -3.74      0.00
    2   18    8      1.54      0.00
    4   18    8      3.36      0.00
    6   18    8      8.52      0.00
    8   18    8      4.19      0.00
   10   18    8      0.48      0.00
   12   18    8     -1.47      0.00
   14   18    8     11.34      0.00
   16   18    8      2.99      0.00
    1   19    8     -3.82      0.00
    3   19    8     -6.41      0.00
    5   19    8      5.38      0.00
    7   19    8     11.12      0.00
    9   19    8     -8.51      0.00
   11   19    8      5.41      0.00
   13   19    8     -4.36      0.00
   15   19    8     -4.62      0.00
    0   20    8     -2.24      0.00
    2   20    8     -5.60      0.00
    4   20    8     -6.14      0.00
    6   20    8      2.14      0.00
    8   20    8     -5.97      0.00
   10   20    8      5.30      0.00
   12   20    8      1.35      0.00
   14   20    8      2.76      0.00
    1   21    8      4.00      0.00
    3   21    8      8.35      0.00
    5   21    8      0.25      0.00
    7   21    8      9.15      0.00
    9   21    8     -6.12      0.00
   11   21    8     -3.43      0.00
   13   21    8    -14.21      0.00
    0   22    8     -0.17      0.00
    2   22    8      4.19      0.00
    4   22    8      4.72      0.00
    6   22    8     -5.35      0.00
    8   22    8      5.03      0.00
   10   22    8      5.73      0.00
   12   22    8     -1.97      0.00
    1   23    8     -2.69      0.00
    3   23    8      0.11      0.00
    5   23    8      0.75      0.00
    7   23    8    -12.04      0.00
    9   23    8     -6.16      0.00
    0   24    8     -1.41      0.00
    2   24    8     -3.50      0.00
    4   24    8     -1.80      0.00
    6   24    8      3.82      0.00
    8   24    8     -1.29      0.00
    1   25    8    -11.70      0.00
    3   25    8     14.43      0.00
    0    1    9     70.54      0.00
    1    2    9     23.23      0.00
    0    3    9     44.24      0.00
    2    3    9     65.64      0.00
    1    4    9     56.31      0.00
    3    4    9      3.38      0.00
    0    5    9    -18.78      0.00
    2    5    9     30.69      0.00
    4    5    9      7.88      0.00
    1    6    9      0.49      0.00
    3    6    9     23.70      0.00
    5    6    9    -16.03      0.00
    0    7    9    -15.28      0.00
    2    7    9      5.16      0.00
    4    7    9      0.64      0.00
    6    7    9     -0.44      0.00
    1    8    9    -10.79      0.00
    3    8    9     -7.51      0.00
    5    8    9      7.80      0.00
    7    8    9    -14.22      0.00
    0    9    9     -8.09      0.00
    2    9    9      1.91      0.00
    4    9    9    -10.67      0.00
    6    9    9      3.62      0.00
    8    9    9      3.59      0.00
    1   10    9      1.77      0.00
    3   10    9      0.94      0.00
    5   10    9     -7.42      0.00
    7   10    9     -3.89      0.00
    9   10    9     -2.58      0.00
    0   11    9     -3.65      0.00
    2   11    9      2.40      0.00
    4   11    9      0.63      0.00
    6   11    9      7.55      0.00
    8   11    9      1.04      0.00
   10   11    9      0.80      0.00
    1   12    9      6.79      0.00
    3   12    9      2.28      0.00
    5   12    9      3.75      0.00
    7   12    9     -4.72      0.00
    9   12    9     -1.48      0.00
   11   12    9     -6.05      0.00
    0   13    9      8.72      0.00
    2   13    9      0.59      0.00
    4   13    9      1.23      0.00
    6   13    9      6.19      0.00
    8   13    9     -4.20      0.00
   10   13    9     -0.65      0.00
   12   13    9      1.25      0.00
    1   14    9      2.38      0.00
    3   14    9      6.30      0.00
    5   14    9     -3.74      0.00
    7   14    9      5.27      0.00
    9   14    9     -2.56      0.00
   11   14    9    -12.07      0.00
   13   14    9      3.02      0.00
    0   15    9     -1.68      0.00
    2   15    9     -3.98      0.00
    4   15    9      2.72      0.00
    6   15    9      8.02      0.00
    8   15    9     -1.40      0.00
   10   15    9     -4.89      0.00
   12   15    9     -3.47      0.00
   14   15    9     -2.69      0.00
    1   16    9      6.43      0.00
    3   16    9     -2.08      0.00
    5   16    9     -1.11      0.00
    7   16    9      2.56      0.00
    9   16    9      2.38      0.00
   11   16    9     -4.77      0.00
   13   16    9    -10.77      0.00
   15   16    9      4.95      0.00
    0   17    9      1.06      0.00
    2   17    9      7.40      0.00
    4   17    9     11.63      0.00
    6   17    9      7.63      0.00
    8   17    9      5.95      0.00
   10   17    9      1.19      0.00
   12   17    9      1.49      0.00
   14   17    9     -1.07      0.00
   16   17    9     -1.31      0.00
    1   18    9     -2.70      0.00
    3   18    9     -0.56      0.00
    5   18    9     -3.25      0.00
    7   18    9     -2.13      0.00
    9   18    9     -5.93      0.00
   11   18    9     13.28      0.00
   13   18    9      2.69      0.00
   15   18    9     -8.31      0.00
   17   18    9      4.14      0.00
    0   19    9      5.26      0.00
    2   19    9      0.09      0.00
    4   19    9      1.08      0.00
    6   19    9      3.75      0.00
    8   19    9      0.00      0.00
   10   19    9     -1.62      0.00
   12   19    9      0.64      0.00
   14   19    9      8.54      0.00
   16   19    9      0.89      0.00
    1   20    9     -2.88      0.00
    3   20    9     -4.14      0.00
    5   20    9      2.87      0.00
    7   20    9    -12.23      0.00
    9   20    9     -2.53      0.00
   11   20    9     -4.70      0.00
   13   20    9    -14.17      0.00
   15   20    9      3.83      0.00
    0   21    9     -7.60      0.00
    2   21    9     -6.12      0.00
    4   21    9     -0.53      0.00
    6   21    9     -1.83      0.00
    8   21    9      0.54      0.00
   10   21    9      0.12      0.00
   12   21    9      1.15      0.00
   14   21    9      4.58      0.00
    1   22    9     -4.92      0.00
    3   22    9     -9.56      0.00
    5   22    9     -6.51      0.00
    7   22    9      2.86      0.00
    9   22    9     -0.52      0.00
   11   22    9     -6.79      0.00
    0   23    9     -2.50      0.00
    2   23    9      0.56      0.00
    4   23    9     -9.95      0.00
    6   23    9     -9.00      0.00
    8   23    9      6.95      0.00
   10   23    9      5.30      0.00
    1   24    9     -8.41      0.00
    3   24    9      6.68      0.00
    5   24    9      0.20      0.00
    7   24    9      8.80      0.00
    0   25    9     17.63      0.00
    2   25    9     -5.11      0.00
    4   25    9      2.32      0.00
    1    1   10    -48.59      0.00
    0    2   10    146.22      0.00
    1    3   10    -20.36      0.00
    3    3   10    -47.29      0.00
    0    4   10    -69.46      0.00
    2    4   10     83.26      0.00
    1    5   10    -29.23      0.00
    3    5   10     19.91      0.00
    5    5   10    -56.72      0.00
    0    6   10     21.18      0.00
    2    6   10    -28.27      0.00
    4    6   10     12.69      0.00
    1    7   10      1.24      0.00
    3    7   10    -16.21      0.00
    5    7   10      9.44      0.00
    7    7   10    -11.73      0.00
    0    8   10    -32.52      0.00
    2    8   10     17.29      0.00
    4    8   10    -14.49      0.00
    6    8   10      7.50      0.00
    1    9   10     -5.52      0.00
    3    9   10     -7.10      0.00
    5    9   10     -5.17      0.00
    7    9   10      2.38      0.00
    9    9   10     -2.17      0.00
    0   10   10      5.50      0.00
    2   10   10     -6.22      0.00
    4   10   10     -7.22      0.00
    6   10   10     -5.58      0.00
    8   10   10     -4.05      0.00
    1   11   10      1.92      0.00
    3   11   10     -2.08      0.00
    5   11   10      0.03      0.00
    7   11   10     -3.73      0.00
    9   11   10      7.66      0.00
   11   11   10     -9.13      0.00
    0   12   10      3.31      0.00
    2   12   10      0.31      0.00
    4   12   10      5.25      0.00
    6   12   10      4.39      0.00
    8   12   10     -4.47      0.00
   10   12   10     -3.36      0.00
    1   13   10     -0.56      0.00
    3   13   10      5.33      0.00
    5   13   10     -4.93      0.00
    7   13   10      5.21      0.00
    9   13   10      2.14      0.00
   11   13   10     -5.89      0.00
   13   13   10      6.86      0.00
    0   14   10      5.01      0.00
    2   14   10      2.19      0.00
    4   14   10      4.17      0.00
    6   14   10      2.47      0.00
    8   14   10      1.71      0.00
   10   14   10      5.24      0.00
   12   14   10     -5.24      0.00
    1   15   10     -3.64      0.00
    3   15   10      8.86      0.00
    5   15   10      3.13      0.00
    7   15   10      0.77      0.00
    9   15   10      0.42      0.00
   11   15   10      9.07      0.00
   13   15   10      7.27      0.00
   15   15   10      3.01      0.00
    0   16   10     15.02      0.00
    2   16   10      3.76      0.00
    4   16   10      5.54      0.00
    6   16   10      4.92      0.00
    8   16   10      1.70      0.00
   10   16   10     -0.59      0.00
   12   16   10     -1.42      0.00
   14   16   10      1.40      0.00
    1   17   10      1.18      0.00
    3   17   10     -2.63      0.00
    5   17   10      0.74      0.00
    7   17   10      5.50      0.00
    9   17   10     -1.98      0.00
   11   17   10      9.04      0.00
   13   17   10      0.47      0.00
   15   17   10      5.24      0.00
   17   17   10     11.86      0.00
    0   18   10      5.84      0.00
    2   18   10      8.93      0.00
    4   18   10      3.49      0.00
    6   18   10      7.82      0.00
    8   18   10      3.99      0.00
   10   18   10     -3.66      0.00
   12   18   10     -9.16      0.00
   14   18   10      5.46      0.00
   16   18   10     -7.96      0.00
    1   19   10     10.54      0.00
    3   19   10      3.63      0.00
    5   19   10      3.76      0.00
    7   19   10    -13.06      0.00
    9   19   10      1.66      0.00
   11   19   10     -8.42      0.00
   13   19   10     -4.77      0.00
   15   19   10     -3.24      0.00
    0   20   10     -3.86      0.00
    2   20   10     11.23      0.00
    4   20   10      6.52      0.00
    6   20   10     -2.67      0.00
    8   20   10      9.91      0.00
   10   20   10      5.74      0.00
   12   20   10     -4.11      0.00
   14   20   10     -2.98      0.00
    1   21   10      4.09      0.00
    3   21   10      0.47      0.00
    5   21   10     -1.79      0.00
    7   21   10     -6.00      0.00
    9   21   10     -6.75      0.00
   11   21   10      0.10      0.00
   13   21   10      0.12      0.00
    0   22   10     -4.66      0.00
    2   22   10      4.60      0.00
    4   22   10     -1.19      0.00
    6   22   10     -1.94      0.00
    8   22   10     -8.07      0.00
   10   22   10     -0.65      0.00
   12   22   10      3.12      0.00
    1   23   10      0.65      0.00
    3   23   10     -4.24      0.00
    5   23   10     -3.60      0.00
    7   23   10     -4.18      0.00
    9   23   10     -7.81      0.00
    0   24   10     13.45      0.00
    2   24   10      2.55      0.00
    4   24   10     -3.54      0.00
    6   24   10    -11.43      0.00
    8   24   10     -5.99      0.00
    1   25   10     16.92      0.00
    3   25   10     -4.75      0.00
    0    1   11    -69.77      0.00
    1    2   11      6.43      0.00
    0    3   11     65.50      0.00
    2    3   11    -24.80      0.00
    1    4   11      3.35      0.00
    3    4   11     -7.07      0.00
    0    5   11     28.04      0.00
    2    5   11     13.85      0.00
    4    5   11     31.94      0.00
    1    6   11      2.77      0.00
    3    6   11     -2.12      0.00
    5    6   11      2.54      0.00
    0    7   11     30.01      0.00
    2    7   11    -12.57      0.00
    4    7   11     26.43      0.00
    6    7   11      6.35      0.00
    1    8   11      0.00      0.00
    3    8   11    -10.09      0.00
    5    8   11     -5.17      0.00
    7    8   11      0.96      0.00
    0    9   11     -6.15      0.00
    2    9   11      7.41      0.00
    4    9   11     -2.41      0.00
    6    9   11      4.32      0.00
    8    9   11      0.41      0.00
    1   10   11     -1.27      0.00
    3   10   11     -1.85      0.00
    5   10   11      5.82      0.00
    7   10   11     -2.49      0.00
    9   10   11     -0.99      0.00
    0   11   11     -3.41      0.00
    2   11   11     -1.89      0.00
    4   11   11      4.20      0.00
    6   11   11      1.74      0.00
    8   11   11     -3.85      0.00
   10   11   11    -11.15      0.00
    1   12   11     -2.49      0.00
    3   12   11      2.22      0.00
    5   12   11     -6.76      0.00
    7   12   11      3.83      0.00
    9   12   11     -3.10      0.00
   11   12   11     -8.36      0.00
    0   13   11      6.55      0.00
    2   13   11     -9.26      0.00
    4   13   11     -1.50      0.00
    6   13   11      1.68      0.00
    8   13   11     -4.21      0.00
   10   13   11     -5.56      0.00
   12   13   11     -4.45      0.00
    1   14   11      0.07      0.00
    3   14   11      0.95      0.00
    5   14   11      5.79      0.00
    7   14   11     -2.10      0.00
    9   14   11     -5.22      0.00
   11   14   11      2.16      0.00
   13   14   11     -0.53      0.00
    0   15   11      3.61      0.00
    2   15   11     -3.45      0.00
    4   15   11     -0.75      0.00
    6   15   11      6.52      0.00
    8   15   11     -2.14      0.00
   10   15   11      0.58      0.00
   12   15   11     -9.48      0.00
   14   15   11      2.40      0.00
    1   16   11     -3.00      0.00
    3   16   11     -0.54      0.00
    5   16   11     -1.34      0.00
    7   16   11      0.50      0.00
    9   16   11      2.58      0.00
   11   16   11      5.94      0.00
   13   16   11     -2.94      0.00
   15   16   11      7.92      0.00
    0   17   11      4.22      0.00
    2   17   11      2.77      0.00
    4   17   11      2.84      0.00
    6   17   11     -8.03      0.00
    8   17   11     -2.01      0.00
   10   17   11     -2.41      0.00
   12   17   11      8.42      0.00
   14   17   11      0.28      0.00
   16   17   11     -6.59      0.00
    1   18   11      3.62      0.00
    3   18   11     -5.22      0.00
    5   18   11     -2.83      0.00
    7   18   11    -13.22      0.00
    9   18   11      1.23      0.00
   11   18   11      1.36      0.00
   13   18   11      8.50      0.00
   15   18   11     -0.04      0.00
   17   18   11     -4.38      0.00
    0   19   11      2.01      0.00
    2   19   11      9.86      0.00
    4   19   11     -1.00      0.00
    6   19   11     -2.11      0.00
    8   19   11      3.95      0.00
   10   19   11     12.66      0.00
   12   19   11     -0.23      0.00
   14   19   11      3.73      0.00
   16   19   11     -2.93      0.00
    1   20   11     -0.88      0.00
    3   20   11     -8.53      0.00
    5   20   11     -2.57      0.00
    7   20   11      5.43      0.00
    9   20   11      3.23      0.00
   11   20   11      7.81      0.00
   13   20   11     -6.41      0.00
   15   20   11     -0.37      0.00
    0   21   11     -1.94      0.00
    2   21   11     -3.58      0.00
    4   21   11      3.97      0.00
    6   21   11      6.24      0.00
    8   21   11     -1.53      0.00
   10   21   11      1.21      0.00
   12   21   11     10.19      0.00
   14   21   11      4.02      0.00
    1   22   11     -1.39      0.00
    3   22   11     -4.79      0.00
    5   22   11     -4.73      0.00
    7   22   11      0.89      0.00
    9   22   11     -8.11      0.00
   11   22   11      1.52      0.00
    0   23   11      4.45      0.00
    2   23   11      7.42      0.00
    4   23   11     -2.52      0.00
    6   23   11      1.52      0.00
    8   23   11      8.17      0.00
   10   23   11     -0.54      0.00
    1   24   11      1.56      0.00
    3   24   11      2.83      0.00
    5   24   11     -1.85      0.00
    7   24   11     -9.97      0.00
    0   25   11     -7.09      0.00
    2   25   11      1.42      0.00
    0    0   12   -330.07      0.00
    0    2   12    112.76      0.00
    2    2   12   -147.98      0.00
    1    3   12     20.33      0.00
    0    4   12     42.13      0.00
    2    4   12      1.86      0.00
    4    4   12     32.61      0.00
    1    5   12     -6.37      0.00
    3    5   12      9.35      0.00
    0    6   12     34.39      0.00
    2    6   12      7.24      0.00
    4    6   12     24.26      0.00
    6    6   12     -1.53      0.00
    1    7   12      4.32      0.00
    3    7   12    -21.38      0.00
    5    7   12     10.72      0.00
    0    8   12      6.67      0.00
    2    8   12     12.58      0.00
    4    8   12      3.14      0.00
    6    8   12      8.01      0.00
    8    8   12     -5.50      0.00
    1    9   12     -9.41      0.00
    3    9   12      4.93      0.00
    5    9   12     -6.67      0.00
    7    9   12     -5.89      0.00
    0   10   12     -3.20      0.00
    2   10   12     -3.22      0.00
    4   10   12     -4.26      0.00
    6   10   12      2.16      0.00
    8   10   12      8.94      0.00
   10   10   12      3.37      0.00
    1   11   12     -6.94      0.00
    3   11   12     -4.53      0.00
    5   11   12      1.83      0.00
    7   11   12     -2.64      0.00
    9   11   12      6.50      0.00
    0   12   12     -3.89      0.00
    2   12   12     -1.48      0.00
    4   12   12      1.46      0.00
    6   12   12      3.30      0.00
    8   12   12      8.57      0.00
   10   12   12      6.65      0.00
   12   12   12      8.12      0.00
    1   13   12     -6.12      0.00
    3   13   12      3.80      0.00
    5   13   12     -3.39      0.00
    7   13   12      3.11      0.00
    9   13   12     -1.87      0.00
   11   13   12     11.71      0.00
    0   14   12      9.72      0.00
    2   14   12     -4.95      0.00
    4   14   12      6.95      0.00
    6   14   12     -6.79      0.00
    8   14   12      2.38      0.00
   10   14   12     21.24      0.00
   12   14   12      3.77      0.00
   14   14   12      4.53      0.00
    1   15   12      1.26      0.00
    3   15   12      6.15      0.00
    5   15   12     -6.84      0.00
    7   15   12     -1.83      0.00
    9   15   12     -1.23      0.00
   11   15   12     -4.54      0.00
   13   15   12      1.97      0.00
    0   16   12      8.97      0.00
    2   16   12     -6.90      0.00
    4   16   12     -7.86      0.00
    6   16   12      5.78      0.00
    8   16   12     -0.11      0.00
   10   16   12      0.10      0.00
   12   16   12      4.31      0.00
   14   16   12     -1.12      0.00
   16   16   12      1.24      0.00
    1   17   12     11.61      0.00
    3   17   12      4.03      0.00
    5   17   12     -4.93      0.00
    7   17   12     -0.87      0.00
    9   17   12     -9.36      0.00
   11   17   12     -4.80      0.00
   13   17   12     -4.36      0.00
   15   17   12      4.31      0.00
    0   18   12    -10.12      0.00
    2   18   12      6.26      0.00
    4   18   12      7.85      0.00
    6   18   12      5.79      0.00
    8   18   12      4.71      0.00
   10   18   12      4.73      0.00
   12   18   12     -4.99      0.00
   14   18   12     -2.62      0.00
   16   18   12     -6.51      0.00
    1   19   12     -4.30      0.00
    3   19   12      3.22      0.00
    5   19   12      1.14      0.00
    7   19   12      7.50      0.00
    9   19   12     -2.85      0.00
   11   19   12      9.00      0.00
   13   19   12     -3.61      0.00
   15   19   12      0.52      0.00
    0   20   12     -2.09      0.00
    2   20   12     -0.19      0.00
    4   20   12     -2.42      0.00
    6   20   12     -5.82      0.00
    8   20   12     -2.30      0.00
   10   20   12     -1.10      0.00
   12   20   12     -6.42      0.00
   14   20   12      3.06      0.00
    1   21   12      0.99      0.00
    3   21   12      9.38      0.00
    5   21   12      5.35      0.00
    7   21   12     -0.75      0.00
    9   21   12     -1.06      0.00
   11   21   12      1.44      0.00
   13   21   12     -2.00      0.00
    0   22   12     11.38      0.00
    2   22   12     -2.98      0.00
    4   22   12      1.73      0.00
    6   22   12      8.43      0.00
    8   22   12     -3.54      0.00
   10   22   12     -9.39      0.00
   12   22   12      6.23      0.00
    1   23   12      4.45      0.00
    3   23   12      6.45      0.00
    5   23   12     -6.23      0.00
    7   23   12      0.56      0.00
    9   23   12     -3.39      0.00
    0   24   12     -0.21      0.00
    2   24   12     11.37      0.00
    4   24   12      3.14      0.00
    6   24   12    -11.55      0.00
    1   25   12     -6.31      0.00
    3   25   12     -8.79      0.00
    0    1   13     45.34      0.00
    1    2   13    -23.07      0.00
    0    3   13     29.16      0.00
    2    3   13    -18.60      0.00
    1    4   13    -35.46      0.00
    3    4   13     -7.91      0.00
    0    5   13    -24.02      0.00
    2    5   13    -12.44      0.00
    4    5   13     -3.38      0.00
    1    6   13     -8.28      0.00
    3    6   13    -17.88      0.00
    5    6   13      4.81      0.00
    0    7   13    -20.74      0.00
    2    7   13     12.51      0.00
    4    7   13    -13.00      0.00
    6    7   13     -0.40      0.00
    1    8   13     -7.01      0.00
    3    8   13      7.22      0.00
    5    8   13     -8.99      0.00
    7    8   13     -1.86      0.00
    0    9   13     -0.25      0.00
    2    9   13      2.76      0.00
    4    9   13     -2.76      0.00
    6    9   13     -0.90      0.00
    8    9   13      8.04      0.00
    1   10   13     -3.03      0.00
    3   10   13     -7.60      0.00
    5   10   13      4.81      0.00
    7   10   13     -2.24      0.00
    9   10   13     -2.48      0.00
    0   11   13    -15.33      0.00
    2   11   13     -6.63      0.00
    4   11   13     -7.40      0.00
    6   11   13      4.40      0.00
    8   11   13     -6.62      0.00
   10   11   13     -2.82      0.00
    1   12   13     -3.37      0.00
    3   12   13     -1.18      0.00
    5   12   13    -14.63      0.00
    7   12   13     -2.61      0.00
    9   12   13      6.93      0.00
   11   12   13     -0.89      0.00
    0   13   13     -3.99      0.00
    2   13   13     -5.66      0.00
    4   13   13     -2.87      0.00
    6   13   13     -3.35      0.00
    8   13   13     -6.37      0.00
   10   13   13     -4.27      0.00
   12   13   13      2.27      0.00
    1   14   13     -0.07      0.00
    3   14   13      0.04      0.00
    5   14   13     -0.08      0.00
    7   14   13     -0.18      0.00
    9   14   13      2.24      0.00
   11   14   13     -1.06      0.00
   13   14   13     -1.48      0.00
    0   15   13     -3.37      0.00
    2   15   13      0.07      0.00
    4   15   13     -3.09      0.00
    6   15   13      1.89      0.00
    8   15   13     -5.10      0.00
   10   15   13     -5.74      0.00
   12   15   13     -7.32      0.00
   14   15   13     -1.74      0.00
    1   16   13     -4.47      0.00
    3   16   13      3.68      0.00
    5   16   13      0.26      0.00
    7   16   13     -1.33      0.00
    9   16   13      0.47      0.00
   11   16   13     -4.56      0.00
   13   16   13      4.96      0.00
   15   16   13     -5.24      0.00
    0   17   13      5.61      0.00
    2   17   13     -6.43      0.00
    4   17   13     -1.45      0.00
    6   17   13     -1.89      0.00
    8   17   13      1.59      0.00
   10   17   13      2.54      0.00
   12   17   13      9.71      0.00
   14   17   13     -1.03      0.00
   16   17   13    -10.90      0.00
    1   18   13    -10.13      0.00
    3   18   13     -4.73      0.00
    5   18   13     -0.59      0.00
    7   18   13     -2.86      0.00
    9   18   13     -0.69      0.00
   11   18   13     10.46      0.00
   13   18   13      1.33      0.00
   15   18   13      2.87      0.00
   17   18   13     -0.27      0.00
    0   19   13      3.56      0.00
    2   19   13     -1.07      0.00
    4   19   13    -12.88      0.00
    6   19   13     -8.30      0.00
    8   19   13     10.34      0.00
   10   19   13     -2.18      0.00
   12   19   13     -3.13      0.00
   14   19   13      2.85      0.00
   16   19   13      2.10      0.00
    1   20   13      6.10      0.00
    3   20   13     -5.16      0.00
    5   20   13      7.94      0.00
    7   20   13      6.55      0.00
    9   20   13     -0.73      0.00
   11   20   13     -2.31      0.00
   13   20   13      6.02      0.00
   15   20   13      1.06      0.00
    0   21   13      1.82      0.00
    2   21   13      4.97      0.00
    4   21   13      1.83      0.00
    6   21   13      4.10      0.00
    8   21   13     -1.32      0.00
   10   21   13     -1.84      0.00
   12   21   13     -2.16      0.00
    1   22   13     -2.69      0.00
    3   22   13      2.16      0.00
    5   22   13     -4.81      0.00
    7   22   13     -2.45      0.00
    9   22   13      2.59      0.00
   11   22   13     -2.48      0.00
    0   23   13      6.59      0.00
    2   23   13      4.26      0.00
    4   23   13     10.74      0.00
    6   23   13      6.75      0.00
    8   23   13      2.35      0.00
   10   23   13      7.17      0.00
    1   24   13     -5.09      0.00
    3   24   13     -8.13      0.00
    5   24   13     10.02      0.00
    7   24   13     -3.24      0.00
    0   25   13     -0.68      0.00
    2   25   13     -0.72      0.00
    1    1   14      1.52      0.00
    0    2   14    -94.02      0.00
    1    3   14    -25.05      0.00
    3    3   14     15.69      0.00
    0    4   14    -18.16      0.00
    2    4   14    -20.47      0.00
    1    5   14     -5.14      0.00
    3    5   14      0.90      0.00
    5    5   14      1.42      0.00
    0    6   14    -25.03      0.00
    2    6   14     16.63      0.00
    4    6   14    -21.02      0.00
    1    7   14      7.32      0.00
    3    7   14      4.06      0.00
    5    7   14     -0.59      0.00
    7    7   14      0.53      0.00
    0    8   14    -13.54      0.00
    2    8   14      2.08      0.00
    4    8   14     -4.03      0.00
    6    8   14     -5.64      0.00
    1    9   14      5.29      0.00
    3    9   14      4.84      0.00
    5    9   14     -5.92      0.00
    7    9   14      6.26      0.00
    9    9   14     18.30      0.00
    0   10   14     -1.76      0.00
    2   10   14      0.69      0.00
    4   10   14     -3.49      0.00
    6   10   14     -0.46      0.00
    8   10   14     -6.41      0.00
    1   11   14      4.71      0.00
    3   11   14      4.74      0.00
    5   11   14      7.09      0.00
    7   11   14      1.28      0.00
    9   11   14     10.21      0.00
   11   11   14      1.25      0.00
    0   12   14     -2.24      0.00
    2   12   14      2.31      0.00
    4   12   14      2.24      0.00
    6   12   14      2.53      0.00
    8   12   14     -4.33      0.00
   10   12   14      8.51      0.00
    1   13   14      2.55      0.00
    3   13   14      8.23      0.00
    5   13   14     -6.21      0.00
    7   13   14      6.28      0.00
    9   13   14      8.26      0.00
   11   13   14      2.46      0.00
   13   13   14      2.39      0.00
    0   14   14      7.79      0.00
    2   14   14     -7.12      0.00
    4   14   14     -1.45      0.00
    6   14   14     -0.27      0.00
    8   14   14      1.27      0.00
   10   14   14      0.18      0.00
   12   14   14     -2.07      0.00
    1   15   14      4.88      0.00
    3   15   14     -1.19      0.00
    5   15   14     -0.98      0.00
    7   15   14     -2.93      0.00
    9   15   14      2.24      0.00
   11   15   14     -0.88      0.00
   13   15   14      4.35      0.00
   15   15   14     -7.07      0.00
    0   16   14      4.81      0.00
    2   16   14     -3.14      0.00
    4   16   14      0.41      0.00
    6   16   14      1.11      0.00
    8   16   14      1.51      0.00
   10   16   14      2.67      0.00
   12   16   14      0.76      0.00
   14   16   14     -6.91      0.00
    1   17   14     -5.18      0.00
    3   17   14      0.87      0.00
    5   17   14      2.35      0.00
    7   17   14     -2.54      0.00
    9   17   14     -7.56      0.00
   11   17   14     -4.62      0.00
   13   17   14     -5.12      0.00
   15   17   14      3.47      0.00
   17   17   14      4.90      0.00
    0   18   14     -7.25      0.00
    2   18   14     -2.67      0.00
    4   18   14     -6.62      0.00
    6   18   14     -1.21      0.00
    8   18   14      6.41      0.00
   10   18   14      1.35      0.00
   12   18   14     -9.01      0.00
   14   18   14      1.36      0.00
   16   18   14      9.75      0.00
    1   19   14     -0.76      0.00
    3   19   14      3.49      0.00
    5   19   14      9.31      0.00
    7   19   14     -8.83      0.00
    9   19   14     -6.87      0.00
   11   19   14     -6.01      0.00
   13   19   14      3.15      0.00
   15   19   14     -2.26      0.00
    0   20   14    -16.01      0.00
    2   20   14     10.66      0.00
    4   20   14      0.09      0.00
    6   20   14      0.87      0.00
    8   20   14     -5.49      0.00
   10   20   14      5.19      0.00
   12   20   14     -0.50      0.00
   14   20   14      3.67      0.00
    1   21   14      3.50      0.00
    3   21   14     -3.87      0.00
    5   21   14      5.48      0.00
    7   21   14      9.98      0.00
    9   21   14     10.42      0.00
   11   21   14      0.20      0.00
   13   21   14     -7.01      0.00
    0   22   14      8.45      0.00
    2   22   14      5.21      0.00
    4   22   14     10.67      0.00
    6   22   14      5.87      0.00
    8   22   14      3.40      0.00
   10   22   14     10.92      0.00
   12   22   14      7.27      0.00
    1   23   14     -7.72      0.00
    3   23   14     -0.95      0.00
    5   23   14      6.57      0.00
    7   23   14      2.27      0.00
    9   23   14      2.75      0.00
    0   24   14     -3.76      0.00
    2   24   14      0.30      0.00
    4   24   14     -2.41      0.00
    6   24   14      2.47      0.00
    1   25   14     -5.26      0.00
    0    1   15    -19.60      0.00
    1    2   15    -38.79      0.00
    0    3   15    -50.87      0.00
    2    3   15      9.21      0.00
    1    4   15      4.58      0.00
    3    4   15      4.46      0.00
    0    5   15     54.01      0.00
    2    5   15    -27.99      0.00
    4    5   15     -1.78      0.00
    1    6   15      7.42      0.00
    3    6   15      6.62      0.00
    5    6   15      4.33      0.00
    0    7   15     -5.63      0.00
    2    7   15     14.27      0.00
    4    7   15     -2.17      0.00
    6    7   15    -16.61      0.00
    1    8   15      2.43      0.00
    3    8   15     -4.02      0.00
    5    8   15     -0.10      0.00
    7    8   15      8.19      0.00
    0    9   15     19.86      0.00
    2    9   15    -11.28      0.00
    4    9   15      4.55      0.00
    6    9   15     -6.78      0.00
    8    9   15     -9.95      0.00
    1   10   15      0.38      0.00
    3   10   15      2.98      0.00
    5   10   15      8.17      0.00
    7   10   15     -1.79      0.00
    9   10   15     -1.39      0.00
    0   11   15     -1.52      0.00
    2   11   15     -1.28      0.00
    4   11   15     -3.21      0.00
    6   11   15      6.94      0.00
    8   11   15     -4.00      0.00
   10   11   15     -1.48      0.00
    1   12   15     -2.02      0.00
    3   12   15     -0.41      0.00
    5   12   15     -3.44      0.00
    7   12   15     -1.53      0.00
    9   12   15     -2.55      0.00
   11   12   15     -1.92      0.00
    0   13   15      8.35      0.00
    2   13   15      1.24      0.00
    4   13   15     -2.10      0.00
    6   13   15      0.51      0.00
    8   13   15     -2.85      0.00
   10   13   15     -2.28      0.00
   12   13   15     -7.20      0.00
    1   14   15     -6.51      0.00
    3   14   15     -6.36      0.00
    5   14   15      3.06      0.00
    7   14   15     -1.98      0.00
    9   14   15     -8.00      0.00
   11   14   15      6.48      0.00
   13   14   15      1.65      0.00
    0   15   15     -6.41      0.00
    2   15   15     -6.44      0.00
    4   15   15      7.54      0.00
    6   15   15     -2.67      0.00
    8   15   15      5.71      0.00
   10   15   15      0.35      0.00
   12   15   15     -0.52      0.00
   14   15   15     -4.42      0.00
    1   16   15     -6.13      0.00
    3   16   15      1.72      0.00
    5   16   15      2.94      0.00
    7   16   15     -0.76      0.00
    9   16   15      3.10      0.00
   11   16   15      5.31      0.00
   13   16   15      6.13      0.00
   15   16   15      3.87      0.00
    0   17   15      1.22      0.00
    2   17   15    -10.14      0.00
    4   17   15     -6.37      0.00
    6   17   15     12.76      0.00
    8   17   15      1.64      0.00
   10   17   15     11.09      0.00
   12   17   15    -10.01      0.00
   14   17   15     -2.56      0.00
   16   17   15      8.45      0.00
    1   18   15     12.80      0.00
    3   18   15      1.71      0.00
    5   18   15      2.52      0.00
    7   18   15      1.64      0.00
    9   18   15     -3.23      0.00
   11   18   15    -10.45      0.00
   13   18   15     -1.79      0.00
   15   18   15     -1.55      0.00
   17   18   15      1.05      0.00
    0   19   15     -8.40      0.00
    2   19   15      5.54      0.00
    4   19   15      0.89      0.00
    6   19   15      8.54      0.00
    8   19   15      7.02      0.00
   10   19   15      1.34      0.00
   12   19   15      3.51      0.00
   14   19   15      0.18      0.00
   16   19   15     -7.25      0.00
    1   20   15      1.48      0.00
    3   20   15     -1.41      0.00
    5   20   15     12.38      0.00
    7   20   15      1.44      0.00
    9   20   15    -12.42      0.00
   11   20   15     -3.50      0.00
   13   20   15     -5.12      0.00
   15   20   15      3.64      0.00
    0   21   15     -4.59      0.00
    2   21   15      0.15      0.00
    4   21   15    -10.25      0.00
    6   21   15    -10.62      0.00
    8   21   15     -2.76      0.00
   10   21   15      6.31      0.00
   12   21   15     -2.66      0.00
    1   22   15     -4.18      0.00
    3   22   15      1.69      0.00
    5   22   15     -1.04      0.00
    7   22   15     -7.75      0.00
    9   22   15      2.62      0.00
   11   22   15     -8.26      0.00
    0   23   15     12.95      0.00
    2   23   15     -6.96      0.00
    4   23   15     -5.07      0.00
    6   23   15      7.68      0.00
    8   23   15      0.07      0.00
    1   24   15     -4.84      0.00
    3   24   15     -2.38      0.00
    5   24   15      3.05      0.00
    7   24   15      1.86      0.00
    0   25   15      4.20      0.00
    0    0   16    103.20      0.00
    0    2   16     45.52      0.00
    2    2   16     54.17      0.00
    1    3   16      9.31      0.00
    0    4   16     65.48      0.00
    2    4   16    -31.20      0.00
    4    4   16     -8.18      0.00
    1    5   16     -2.54      0.00
    3    5   16      5.89      0.00
    0    6   16      4.72      0.00
    2    6   16    -20.11      0.00
    4    6   16     12.04      0.00
    6    6   16    -11.42      0.00
    1    7   16     -9.81      0.00
    3    7   16      0.59      0.00
    5    7   16     10.21      0.00
    0    8   16      7.48      0.00
    2    8   16      6.66      0.00
    4    8   16     -1.99      0.00
    6    8   16      5.46      0.00
    8    8   16      4.56      0.00
    1    9   16      2.23      0.00
    3    9   16     -4.91      0.00
    5    9   16     10.32      0.00
    7    9   16     -2.77      0.00
    0   10   16     -4.66      0.00
    2   10   16     -0.56      0.00
    4   10   16      3.71      0.00
    6   10   16     -3.85      0.00
    8   10   16     -2.51      0.00
   10   10   16     -4.65      0.00
    1   11   16      6.22      0.00
    3   11   16      4.90      0.00
    5   11   16     -2.37      0.00
    7   11   16     -1.26      0.00
    9   11   16     -0.27      0.00
    0   12   16      3.06      0.00
    2   12   16     -7.58      0.00
    4   12   16      2.76      0.00
    6   12   16      1.29      0.00
    8   12   16     -3.21      0.00
   10   12   16      1.40      0.00
   12   12   16    -11.08      0.00
    1   13   16      6.69      0.00
    3   13   16     -2.40      0.00
    5   13   16     -8.63      0.00
    7   13   16      2.68      0.00
    9   13   16      3.10      0.00
   11   13   16      3.57      0.00
    0   14   16      3.30      0.00
    2   14   16     -1.06      0.00
    4   14   16      5.55      0.00
    6   14   16      2.38      0.00
    8   14   16      0.46      0.00
   10   14   16     -5.78      0.00
   12   14   16     -2.04      0.00
   14   14   16     -6.01      0.00
    1   15   16     -5.41      0.00
    3   15   16     -1.87      0.00
    5   15   16     -9.02      0.00
    7   15   16      3.23      0.00
    9   15   16     -0.56      0.00
   11   15   16      4.96      0.00
   13   15   16      1.28      0.00
    0   16   16     -0.40      0.00
    2   16   16      7.03      0.00
    4   16   16      4.11      0.00
    6   16   16     -4.90      0.00
    8   16   16    -14.09      0.00
   10   16   16      2.13      0.00
   12   16   16     -9.74      0.00
   14   16   16      4.58      0.00
   16   16   16      8.59      0.00
    1   17   16     -3.54      0.00
    3   17   16      6.22      0.00
    5   17   16     -3.45      0.00
    7   17   16      0.03      0.00
    9   17   16     -2.03      0.00
   11   17   16     -0.04      0.00
   13   17   16    -10.88      0.00
   15   17   16      3.54      0.00
    0   18   16      9.11      0.00
    2   18   16      4.41      0.00
    4   18   16      2.11      0.00
    6   18   16      0.49      0.00
    8   18   16      2.33      0.00
   10   18   16      7.63      0.00
   12   18   16      9.09      0.00
   14   18   16      2.35      0.00
   16   18   16     -0.28      0.00
    1   19   16     -5.40      0.00
    3   19   16      9.24      0.00
    5   19   16      5.45      0.00
    7   19   16    -12.44      0.00
    9   19   16    -13.89      0.00
   11   19   16     -2.07      0.00
   13   19   16      2.56      0.00
   15   19   16     -0.76      0.00
    0   20   16     -0.04      0.00
    2   20   16      2.87      0.00
    4   20   16     -0.09      0.00
    6   20   16     -7.78      0.00
    8   20   16      5.98      0.00
   10   20   16      5.76      0.00
   12   20   16     10.52      0.00
   14   20   16      2.13      0.00
    1   21   16      8.46      0.00
    3   21   16     -1.64      0.00
    5   21   16     -4.43      0.00
    7   21   16     -1.61      0.00
    9   21   16     -4.97      0.00
   11   21   16     -1.25      0.00
   13   21   16      3.75      0.00
    0   22   16     -3.87      0.00
    2   22   16      1.57      0.00
    4   22   16     -3.72      0.00
    6   22   16      0.06      0.00
    8   22   16     11.63      0.00
   10   22   16      5.77      0.00
    1   23   16    -14.08      0.00
    3   23   16     -0.64      0.00
    5   23   16     -3.35      0.00
    7   23   16      3.36      0.00
    9   23   16     -6.88      0.00
    0   24   16      1.90      0.00
    2   24   16     -1.74      0.00
    4   24   16      4.66      0.00
    6   24   16      2.85      0.00
    0    1   17     53.87      0.00
    1    2   17     -1.42      0.00
    0    3   17    -10.63      0.00
    2    3   17    -13.93      0.00
    1    4   17    -11.51      0.00
    3    4   17     -2.50      0.00
    0    5   17     -0.41      0.00
    2    5   17    -15.02      0.00
    4    5   17     -5.15      0.00
    1    6   17     -4.77      0.00
    3    6   17     -0.84      0.00
    5    6   17     12.94      0.00
    0    7   17     -8.69      0.00
    2    7   17     -0.77      0.00
    4    7   17     -3.24      0.00
    6    7   17     -0.01      0.00
    1    8   17      4.95      0.00
    3    8   17     -2.66      0.00
    5    8   17     -0.05      0.00
    7    8   17     -8.10      0.00
    0    9   17     -2.49      0.00
    2    9   17     10.08      0.00
    4    9   17      3.96      0.00
    6    9   17      8.19      0.00
    8    9   17      0.56      0.00
    1   10   17      1.28      0.00
    3   10   17      1.74      0.00
    5   10   17     -0.75      0.00
    7   10   17      3.52      0.00
    9   10   17      3.40      0.00
    0   11   17     -3.37      0.00
    2   11   17     12.76      0.00
    4   11   17     -1.04      0.00
    6   11   17     -0.08      0.00
    8   11   17      0.11      0.00
   10   11   17     -2.01      0.00
    1   12   17      0.40      0.00
    3   12   17      2.29      0.00
    5   12   17      0.02      0.00
    7   12   17     -3.25      0.00
    9   12   17     -7.70      0.00
   11   12   17    -10.08      0.00
    0   13   17      1.80      0.00
    2   13   17     -4.98      0.00
    4   13   17      1.08      0.00
    6   13   17      2.46      0.00
    8   13   17     -3.91      0.00
   10   13   17      6.22      0.00
   12   13   17     -4.17      0.00
    1   14   17     -3.13      0.00
    3   14   17     -2.81      0.00
    5   14   17     -3.50      0.00
    7   14   17     -3.29      0.00
    9   14   17     -4.17      0.00
   11   14   17     -9.42      0.00
   13   14   17      7.01      0.00
    0   15   17     -6.56      0.00
    2   15   17      3.36      0.00
    4   15   17      4.37      0.00
    6   15   17      3.28      0.00
    8   15   17      2.41      0.00
   10   15   17      1.64      0.00
   12   15   17      0.70      0.00
   14   15   17     10.96      0.00
    1   16   17      2.38      0.00
    3   16   17      4.39      0.00
    5   16   17     -0.19      0.00
    7   16   17     -0.93      0.00
    9   16   17      2.26      0.00
   11   16   17      4.86      0.00
   13   16   17     -3.93      0.00
   15   16   17      6.75      0.00
    0   17   17      4.27      0.00
    2   17   17     -4.38      0.00
    4   17   17     -2.68      0.00
    6   17   17      5.10      0.00
    8   17   17     12.70      0.00
   10   17   17     -0.07      0.00
   12   17   17     -0.62      0.00
   14   17   17     -5.31      0.00
   16   17   17     -6.05      0.00
    1   18   17      2.19      0.00
    3   18   17     -5.10      0.00
    5   18   17      6.16      0.00
    7   18   17      2.77      0.00
    9   18   17     -4.25      0.00
   11   18   17    -14.69      0.00
   13   18   17      8.41      0.00
   15   18   17     -0.97      0.00
   17   18   17     -4.11      0.00
    0   19   17     -9.56      0.00
    2   19   17     -4.99      0.00
    4   19   17     -3.83      0.00
    6   19   17     -3.79      0.00
    8   19   17      4.48      0.00
   10   19   17     -2.38      0.00
   12   19   17      6.03      0.00
   14   19   17     -3.23      0.00
   16   19   17      1.36      0.00
    1   20   17      6.59      0.00
    3   20   17     -0.42      0.00
    5   20   17     -0.43      0.00
    7   20   17     -9.76      0.00
    9   20   17     -5.78      0.00
   11   20   17      3.68      0.00
   13   20   17      6.30      0.00
    0   21   17      2.50      0.00
    2   21   17      1.33      0.00
    4   21   17     -7.01      0.00
    6   21   17      3.39      0.00
    8   21   17      4.82      0.00
   10   21   17      3.24      0.00
   12   21   17     -0.48      0.00
    1   22   17      3.41      0.00
    3   22   17     -9.83      0.00
    5   22   17     -1.09      0.00
    7   22   17      2.80      0.00
    9   22   17     -2.19      0.00
   11   22   17     -8.56      0.00
    0   23   17     10.14      0.00
    2   23   17      4.68      0.00
    4   23   17      3.83      0.00
    6   23   17     -3.43      0.00
    8   23   17     -3.21      0.00
    1   24   17      3.74      0.00
    3   24   17     -0.21      0.00
    5   24   17      5.67      0.00
    1    1   18    -25.79      0.00
    0    2   18     -5.29      0.00
    1    3   18     -2.00      0.00
    3    3   18     -9.54      0.00
    0    4   18     -4.10      0.00
    2    4   18      7.34      0.00
    1    5   18      3.10      0.00
    3    5   18     10.72      0.00
    5    5   18      5.30      0.00
    0    6   18    -26.21      0.00
    2    6   18     13.81      0.00
    4    6   18     -7.21      0.00
    1    7   18      1.14      0.00
    3    7   18     11.70      0.00
    5    7   18     -3.12      0.00
    7    7   18     -6.43      0.00
    0    8   18     -0.03      0.00
    2    8   18      5.80      0.00
    4    8   18    -10.57      0.00
    6    8   18      4.31      0.00
    1    9   18      3.26      0.00
    3    9   18     -5.06      0.00
    5    9   18      1.77      0.00
    7    9   18     -1.42      0.00
    9    9   18     -8.78      0.00
    0   10   18     -6.38      0.00
    2   10   18     14.33      0.00
    4   10   18      0.83      0.00
    6   10   18     -3.79      0.00
    8   10   18      0.64      0.00
    1   11   18     -1.89      0.00
    3   11   18     10.79      0.00
    5   11   18     -9.21      0.00
    7   11   18     -2.44      0.00
    9   11   18      2.93      0.00
   11   11   18    -11.51      0.00
    0   12   18     17.37      0.00
    2   12   18     -1.86      0.00
    4   12   18      1.60      0.00
    6   12   18      4.93      0.00
    8   12   18      2.92      0.00
   10   12   18      3.82      0.00
    1   13   18     -0.83      0.00
    3   13   18     -5.08      0.00
    5   13   18      1.09      0.00
    7   13   18     -1.95      0.00
    9   13   18      2.55      0.00
   11   13   18     -9.62      0.00
   13   13   18     -0.28      0.00
    0   14   18      1.62      0.00
    2   14   18      3.27      0.00
    4   14   18     -2.05      0.00
    6   14   18     -1.33      0.00
    8   14   18     -0.34      0.00
   10   14   18      1.79      0.00
   12   14   18     -2.69      0.00
    1   15   18     -3.89      0.00
    3   15   18      0.92      0.00
    5   15   18    -10.01      0.00
    7   15   18     -9.22      0.00
    9   15   18    -11.68      0.00
   11   15   18      2.84      0.00
   13   15   18      3.47      0.00
   15   15   18     -9.67      0.00
    0   16   18     -5.19      0.00
    2   16   18     -3.09      0.00
    4   16   18     -1.22      0.00
    6   16   18     -6.76      0.00
    8   16   18      1.72      0.00
   10   16   18     -3.01      0.00
   12   16   18      1.05      0.00
   14   16   18     -8.11      0.00
    1   17   18      2.04      0.00
    3   17   18     -4.38      0.00
    5   17   18     -5.30      0.00
    7   17   18    -10.09      0.00
    9   17   18     -1.86      0.00
   11   17   18      5.37      0.00
   13   17   18     17.73      0.00
   15   17   18      4.70      0.00
   17   17   18     -0.70      0.00
    0   18   18     -3.04      0.00
    2   18   18      1.93      0.00
    4   18   18     -4.89      0.00
    6   18   18     -4.18      0.00
    8   18   18    -11.31      0.00
   10   18   18      5.56      0.00
   12   18   18      2.99      0.00
   14   18   18     -1.77      0.00
   16   18   18      9.36      0.00
    1   19   18      9.44      0.00
    3   19   18     -5.34      0.00
    5   19   18      0.49      0.00
    7   19   18     -3.24      0.00
    9   19   18      0.22      0.00
   11   19   18     -1.24      0.00
   13   19   18      0.32      0.00
   15   19   18     -0.14      0.00
    0   20   18     -3.29      0.00
    2   20   18     -3.97      0.00
    4   20   18     -5.39      0.00
    6   20   18     -0.17      0.00
    8   20   18      3.51      0.00
   10   20   18      6.61      0.00
   12   20   18     -0.62      0.00
   14   20   18     -0.59      0.00
    1   21   18     -5.25      0.00
    3   21   18     -3.39      0.00
    5   21   18      0.14      0.00
    7   21   18     -2.64      0.00
    9   21   18     -6.70      0.00
   11   21   18     -4.79      0.00
   13   21   18     -5.18      0.00
    0   22   18    -22.08      0.00
    2   22   18      1.46      0.00
    4   22   18     -3.41      0.00
    6   22   18     -0.97      0.00
    8   22   18      4.89      0.00
   10   22   18      3.98      0.00
    1   23   18     -0.04      0.00
    3   23   18      3.22      0.00
    5   23   18      3.24      0.00
    7   23   18    -12.27      0.00
    9   23   18     -5.51      0.00
    0   24   18      0.84      0.00
    2   24   18     -4.59      0.00
    4   24   18     -7.28      0.00
    6   24   18     -1.30      0.00
    0    1   19     15.41      0.00
    1    2   19     -3.68      0.00
    0    3   19     36.56      0.00
    2    3   19     11.51      0.00
    1    4   19      5.08      0.00
    3    4   19      7.53      0.00
    0    5   19     -1.03      0.00
    2    5   19     17.86      0.00
    4    5   19     -5.10      0.00
    1    6   19     -4.28      0.00
    3    6   19     -0.98      0.00
    5    6   19     -4.44      0.00
    0    7   19     13.62      0.00
    2    7   19    -13.57      0.00
    4    7   19      2.24      0.00
    6    7   19      3.83      0.00
    1    8   19     -2.85      0.00
    3    8   19      7.19      0.00
    5    8   19     -2.02      0.00
    7    8   19      0.57      0.00
    0    9   19      2.17      0.00
    2    9   19     -3.10      0.00
    4    9   19      0.40      0.00
    6    9   19      3.33      0.00
    8    9   19      6.72      0.00
    1   10   19     -1.88      0.00
    3   10   19     -0.78      0.00
    5   10   19      0.90      0.00
    7   10   19      1.89      0.00
    9   10   19      2.31      0.00
    0   11   19     -2.26      0.00
    2   11   19     -5.72      0.00
    4   11   19      1.95      0.00
    6   11   19      3.35      0.00
    8   11   19     -1.44      0.00
   10   11   19      3.94      0.00
    1   12   19     -1.22      0.00
    3   12   19     -8.21      0.00
    5   12   19      4.27      0.00
    7   12   19     -4.33      0.00
    9   12   19     -5.32      0.00
   11   12   19      2.64      0.00
    0   13   19     -1.55      0.00
    2   13   19     -9.36      0.00
    4   13   19      3.40      0.00
    6   13   19      2.80      0.00
    8   13   19      3.64      0.00
   10   13   19      2.88      0.00
   12   13   19      1.62      0.00
    1   14   19      4.34      0.00
    3   14   19      2.27      0.00
    5   14   19     -6.64      0.00
    7   14   19     -6.30      0.00
    9   14   19     -6.54      0.00
   11   14   19     -5.41      0.00
   13   14   19      1.55      0.00
    0   15   19      1.52      0.00
    2   15   19     -0.32      0.00
    4   15   19      2.90      0.00
    6   15   19     13.17      0.00
    8   15   19     -0.82      0.00
   10   15   19      4.51      0.00
   12   15   19      0.68      0.00
   14   15   19     -0.82      0.00
    1   16   19      3.00      0.00
    3   16   19    -14.17      0.00
    5   16   19      0.27      0.00
    7   16   19      4.19      0.00
    9   16   19     -8.80      0.00
   11   16   19    -13.51      0.00
   13   16   19     -6.02      0.00
   15   16   19     -8.90      0.00
    0   17   19     -7.96      0.00
    2   17   19     -4.26      0.00
    4   17   19     -0.94      0.00
    6   17   19     -3.59      0.00
    8   17   19      0.67      0.00
   10   17   19     -4.87      0.00
   12   17   19     -7.31      0.00
   14   17   19      0.46      0.00
   16   17   19      2.43      0.00
    1   18   19     -1.40      0.00
    3   18   19     -5.81      0.00
    5   18   19     -0.86      0.00
    7   18   19      1.93      0.00
    9   18   19      1.70      0.00
   11   18   19     -2.51      0.00
   13   18   19    -19.42      0.00
   15   18   19     -5.61      0.00
   17   18   19    -12.07      0.00
    0   19   19     -2.31      0.00
    2   19   19     -9.30      0.00
    4   19   19    -13.57      0.00
    6   19   19      4.09      0.00
    8   19   19     -7.25      0.00
   10   19   19     18.56      0.00
   12   19   19      0.96      0.00
   14   19   19      0.36      0.00
    1   20   19      3.81      0.00
    3   20   19     -1.32      0.00
    5   20   19      5.73      0.00
    7   20   19      2.98      0.00
    9   20   19     10.29      0.00
   11   20   19     -0.66      0.00
   13   20   19     -8.56      0.00
    0   21   19    -11.69      0.00
    2   21   19      1.02      0.00
    4   21   19      1.39      0.00
    6   21   19     -2.50      0.00
    8   21   19      3.69      0.00
   10   21   19      1.62      0.00
   12   21   19     -1.76      0.00
    1   22   19      9.82      0.00
    3   22   19      7.25      0.00
    5   22   19      3.23      0.00
    7   22   19    -11.33      0.00
    9   22   19      1.62      0.00
   11   22   19     -3.56      0.00
    0   23   19     -6.17      0.00
    2   23   19      9.23      0.00
    4   23   19    -11.62      0.00
    6   23   19     -7.15      0.00
    8   23   19      1.00      0.00
    1   24   19     -0.60      0.00
    3   24   19     -8.01      0.00
    5   24   19     -4.75      0.00
    0    0   20     62.42      0.00
    0    2   20     28.32      0.00
    2    2   20     24.03      0.00
    1    3   20      7.59      0.00
    0    4   20     22.25      0.00
    2    4   20    -25.78      0.00
    4    4   20     10.64      0.00
    1    5   20     -4.57      0.00
    3    5   20     -3.85      0.00
    0    6   20     -2.66      0.00
    2    6   20      1.42      0.00
    4    6   20     -0.50      0.00
    6    6   20      2.21      0.00
    1    7   20     -2.14      0.00
    3    7   20     -1.91      0.00
    5    7   20     -4.63      0.00
    0    8   20     11.87      0.00
    2    8   20    -17.10      0.00
    4    8   20     12.98      0.00
    6    8   20      1.79      0.00
    8    8   20      1.57      0.00
    1    9   20     -6.04      0.00
    3    9   20     -6.26      0.00
    5    9   20     -2.78      0.00
    7    9   20     -7.41      0.00
    0   10   20      2.71      0.00
    2   10   20     -1.57      0.00
    4   10   20     -2.06      0.00
    6   10   20      4.35      0.00
    8   10   20     -0.57      0.00
   10   10   20      2.34      0.00
    1   11   20      1.84      0.00
    3   11   20     -3.39      0.00
    5   11   20     -0.94      0.00
    7   11   20      0.30      0.00
    9   11   20     -4.00      0.00
    0   12   20      0.49      0.00
    2   12   20      2.62      0.00
    4   12   20     -0.94      0.00
    6   12   20     -5.05      0.00
    8   12   20      7.63      0.00
   10   12   20      2.99      0.00
   12   12   20     -0.59      0.00
    1   13   20      3.64      0.00
    3   13   20      9.82      0.00
    5   13   20      6.81      0.00
    7   13   20      1.79      0.00
    9   13   20     -5.06      0.00
   11   13   20      2.15      0.00
    0   14   20      2.50      0.00
    2   14   20     -0.68      0.00
    4   14   20      5.89      0.00
    6   14   20      6.10      0.00
    8   14   20      1.56      0.00
   10   14   20      7.76      0.00
   12   14   20     -4.93      0.00
   14   14   20    -17.31      0.00
    1   15   20      6.32      0.00
    3   15   20     -0.88      0.00
    5   15   20     -0.75      0.00
    7   15   20      8.08      0.00
    9   15   20     -7.25      0.00
   11   15   20     -0.19      0.00
   13   15   20     -2.92      0.00
    0   16   20      1.85      0.00
    2   16   20      2.49      0.00
    4   16   20      7.31      0.00
    6   16   20     -4.27      0.00
    8   16   20      0.61      0.00
   10   16   20      9.38      0.00
   12   16   20     -4.49      0.00
   14   16   20      6.80      0.00
   16   16   20      2.45      0.00
    1   17   20     16.02      0.00
    3   17   20      7.46      0.00
    5   17   20     -3.55      0.00
    7   17   20     -6.04      0.00
    9   17   20     -2.53      0.00
   11   17   20     13.77      0.00
   13   17   20     -4.12      0.00
   15   17   20     -2.58      0.00
    0   18   20     -8.06      0.00
    2   18   20     -2.70      0.00
    4   18   20     -3.28      0.00
    6   18   20     -2.23      0.00
    8   18   20     -6.33      0.00
   10   18   20      5.29      0.00
   12   18   20     -1.08      0.00
   14   18   20      3.50      0.00
   16   18   20      2.06      0.00
    1   19   20     -3.02      0.00
    3   19   20      0.53      0.00
    5   19   20     -2.57      0.00
    7   19   20     11.46      0.00
    9   19   20      5.41      0.00
   11   19   20    -15.56      0.00
   13   19   20     -5.29      0.00
   15   19   20     12.85      0.00
    0   20   20    -18.08      0.00
    2   20   20     -3.32      0.00
    4   20   20     -6.40      0.00
    6   20   20    -10.55      0.00
    8   20   20     -4.68      0.00
   10   20   20    -14.36      0.00
   12   20   20     -5.24      0.00
   14   20   20      2.86      0.00
    1   21   20     -9.12      0.00
    3   21   20      8.07      0.00
    5   21   20      6.51      0.00
    7   21   20    -10.34      0.00
    9   21   20     -5.88      0.00
   11   21   20      1.27      0.00
   13   21   20     13.92      0.00
    0   22   20     -5.86      0.00
    2   22   20      6.13      0.00
    4   22   20      5.06      0.00
    6   22   20     -0.94      0.00
    8   22   20     -3.11      0.00
   10   22   20     -9.54      0.00
    1   23   20      1.37      0.00
    3   23   20     -8.03      0.00
    5   23   20      2.56      0.00
    7   23   20      5.80      0.00
    9   23   20    -10.85      0.00
    0   24   20     19.18      0.00
    2   24   20     -0.53      0.00
    4   24   20      4.74      0.00
    0    1   21     -6.57      0.00
    1    2   21     -7.40      0.00
    0    3   21     -1.33      0.00
    2    3   21    -16.69      0.00
    1    4   21      8.67      0.00
    3    4   21      1.08      0.00
    0    5   21      3.31      0.00
    2    5   21     -4.47      0.00
    4    5   21     13.06      0.00
    1    6   21      3.03      0.00
    3    6   21      2.94      0.00
    5    6   21      1.25      0.00
    0    7   21      6.67      0.00
    2    7   21      1.71      0.00
    4    7   21      1.07      0.00
    6    7   21      2.27      0.00
    1    8   21      2.31      0.00
    3    8   21     -7.79      0.00
    5    8   21     -3.96      0.00
    7    8   21     -8.99      0.00
    0    9   21     -5.42      0.00
    2    9   21      1.08      0.00
    4    9   21     -6.35      0.00
    6    9   21     -2.00      0.00
    8    9   21      0.05      0.00
    1   10   21      3.08      0.00
    3   10   21     -3.50      0.00
    5   10   21     -2.48      0.00
    7   10   21     -6.54      0.00
    9   10   21     -2.89      0.00
    0   11   21     -3.80      0.00
    2   11   21      1.32      0.00
    4   11   21      0.13      0.00
    6   11   21      0.36      0.00
    8   11   21     -3.08      0.00
   10   11   21     -2.61      0.00
    1   12   21     -0.09      0.00
    3   12   21      2.36      0.00
    5   12   21      9.27      0.00
    7   12   21      1.57      0.00
    9   12   21     -1.17      0.00
   11   12   21      2.38      0.00
    0   13   21      0.07      0.00
    2   13   21      7.74      0.00
    4   13   21      2.91      0.00
    6   13   21     -3.48      0.00
    8   13   21     -6.42      0.00
   10   13   21     -2.92      0.00
   12   13   21     -4.07      0.00
    1   14   21     -1.35      0.00
    3   14   21      3.00      0.00
    5   14   21     -0.59      0.00
    7   14   21      7.19      0.00
    9   14   21      5.76      0.00
   11   14   21     -2.35      0.00
   13   14   21     -4.70      0.00
    0   15   21      9.92      0.00
    2   15   21      1.02      0.00
    4   15   21     -0.99      0.00
    6   15   21     -0.91      0.00
    8   15   21     -0.88      0.00
   10   15   21      4.21      0.00
   12   15   21     -6.51      0.00
   14   15   21     13.27      0.00
    1   16   21      2.30      0.00
    3   16   21     -3.41      0.00
    5   16   21      2.40      0.00
    7   16   21     -3.23      0.00
    9   16   21      1.15      0.00
   11   16   21     -0.87      0.00
   13   16   21      0.64      0.00
   15   16   21    -11.32      0.00
    0   17   21    -18.91      0.00
    2   17   21     -2.23      0.00
    4   17   21      1.67      0.00
    6   17   21     -2.55      0.00
    8   17   21      8.42      0.00
   10   17   21      0.84      0.00
   12   17   21     -1.21      0.00
   14   17   21     -6.15      0.00
   16   17   21     -0.88      0.00
    1   18   21     -5.46      0.00
    3   18   21     -0.64      0.00
    5   18   21     -2.36      0.00
    7   18   21     -2.86      0.00
    9   18   21      2.02      0.00
   11   18   21      1.03      0.00
   13   18   21      7.05      0.00
   15   18   21     -1.12      0.00
    0   19   21      1.91      0.00
    2   19   21      3.08      0.00
    4   19   21     -3.55      0.00
    6   19   21      3.14      0.00
    8   19   21      0.73      0.00
   10   19   21      1.30      0.00
   12   19   21      6.93      0.00
   14   19   21     -0.01      0.00
    1   20   21      2.30      0.00
    3   20   21      0.82      0.00
    5   20   21      5.94      0.00
    7   20   21      6.55      0.00
    9   20   21      5.27      0.00
   11   20   21     -6.82      0.00
   13   20   21      3.05      0.00
    0   21   21     -3.24      0.00
    2   21   21     -2.25      0.00
    4   21   21      7.14      0.00
    6   21   21     -0.10      0.00
    8   21   21      7.24      0.00
   10   21   21      7.19      0.00
   12   21   21      1.38      0.00
    1   22   21     -5.65      0.00
    3   22   21    -12.95      0.00
    5   22   21     -0.17      0.00
    7   22   21     -4.07      0.00
    9   22   21     -1.29      0.00
   11   22   21      8.24      0.00
    0   23   21     -7.82      0.00
    2   23   21    -13.91      0.00
    4   23   21     -7.80      0.00
    6   23   21      1.90      0.00
    8   23   21      7.34      0.00
    1   24   21      7.86      0.00
    3   24   21      0.40      0.00
    5   24   21      1.04      0.00
    1    1   22     -6.56      0.00
    0    2   22    -33.69      0.00
    1    3   22      4.63      0.00
    3    3   22     25.98      0.00
    0    4   22     12.17      0.00
    2    4   22      1.97      0.00
    1    5   22      8.17      0.00
    3    5   22      0.05      0.00
    5    5   22     13.61      0.00
    0    6   22     -3.70      0.00
    2    6   22     20.05      0.00
    4    6   22     -8.23      0.00
    1    7   22      3.07      0.00
    3    7   22     -3.97      0.00
    5    7   22     -6.15      0.00
    7    7   22      0.95      0.00
    0    8   22    -16.30      0.00
    2    8   22      8.32      0.00
    4    8   22      0.75      0.00
    6    8   22      2.61      0.00
    1    9   22     -2.59      0.00
    3    9   22     10.78      0.00
    5    9   22      1.69      0.00
    7    9   22     -5.11      0.00
    9    9   22      3.50      0.00
    0   10   22      1.85      0.00
    2   10   22      1.52      0.00
    4   10   22     -2.97      0.00
    6   10   22     10.86      0.00
    8   10   22     -1.63      0.00
    1   11   22     -5.30      0.00
    3   11   22      2.71      0.00
    5   11   22     -4.20      0.00
    7   11   22      5.06      0.00
    9   11   22      2.24      0.00
   11   11   22     -5.74      0.00
    0   12   22     -9.37      0.00
    2   12   22      1.46      0.00
    4   12   22      0.88      0.00
    6   12   22     -2.39      0.00
    8   12   22      1.78      0.00
   10   12   22      4.46      0.00
    1   13   22     -5.33      0.00
    3   13   22      3.46      0.00
    5   13   22     -1.80      0.00
    7   13   22      2.09      0.00
    9   13   22      3.10      0.00
   11   13   22     -2.43      0.00
   13   13   22      9.16      0.00
    0   14   22      3.45      0.00
    2   14   22     -9.58      0.00
    4   14   22     -3.49      0.00
    6   14   22      2.85      0.00
    8   14   22      4.43      0.00
   10   14   22      7.13      0.00
   12   14   22      0.18      0.00
    1   15   22      1.31      0.00
    3   15   22      1.71      0.00
    5   15   22      1.69      0.00
    7   15   22     -4.00      0.00
    9   15   22      0.24      0.00
   11   15   22      1.69      0.00
   13   15   22      1.02      0.00
   15   15   22    -10.94      0.00
    0   16   22    -10.64      0.00
    2   16   22      4.75      0.00
    4   16   22      0.08      0.00
    6   16   22      2.12      0.00
    8   16   22      1.39      0.00
   10   16   22      7.06      0.00
   12   16   22      3.79      0.00
   14   16   22      5.17      0.00
    1   17   22      0.32      0.00
    3   17   22      0.48      0.00
    5   17   22      6.63      0.00
    7   17   22     -6.23      0.00
    9   17   22     -5.32      0.00
   11   17   22     -8.62      0.00
   13   17   22      8.29      0.00
   15   17   22     -7.39      0.00
   17   17   22     -3.70      0.00
    0   18   22     -8.32      0.00
    2   18   22      2.24      0.00
    4   18   22     12.18      0.00
    6   18   22      6.58      0.00
    8   18   22      7.29      0.00
   10   18   22    -14.73      0.00
   12   18   22      3.46      0.00
   14   18   22      8.04      0.00
   16   18   22      9.40      0.00
    1   19   22      8.70      0.00
    3   19   22      2.74      0.00
    5   19   22      2.94      0.00
    7   19   22      6.02      0.00
    9   19   22    -12.06      0.00
   11   19   22    -18.87      0.00
   13   19   22     -9.31      0.00
   15   19   22     -0.81      0.00
    0   20   22     -4.13      0.00
    2   20   22      0.82      0.00
    4   20   22      0.07      0.00
    6   20   22      3.82      0.00
    8   20   22     -7.79      0.00
   10   20   22     -4.53      0.00
   12   20   22      3.52      0.00
   14   20   22      3.26      0.00
    1   21   22      5.28      0.00
    3   21   22     -5.57      0.00
    5   21   22      9.37      0.00
    7   21   22     -8.86      0.00
    9   21   22     -6.33      0.00
   11   21   22      0.28      0.00
    0   22   22     -3.57      0.00
    2   22   22      1.80      0.00
    4   22   22      2.03      0.00
    6   22   22      1.97      0.00
    8   22   22     -8.43      0.00
   10   22   22     -2.08      0.00
    1   23   22     10.17      0.00
    3   23   22     11.41      0.00
    5   23   22      6.32      0.00
    7   23   22      3.48      0.00
    0   24   22     -1.15      0.00
    2   24   22     14.01      0.00
    4   24   22      2.11      0.00
    0    1   23      9.68      0.00
    1    2   23      5.18      0.00
    0    3   23     -2.50      0.00
    2    3   23     -8.34      0.00
    1    4   23      4.20      0.00
    3    4   23     -3.73      0.00
    0    5   23    -12.97      0.00
    2    5   23     -4.20      0.00
    4    5   23     -8.19      0.00
    1    6   23      0.20      0.00
    3    6   23      1.29      0.00
    5    6   23     -3.37      0.00
    0    7   23      0.82      0.00
    2    7   23     -2.98      0.00
    4    7   23      2.76      0.00
    6    7   23      0.57      0.00
    1    8   23      2.89      0.00
    3    8   23     -0.50      0.00
    5    8   23     -0.88      0.00
    7    8   23     -0.24      0.00
    0    9   23      1.96      0.00
    2    9   23      1.82      0.00
    4    9   23      2.35      0.00
    6    9   23      4.71      0.00
    8    9   23     -6.97      0.00
    1   10   23     -8.90      0.00
    3   10   23      0.30      0.00
    5   10   23     -4.08      0.00
    7   10   23      1.37      0.00
    9   10   23      1.40      0.00
    0   11   23     14.26      0.00
    2   11   23     -5.03      0.00
    4   11   23      1.22      0.00
    6   11   23     -0.68      0.00
    8   11   23      3.05      0.00
   10   11   23      7.28      0.00
    1   12   23      1.52      0.00
    3   12   23      3.98      0.00
    5   12   23     -3.33      0.00
    7   12   23     -4.41      0.00
    9   12   23     -1.54      0.00
   11   12   23      0.29      0.00
    0   13   23      0.65      0.00
    2   13   23     -2.57      0.00
    4   13   23     -7.19      0.00
    6   13   23     -2.80      0.00
    8   13   23     -2.72      0.00
   10   13   23      8.37      0.00
   12   13   23      2.89      0.00
    1   14   23      2.33      0.00
    3   14   23     -1.78      0.00
    5   14   23      7.67      0.00
    7   14   23     -5.29      0.00
    9   14   23      1.03      0.00
   11   14   23      9.78      0.00
   13   14   23     12.18      0.00
    0   15   23      1.56      0.00
    2   15   23      1.09      0.00
    4   15   23     -3.34      0.00
    6   15   23     -1.74      0.00
    8   15   23     10.56      0.00
   10   15   23     -1.97      0.00
   12   15   23     -2.25      0.00
   14   15   23      4.60      0.00
    1   16   23     -2.85      0.00
    3   16   23     -4.74      0.00
    5   16   23      2.46      0.00
    7   16   23      9.04      0.00
    9   16   23      3.17      0.00
   11   16   23      5.14      0.00
   13   16   23     10.41      0.00
   15   16   23      7.93      0.00
    0   17   23     -3.42      0.00
    2   17   23      6.34      0.00
    4   17   23     10.48      0.00
    6   17   23      8.70      0.00
    8   17   23     -9.70      0.00
   10   17   23     10.63      0.00
   12   17   23      1.32      0.00
   14   17   23      5.21      0.00
   16   17   23      3.81      0.00
    1   18   23     19.10      0.00
    3   18   23     -4.98      0.00
    5   18   23      2.98      0.00
    7   18   23      3.01      0.00
    9   18   23     -0.21      0.00
   11   18   23     11.43      0.00
   13   18   23     -5.24      0.00
   15   18   23     -5.46      0.00
    0   19   23      0.36      0.00
    2   19   23      1.67      0.00
    4   19   23      9.04      0.00
    6   19   23     -1.57      0.00
    8   19   23      6.67      0.00
   10   19   23     12.37      0.00
   12   19   23      1.85      0.00
   14   19   23      2.31      0.00
    1   20   23      1.66      0.00
    3   20   23     -2.86      0.00
    5   20   23      2.22      0.00
    7   20   23      0.85      0.00
    9   20   23     14.59      0.00
   11   20   23      1.14      0.00
   13   20   23     -1.94      0.00
    0   21   23      1.50      0.00
    2   21   23      3.28      0.00
    4   21   23    -18.96      0.00
    6   21   23     16.07      0.00
    8   21   23      0.24      0.00
   10   21   23     11.62      0.00
   12   21   23     -1.52      0.00
    1   22   23     -4.00      0.00
    3   22   23      2.77      0.00
    5   22   23     -0.60      0.00
    7   22   23     -2.71      0.00
    9   22   23      4.60      0.00
    0   23   23     -2.94      0.00
    2   23   23     13.51      0.00
    4   23   23      3.73      0.00
    6   23   23      0.97      0.00
    8   23   23     11.52      0.00
    1   24   23    -10.32      0.00
    3   24   23    -10.21      0.00
    0    0   24     37.25      0.00
    0    2   24     11.57      0.00
    2    2   24     -7.45      0.00
    1    3   24    -11.38      0.00
    0    4   24     -6.90      0.00
    2    4   24     -8.20      0.00
    4    4   24      9.48      0.00
    1    5   24      0.59      0.00
    3    5   24    -13.30      0.00
    0    6   24      3.32      0.00
    2    6   24    -11.31      0.00
    4    6   24      5.58      0.00
    6    6   24      9.19      0.00
    1    7   24     -1.28      0.00
    3    7   24     12.18      0.00
    5    7   24     -2.76      0.00
    0    8   24     -5.97      0.00
    2    8   24     -9.36      0.00
    4    8   24      1.90      0.00
    6    8   24     -0.34      0.00
    8    8   24     -2.02      0.00
    1    9   24     -0.99      0.00
    3    9   24     -5.00      0.00
    5    9   24      5.53      0.00
    7    9   24      3.29      0.00
    0   10   24     -0.36      0.00
    2   10   24     -5.42      0.00
    4   10   24     -5.04      0.00
    6   10   24     -4.62      0.00
    8   10   24      1.63      0.00
   10   10   24      6.51      0.00
    1   11   24      0.51      0.00
    3   11   24     -3.64      0.00
    5   11   24     -9.56      0.00
    7   11   24     -2.25      0.00
    9   11   24     -3.34      0.00
    0   12   24      2.81      0.00
    2   12   24     -6.74      0.00
    4   12   24      0.27      0.00
    6   12   24     -6.34      0.00
    8   12   24     -1.16      0.00
   10   12   24      7.20      0.00
   12   12   24      3.14      0.00
    1   13   24      2.06      0.00
    3   13   24     -5.45      0.00
    5   13   24      6.12      0.00
    7   13   24      0.70      0.00
    9   13   24    -12.04      0.00
   11   13   24    -11.79      0.00
    0   14   24      0.73      0.00
    2   14   24     -1.21      0.00
    4   14   24     -2.50      0.00
    6   14   24     -1.03      0.00
    8   14   24     -4.29      0.00
   10   14   24     -4.19      0.00
   12   14   24     -4.26      0.00
   14   14   24      0.54      0.00
    1   15   24     -5.20      0.00
    3   15   24      2.20      0.00
    5   15   24     -4.25      0.00
    7   15   24      9.64      0.00
    9   15   24     -6.91      0.00
   11   15   24     -1.54      0.00
   13   15   24    -16.36      0.00
    0   16   24     -6.56      0.00
    2   16   24     -4.27      0.00
    4   16   24      1.47      0.00
    6   16   24      1.37      0.00
    8   16   24    -11.47      0.00
   10   16   24      3.35      0.00
   12   16   24    -11.01      0.00
   14   16   24      7.18      0.00
   16   16   24     -6.10      0.00
    1   17   24      3.62      0.00
    3   17   24      3.80      0.00
    5   17   24      6.01      0.00
    7   17   24     11.85      0.00
    9   17   24     -1.18      0.00
   11   17   24      1.91      0.00
   13   17   24      3.59      0.00
   15   17   24      0.95      0.00
    0   18   24    -17.29      0.00
    2   18   24     -1.01      0.00
    4   18   24      1.01      0.00
    6   18   24     -1.32      0.00
    8   18   24      8.52      0.00
   10   18   24     -2.40      0.00
   12   18   24    -11.16      0.00
   14   18   24     -5.53      0.00
   16   18   24      9.08      0.00
    1   19   24      1.20      0.00
    3   19   24      2.42      0.00
    5   19   24     -0.96      0.00
    7   19   24     -3.82      0.00
    9   19   24      2.49      0.00
   11   19   24      9.15      0.00
   13   19   24      7.94      0.00
   15   19   24     -2.73      0.00
    0   20   24      6.19      0.00
    2   20   24      2.51      0.00
    4   20   24     -6.89      0.00
    6   20   24      6.81      0.00
    8   20   24     -9.94      0.00
   10   20   24     -7.22      0.00
   12   20   24      7.16      0.00
    1   21   24      4.07      0.00
    3   21   24     12.23      0.00
    5   21   24     -5.54      0.00
    7   21   24     -5.11      0.00
    9   21   24    -11.72      0.00
   11   21   24    -10.73      0.00
    0   22   24     13.47      0.00
    2   22   24     12.55      0.00
    4   22   24      7.71      0.00
    6   22   24      2.77      0.00
    8   22   24     14.78      0.00
   10   22   24      3.89      0.00
    1   23   24     -3.14      0.00
    3   23   24    -11.42      0.00
    5   23   24     -0.71      0.00
    7   23   24    -13.75      0.00
    0   24   24    -12.66      0.00
    2   24   24     -9.76      0.00
    0    1   25     -0.04      0.00
    1    2   25     -0.62      0.00
    0    3   25     -0.42      0.00
    2    3   25    -12.78      0.00
    1    4   25      5.40      0.00
    3    4   25    -11.66      0.00
    0    5   25      8.46      0.00
    2    5   25     10.19      0.00
    4    5   25      4.27      0.00
    1    6   25     -2.77      0.00
    3    6   25      5.50      0.00
    5    6   25     -3.05      0.00
    0    7   25      5.18      0.00
    2    7   25     -4.19      0.00
    4    7   25      3.76      0.00
    6    7   25     -7.70      0.00
    1    8   25     12.24      0.00
    3    8   25     -6.69      0.00
    5    8   25      3.55      0.00
    7    8   25      1.26      0.00
    0    9   25     -1.30      0.00
    2    9   25     -1.05      0.00
    4    9   25     -7.44      0.00
    6    9   25     -3.87      0.00
    8    9   25      0.13      0.00
    1   10   25      5.71      0.00
    3   10   25      6.58      0.00
    5   10   25      5.22      0.00
    7   10   25     -0.16      0.00
    9   10   25      1.02      0.00
    0   11   25      5.24      0.00
    2   11   25      1.88      0.00
    4   11   25     -1.51      0.00
    6   11   25     -6.23      0.00
    8   11   25      5.21      0.00
   10   11   25      6.49      0.00
    1   12   25      0.38      0.00
    3   12   25     -0.95      0.00
    5   12   25      1.22      0.00
    7   12   25     -4.16      0.00
    9   12   25      1.42      0.00
   11   12   25      3.26      0.00
    0   13   25     -5.01      0.00
    2   13   25     -4.52      0.00
    4   13   25     -1.45      0.00
    6   13   25     10.22      0.00
    8   13   25     -1.26      0.00
   10   13   25      7.04      0.00
   12   13   25      3.99      0.00
    1   14   25     -1.57      0.00
    3   14   25      2.50      0.00
    5   14   25     -6.04      0.00
    7   14   25     -1.55      0.00
    9   14   25      0.59      0.00
   11   14   25      0.03      0.00
   13   14   25      9.19      0.00
    0   15   25      4.26      0.00
    2   15   25     -3.34      0.00
    4   15   25     -2.31      0.00
    6   15   25     -1.10      0.00
    8   15   25      9.14      0.00
   10   15   25     10.01      0.00
   12   15   25     -4.78      0.00
   14   15   25      2.46      0.00
    1   16   25      8.70      0.00
    3   16   25      1.57      0.00
    5   16   25      3.03      0.00
    7   16   25      1.15      0.00
    9   16   25     -4.07      0.00
   11   16   25      7.33      0.00
   13   16   25      4.80      0.00
   15   16   25     -2.32      0.00
    0   17   25     -3.67      0.00
    2   17   25     -0.93      0.00
    4   17   25     -6.86      0.00
    6   17   25     -0.44      0.00
    8   17   25     -2.33      0.00
   10   17   25      2.22      0.00
   12   17   25     -7.60      0.00
   14   17   25     -0.69      0.00
   16   17   25      9.42      0.00
    1   18   25     -0.27      0.00
    3   18   25      0.80      0.00
    5   18   25     -5.81      0.00
    7   18   25     -7.60      0.00
    9   18   25     16.05      0.00
   11   18   25     10.92      0.00
   13   18   25      2.62      0.00
   15   18   25     -6.67      0.00
    0   19   25     -8.80      0.00
    2   19   25     -5.94      0.00
    4   19   25     -4.53      0.00
    6   19   25     -2.87      0.00
    8   19   25     -2.10      0.00
   10   19   25      3.36      0.00
   12   19   25     16.36      0.00
   14   19   25      1.18      0.00
    1   20   25      7.39      0.00
    3   20   25      1.48      0.00
    5   20   25      5.65      0.00
    7   20   25      2.80      0.00
    9   20   25      5.08      0.00
   11   20   25     -0.40      0.00
   13   20   25      2.28      0.00
    0   21   25      5.41      0.00
    2   21   25     -0.62      0.00
    4   21   25     -4.89      0.00
    6   21   25     -2.80      0.00
    8   21   25     19.27      0.00
   10   21   25      5.75      0.00
   12   21   25     -2.34      0.00
    1   22   25      3.86      0.00
    3   22   25     -8.04      0.00
    5   22   25     -0.67      0.00
    7   22   25      3.99      0.00
    9   22   25      3.43      0.00
    0   23   25    -13.65      0.00
    2   23   25    -11.05      0.00
    4   23   25      7.06      0.00
    6   23   25      0.27      0.00
    1   24   25    -16.64      0.00
    3   24   25      1.13      0.00
    1    1   26      3.15      0.00
    0    2   26      3.61      0.00
    1    3   26     11.81      0.00
    3    3   26     12.56      0.00
    0    4   26     -8.34      0.00
    2    4   26      5.36      0.00
    1    5   26     -5.51      0.00
    3    5   26     -2.22      0.00
    5    5   26     -2.77      0.00
    0    6   26      2.82      0.00
    2    6   26     13.58      0.00
    4    6   26     -3.86      0.00
    1    7   26     -0.51      0.00
    3    7   26     -3.41      0.00
    5    7   26     -2.72      0.00
    7    7   26     -5.50      0.00
    0    8   26     -1.56      0.00
    2    8   26      4.96      0.00
    4    8   26      4.79      0.00
    6    8   26      5.45      0.00
    1    9   26      0.10      0.00
    3    9   26      1.89      0.00
    5    9   26      3.68      0.00
    7    9   26      2.63      0.00
    9    9   26      4.86      0.00
    0   10   26     -0.84      0.00
    2   10   26      5.43      0.00
    4   10   26     -0.96      0.00
    6   10   26      5.01      0.00
    8   10   26      3.53      0.00
    1   11   26     -6.46      0.00
    3   11   26     -0.04      0.00
    5   11   26      1.19      0.00
    7   11   26      2.59      0.00
    9   11   26      5.75      0.00
   11   11   26     -1.42      0.00
    0   12   26     -0.33      0.00
    2   12   26     -2.97      0.00
    4   12   26     -1.35      0.00
    6   12   26     15.06      0.00
    8   12   26     -1.93      0.00
   10   12   26      1.73      0.00
    1   13   26     -2.32      0.00
    3   13   26      4.68      0.00
    5   13   26     -6.81      0.00
    7   13   26      1.93      0.00
    9   13   26     -2.80      0.00
   11   13   26     -8.76      0.00
   13   13   26      9.44      0.00
    0   14   26     -2.25      0.00
    2   14   26      0.24      0.00
    4   14   26     -0.64      0.00
    6   14   26     -2.57      0.00
    8   14   26      2.31      0.00
   10   14   26      2.82      0.00
   12   14   26      1.15      0.00
    1   15   26     -7.48      0.00
    3   15   26     -0.75      0.00
    5   15   26      4.66      0.00
    7   15   26    -10.03      0.00
    9   15   26     -1.99      0.00
   11   15   26      1.79      0.00
   13   15   26      2.08      0.00
   15   15   26    -10.76      0.00
    0   16   26      1.36      0.00
    2   16   26      0.95      0.00
    4   16   26     -1.77      0.00
    6   16   26      2.42      0.00
    8   16   26      2.98      0.00
   10   16   26     -9.57      0.00
   12   16   26     -7.66      0.00
   14   16   26      5.70      0.00
    1   17   26     -5.42      0.00
    3   17   26    -10.75      0.00
    5   17   26     -4.11      0.00
    7   17   26      6.35      0.00
    9   17   26      9.31      0.00
   11   17   26     -5.15      0.00
   13   17   26     11.83      0.00
   15   17   26      0.53      0.00
   17   17   26     -1.28      0.00
    0   18   26     -3.45      0.00
    2   18   26     10.91      0.00
    4   18   26     -0.80      0.00
    6   18   26     -9.74      0.00
    8   18   26    -11.50      0.00
   10   18   26     -1.78      0.00
   12   18   26      4.44      0.00
   14   18   26      3.89      0.00
   16   18   26     -1.57      0.00
    1   19   26      8.71      0.00
    3   19   26     -4.62      0.00
    5   19   26      4.21      0.00
    7   19   26     -4.61      0.00
    9   19   26     -8.49      0.00
   11   19   26     -2.29      0.00
   13   19   26     -6.83      0.00
    0   20   26     -3.88      0.00
    2   20   26      4.32      0.00
    4   20   26      8.94      0.00
    6   20   26    -15.54      0.00
    8   20   26     -7.67      0.00
   10   20   26     -6.97      0.00
   12   20   26     -8.27      0.00
    1   21   26      8.71      0.00
    3   21   26     -2.31      0.00
    5   21   26      3.30      0.00
    7   21   26     -3.69      0.00
    9   21   26      1.54      0.00
   11   21   26      2.64      0.00
    0   22   26      0.59      0.00
    2   22   26    -13.60      0.00
    4   22   26    -17.71      0.00
    6   22   26      2.21      0.00
    8   22   26     -2.64      0.00
    1   23   26     -2.40      0.00
    3   23   26     12.40      0.00
    5   23   26      4.04      0.00
    7   23   26     -7.07      0.00
    0   24   26      3.77      0.00
    0    1   27      3.78      0.00
    1    2   27     -0.63      0.00
    0    3   27     -4.95      0.00
    2    3   27     -7.55      0.00
    1    4   27     -6.51      0.00
    3    4   27    -16.09      0.00
    0    5   27     -7.39      0.00
    2    5   27     -4.42      0.00
    4    5   27     -2.36      0.00
    1    6   27      1.00      0.00
    3    6   27     -2.24      0.00
    5    6   27     -7.06      0.00
    0    7   27     -6.29      0.00
    2    7   27     -3.32      0.00
    4    7   27      5.01      0.00
    6    7   27      1.69      0.00
    1    8   27      7.32      0.00
    3    8   27      6.46      0.00
    5    8   27      4.17      0.00
    7    8   27     -2.29      0.00
    0    9   27      1.73      0.00
    2    9   27     -0.81      0.00
    4    9   27     -2.22      0.00
    6    9   27      9.20      0.00
    8    9   27     -4.47      0.00
    1   10   27     -3.30      0.00
    3   10   27      0.38      0.00
    5   10   27     -7.25      0.00
    7   10   27     -3.32      0.00
    9   10   27     -3.78      0.00
    0   11   27     -6.21      0.00
    2   11   27     -1.06      0.00
    4   11   27     -2.00      0.00
    6   11   27     -2.46      0.00
    8   11   27     -0.83      0.00
   10   11   27      3.85      0.00
    1   12   27     -2.24      0.00
    3   12   27     -5.71      0.00
    5   12   27     -0.61      0.00
    7   12   27     -3.78      0.00
    9   12   27     -7.17      0.00
   11   12   27     -7.40      0.00
    0   13   27     -4.16      0.00
    2   13   27     -1.27      0.00
    4   13   27      0.05      0.00
    6   13   27    -12.86      0.00
    8   13   27      1.51      0.00
   10   13   27     11.56      0.00
   12   13   27     -1.25      0.00
    1   14   27     -0.53      0.00
    3   14   27      2.53      0.00
    5   14   27      1.76      0.00
    7   14   27     -3.06      0.00
    9   14   27     -5.98      0.00
   11   14   27     -2.27      0.00
   13   14   27     -3.14      0.00
    0   15   27     11.60      0.00
    2   15   27      4.17      0.00
    4   15   27     -4.32      0.00
    6   15   27     -0.44      0.00
    8   15   27     -7.53      0.00
   10   15   27      2.53      0.00
   12   15   27      1.74      0.00
   14   15   27      3.33      0.00
    1   16   27      5.49      0.00
    3   16   27     -7.58      0.00
    5   16   27     -5.22      0.00
    7   16   27     -5.85      0.00
    9   16   27      0.70      0.00
   11   16   27     -0.99      0.00
   13   16   27      2.51      0.00
   15   16   27      2.90      0.00
    0   17   27      1.35      0.00
    2   17   27      3.65      0.00
    4   17   27     -1.94      0.00
    6   17   27     -7.92      0.00
    8   17   27     -8.34      0.00
   10   17   27     -2.39      0.00
   12   17   27    -12.46      0.00
   14   17   27     -1.05      0.00
   16   17   27     -9.72      0.00
    1   18   27     -0.33      0.00
    3   18   27     -5.72      0.00
    5   18   27      2.61      0.00
    7   18   27     -0.64      0.00
    9   18   27     -3.76      0.00
   11   18   27      6.56      0.00
   13   18   27      1.20      0.00
   15   18   27     -3.09      0.00
    0   19   27     -5.39      0.00
    2   19   27     10.42      0.00
    4   19   27     -0.33      0.00
    6   19   27      6.14      0.00
    8   19   27    -16.18      0.00
   10   19   27      3.33      0.00
   12   19   27     -9.57      0.00
   14   19   27     -5.42      0.00
    1   20   27     -4.80      0.00
    3   20   27     -5.59      0.00
    5   20   27     -2.69      0.00
    7   20   27      5.75      0.00
    9   20   27     16.77      0.00
   11   20   27     12.21      0.00
   13   20   27      6.55      0.00
    0   21   27     -3.32      0.00
    2   21   27     -6.86      0.00
    4   21   27     -6.04      0.00
    6   21   27     -2.55      0.00
    8   21   27      9.03      0.00
   10   21   27     -8.73      0.00
    1   22   27     -9.90      0.00
    3   22   27     11.27      0.00
    5   22   27      5.38      0.00
    7   22   27     -2.73      0.00
    9   22   27      0.15      0.00
    0   23   27    -12.97      0.00
    2   23   27     11.15      0.00
    4   23   27     -9.25      0.00
    6   23   27     11.18      0.00
    0    0   28     -8.21      0.00
    0    2   28      1.75      0.00
    2    2   28    -21.61      0.00
    1    3   28     -1.50      0.00
    0    4   28     -4.37      0.00
    2    4   28     -4.00      0.00
    4    4   28      5.19      0.00
    1    5   28      6.74      0.00
    3    5   28     -3.69      0.00
    0    6   28     -1.94      0.00
    2    6   28     -9.08      0.00
    4    6   28      1.57      0.00
    6    6   28     -8.89      0.00
    1    7   28      1.97      0.00
    3    7   28      0.34      0.00
    5    7   28      5.68      0.00
    0    8   28    -12.26      0.00
    2    8   28     -8.92      0.00
    4    8   28     -6.45      0.00
    6    8   28      1.12      0.00
    8    8   28    -11.40      0.00
    1    9   28      4.16      0.00
    3    9   28      5.05      0.00
    5    9   28     -4.25      0.00
    7    9   28      7.92      0.00
    0   10   28      6.48      0.00
    2   10   28     -2.49      0.00
    4   10   28      2.69      0.00
    6   10   28     -2.26      0.00
    8   10   28      1.16      0.00
   10   10   28      8.96      0.00
    1   11   28      3.94      0.00
    3   11   28      4.12      0.00
    5   11   28     13.88      0.00
    7   11   28      2.69      0.00
    9   11   28     -7.11      0.00
    0   12   28      6.48      0.00
    2   12   28      1.61      0.00
    4   12   28      5.15      0.00
    6   12   28      2.21      0.00
    8   12   28      8.25      0.00
   10   12   28      0.32      0.00
   12   12   28     -6.10      0.00
    1   13   28      2.88      0.00
    3   13   28      1.14      0.00
    5   13   28     -3.75      0.00
    7   13   28      2.41      0.00
    9   13   28     -6.94      0.00
   11   13   28     14.27      0.00
    0   14   28      1.17      0.00
    2   14   28      0.62      0.00
    4   14   28      0.45      0.00
    6   14   28     12.16      0.00
    8   14   28     -1.79      0.00
   10   14   28     12.70      0.00
   12   14   28    -12.53      0.00
   14   14   28      8.80      0.00
    1   15   28     -3.97      0.00
    3   15   28     -2.69      0.00
    5   15   28     -6.00      0.00
    7   15   28     -5.88      0.00
    9   15   28     -4.25      0.00
   11   15   28      2.34      0.00
   13   15   28     17.05      0.00
    0   16   28     -3.72      0.00
    2   16   28      6.17      0.00
    4   16   28      3.42      0.00
    6   16   28      2.19      0.00
    8   16   28      8.71      0.00
   10   16   28      3.28      0.00
   12   16   28      1.68      0.00
   14   16   28    -10.96      0.00
   16   16   28     -2.20      0.00
    1   17   28      1.69      0.00
    3   17   28     -1.57      0.00
    5   17   28     -6.72      0.00
    7   17   28     -0.13      0.00
    9   17   28     -6.52      0.00
   11   17   28      3.50      0.00
   13   17   28     -0.60      0.00
   15   17   28     -3.95      0.00
    0   18   28      7.90      0.00
    2   18   28      1.04      0.00
    4   18   28      4.69      0.00
    6   18   28      7.46      0.00
    8   18   28     -9.46      0.00
   10   18   28     -4.55      0.00
   12   18   28    -15.99      0.00
   14   18   28      2.89      0.00
    1   19   28     -4.50      0.00
    3   19   28      5.01      0.00
    5   19   28    -10.13      0.00
    7   19   28      8.94      0.00
    9   19   28      1.39      0.00
   11   19   28     -6.12      0.00
   13   19   28     -9.97      0.00
    0   20   28     -6.44      0.00
    2   20   28      0.98      0.00
    4   20   28     -5.99      0.00
    6   20   28     -1.90      0.00
    8   20   28      0.71      0.00
   10   20   28     -8.72      0.00
   12   20   28      5.25      0.00
    1   21   28     -1.86      0.00
    3   21   28      3.81      0.00
    5   21   28     10.42      0.00
    7   21   28     -7.82      0.00
    9   21   28     -3.30      0.00
   11   21   28     -2.10      0.00
    0   22   28     11.38      0.00
    2   22   28      1.39      0.00
    4   22   28     -6.55      0.00
    6   22   28     -7.37      0.00
    8   22   28     -5.34      0.00
    1   23   28     25.50      0.00
    3   23   28      0.89      0.00
    5   23   28     -9.48      0.00
    0    1   29      3.57      0.00
    1    2   29      2.60      0.00
    0    3   29      4.07      0.00
    2    3   29      3.17      0.00
    1    4   29      4.61      0.00
    3    4   29     -8.78      0.00
    0    5   29      7.22      0.00
    2    5   29     -1.26      0.00
    4    5   29      3.94      0.00
    1    6   29     -4.00      0.00
    3    6   29     -0.05      0.00
    5    6   29     -0.50      0.00
    0    7   29     -2.23      0.00
    2    7   29      0.14      0.00
    4    7   29     -3.60      0.00
    6    7   29     -2.26      0.00
    1    8   29      1.89      0.00
    3    8   29     -2.89      0.00
    5    8   29     -0.95      0.00
    7    8   29     -1.18      0.00
    0    9   29      0.36      0.00
    2    9   29      3.21      0.00
    4    9   29      0.52      0.00
    6    9   29     -3.25      0.00
    8    9   29     -0.22      0.00
    1   10   29     -1.33      0.00
    3   10   29     -0.85      0.00
    5   10   29      3.34      0.00
    7   10   29     -5.16      0.00
    9   10   29     -3.07      0.00
    0   11   29     10.08      0.00
    2   11   29     -2.64      0.00
    4   11   29     11.43      0.00
    6   11   29      4.78      0.00
    8   11   29      3.93      0.00
   10   11   29     -1.97      0.00
    1   12   29      2.97      0.00
    3   12   29      1.38      0.00
    5   12   29     -1.11      0.00
    7   12   29     -3.69      0.00
    9   12   29     -1.81      0.00
   11   12   29      1.45      0.00
    0   13   29     -4.34      0.00
    2   13   29      4.68      0.00
    4   13   29      1.99      0.00
    6   13   29      9.39      0.00
    8   13   29      1.49      0.00
   10   13   29      8.84      0.00
   12   13   29     -9.66      0.00
    1   14   29      0.12      0.00
    3   14   29      0.72      0.00
    5   14   29      1.31      0.00
    7   14   29      0.27      0.00
    9   14   29      1.57      0.00
   11   14   29     -0.51      0.00
   13   14   29      1.62      0.00
    0   15   29     -0.41      0.00
    2   15   29      0.35      0.00
    4   15   29      2.14      0.00
    6   15   29     -4.47      0.00
    8   15   29     -3.83      0.00
   10   15   29      1.98      0.00
   12   15   29      9.00      0.00
   14   15   29     -9.71      0.00
    1   16   29     -8.34      0.00
    3   16   29      0.21      0.00
    5   16   29     -2.09      0.00
    7   16   29     -4.12      0.00
    9   16   29      5.30      0.00
   11   16   29      1.13      0.00
   13   16   29     -4.82      0.00
   15   16   29     -3.44      0.00
    0   17   29      8.82      0.00
    2   17   29     -1.36      0.00
    4   17   29      0.86      0.00
    6   17   29      9.33      0.00
    8   17   29     -4.31      0.00
   10   17   29     -8.33      0.00
   12   17   29    -11.11      0.00
   14   17   29     -4.49      0.00
   16   17   29     -4.81      0.00
    1   18   29     -0.97      0.00
    3   18   29    -14.78      0.00
    5   18   29      3.37      0.00
    7   18   29     10.19      0.00
    9   18   29      0.53      0.00
   11   18   29     -1.65      0.00
   13   18   29     12.34      0.00
   15   18   29     -5.78      0.00
    0   19   29     -0.92      0.00
    2   19   29      6.82      0.00
    4   19   29      7.21      0.00
    6   19   29     -2.09      0.00
    8   19   29      3.32      0.00
   10   19   29     -0.75      0.00
   12   19   29      9.86      0.00
   14   19   29      3.87      0.00
    1   20   29    -12.27      0.00
    3   20   29      1.12      0.00
    5   20   29     -8.56      0.00
    7   20   29     -0.37      0.00
    9   20   29     -1.46      0.00
   11   20   29    -10.10      0.00
    0   21   29      0.25      0.00
    2   21   29     11.48      0.00
    4   21   29      9.12      0.00
    6   21   29      2.24      0.00
    8   21   29     -5.67      0.00
   10   21   29      6.20      0.00
    1   22   29      1.98      0.00
    3   22   29      2.74      0.00
    5   22   29      7.19      0.00
    7   22   29     -4.46      0.00
    0   23   29      8.41      0.00
    2   23   29     -6.89      0.00
    4   23   29      1.31      0.00
    1    1   30      0.85      0.00
    0    2   30     16.23      0.00
    1    3   30      3.47      0.00
    3    3   30      8.59      0.00
    0    4   30     -1.65      0.00
    2    4   30     13.76      0.00
    1    5   30     -3.76      0.00
    3    5   30     -0.51      0.00
    5    5   30      2.58      0.00
    0    6   30    -11.37      0.00
    2    6   30     -2.83      0.00
    4    6   30      0.38      0.00
    1    7   30     -1.25      0.00
    3    7   30     -4.25      0.00
    5    7   30      4.56      0.00
    7    7   30      3.80      0.00
    0    8   30      0.20      0.00
    2    8   30     -3.99      0.00
    4    8   30     -1.97      0.00
    6    8   30      0.52      0.00
    1    9   30     -3.74      0.00
    3    9   30      1.55      0.00
    5    9   30     -5.60      0.00
    7    9   30     -1.54      0.00
    9    9   30      7.66      0.00
    0   10   30     -1.05      0.00
    2   10   30      3.37      0.00
    4   10   30      4.64      0.00
    6   10   30      9.65      0.00
    8   10   30     -7.74      0.00
    1   11   30     -0.22      0.00
    3   11   30      0.30      0.00
    5   11   30     -2.31      0.00
    7   11   30     -8.74      0.00
    9   11   30     -1.23      0.00
   11   11   30     -3.85      0.00
    0   12   30      3.56      0.00
    2   12   30     -1.00      0.00
    4   12   30     -3.34      0.00
    6   12   30      9.69      0.00
    8   12   30      3.91      0.00
   10   12   30      1.68      0.00
    1   13   30      6.98      0.00
    3   13   30     -1.17      0.00
    5   13   30      6.78      0.00
    7   13   30      4.96      0.00
    9   13   30     -1.02      0.00
   11   13   30    -10.43      0.00
   13   13   30      4.53      0.00
    0   14   30     -2.02      0.00
    2   14   30      5.50      0.00
    4   14   30     -0.89      0.00
    6   14   30     -5.45      0.00
    8   14   30     -3.97      0.00
   10   14   30      2.45      0.00
   12   14   30    -11.44      0.00
    1   15   30      3.95      0.00
    3   15   30      7.61      0.00
    5   15   30      9.02      0.00
    7   15   30      7.86      0.00
    9   15   30     -2.71      0.00
   11   15   30    -11.77      0.00
   13   15   30      0.19      0.00
   15   15   30    -14.62      0.00
    0   16   30      5.33      0.00
    2   16   30      2.93      0.00
    4   16   30      7.33      0.00
    6   16   30      0.77      0.00
    8   16   30      6.75      0.00
   10   16   30     -8.71      0.00
   12   16   30     -9.88      0.00
   14   16   30    -17.53      0.00
    1   17   30      5.33      0.00
    3   17   30     -0.99      0.00
    5   17   30     -1.66      0.00
    7   17   30     -4.15      0.00
    9   17   30      7.96      0.00
   11   17   30      8.70      0.00
   13   17   30      5.60      0.00
   15   17   30      7.51      0.00
    0   18   30     -5.41      0.00
    2   18   30      6.09      0.00
    4   18   30      2.70      0.00
    6   18   30      3.65      0.00
    8   18   30      7.23      0.00
   10   18   30     -0.69      0.00
   12   18   30     -7.88      0.00
   14   18   30      5.20      0.00
    1   19   30    -10.80      0.00
    3   19   30    -12.17      0.00
    5   19   30     -3.48      0.00
    7   19   30     -2.21      0.00
    9   19   30      8.04      0.00
   11   19   30     -5.03      0.00
   13   19   30     -3.40      0.00
    0   20   30      5.42      0.00
    2   20   30     15.10      0.00
    4   20   30      3.89      0.00
    6   20   30      7.99      0.00
    8   20   30      1.05      0.00
   10   20   30      7.15      0.00
   12   20   30      0.14      0.00
    1   21   30     -8.90      0.00
    3   21   30    -13.37      0.00
    5   21   30     -1.78      0.00
    7   21   30     -3.25      0.00
    9   21   30     -6.65      0.00
    0   22   30     12.86      0.00
    2   22   30     -2.38      0.00
    4   22   30      2.68      0.00
    6   22   30     -0.69      0.00
    8   22   30      9.75      0.00
    1   23   30     -3.47      0.00
    3   23   30     -9.80      0.00
    5   23   30    -10.82      0.00
    0    1   31      0.83      0.00
    1    2   31      2.86      0.00
    0    3   31     -7.80      0.00
    2    3   31     -2.31      0.00
    1    4   31     -2.95      0.00
    3    4   31      2.64      0.00
    0    5   31     12.05      0.00
    2    5   31      3.26      0.00
    4    5   31      5.42      0.00
    1    6   31      6.82      0.00
    3    6   31     -1.49      0.00
    5    6   31      4.67      0.00
    0    7   31     -2.66      0.00
    2    7   31      0.05      0.00
    4    7   31     -2.02      0.00
    6    7   31     -1.27      0.00
    1    8   31      0.90      0.00
    3    8   31     -2.44      0.00
    5    8   31     -3.44      0.00
    7    8   31      2.60      0.00
    0    9   31     -3.56      0.00
    2    9   31     -3.60      0.00
    4    9   31      1.80      0.00
    6    9   31     -3.03      0.00
    8    9   31    -10.84      0.00
    1   10   31     -4.13      0.00
    3   10   31     -4.07      0.00
    5   10   31     -3.09      0.00
    7   10   31     -3.77      0.00
    9   10   31      5.05      0.00
    0   11   31     -0.84      0.00
    2   11   31      3.25      0.00
    4   11   31     -3.52      0.00
    6   11   31      4.28      0.00
    8   11   31     -3.39      0.00
   10   11   31      0.52      0.00
    1   12   31     -2.08      0.00
    3   12   31      5.20      0.00
    5   12   31     -7.21      0.00
    7   12   31     -9.39      0.00
    9   12   31     -1.73      0.00
   11   12   31     -4.59      0.00
    0   13   31     -0.90      0.00
    2   13   31      4.19      0.00
    4   13   31      6.38      0.00
    6   13   31     -2.68      0.00
    8   13   31     10.86      0.00
   10   13   31     -5.71      0.00
   12   13   31    -13.28      0.00
    1   14   31      0.50      0.00
    3   14   31      0.94      0.00
    5   14   31      1.88      0.00
    7   14   31      0.41      0.00
    9   14   31    -12.10      0.00
   11   14   31      3.78      0.00
   13   14   31      3.16      0.00
    0   15   31     -4.28      0.00
    2   15   31      0.83      0.00
    4   15   31      6.37      0.00
    6   15   31      7.34      0.00
    8   15   31      7.48      0.00
   10   15   31      5.44      0.00
   12   15   31    -12.60      0.00
   14   15   31      4.15      0.00
    1   16   31      4.37      0.00
    3   16   31     -4.01      0.00
    5   16   31      0.46      0.00
    7   16   31     -3.86      0.00
    9   16   31     -1.73      0.00
   11   16   31      6.10      0.00
   13   16   31      7.50      0.00
   15   16   31      8.66      0.00
    0   17   31     -9.58      0.00
    2   17   31      7.61      0.00
    4   17   31     -6.42      0.00
    6   17   31     11.65      0.00
    8   17   31     -3.45      0.00
   10   17   31      9.29      0.00
   12   17   31      9.05      0.00
   14   17   31      7.21      0.00
   16   17   31      4.92      0.00
    1   18   31      0.18      0.00
    3   18   31      1.39      0.00
    5   18   31      1.91      0.00
    7   18   31     -2.43      0.00
    9   18   31     -1.81      0.00
   11   18   31      1.40      0.00
   13   18   31      4.23      0.00
   15   18   31     -1.63      0.00
    0   19   31     -5.36      0.00
    2   19   31     -2.97      0.00
    4   19   31      7.20      0.00
    6   19   31      0.79      0.00
    8   19   31     -1.16      0.00
   10   19   31      6.43      0.00
   12   19   31      7.23      0.00
    1   20   31      0.71      0.00
    3   20   31     -3.08      0.00
    5   20   31      3.73      0.00
    7   20   31      7.17      0.00
    9   20   31     -8.06      0.00
   11   20   31      0.02      0.00
    0   21   31    -12.08      0.00
    2   21   31      3.60      0.00
    4   21   31     -5.92      0.00
    6   21   31     15.66      0.00
    8   21   31      0.96      0.00
   10   21   31      4.58      0.00
    1   22   31    -10.60      0.00
    3   22   31      6.01      0.00
    5   22   31     12.92      0.00
    7   22   31     -0.50      0.00
    0   23   31     -6.84      0.00
    2   23   31     -1.93      0.00
    4   23   31      7.01      0.00
    0    0   32     -9.56      0.00
    0    2   32      4.12      0.00
    2    2   32    -15.92      0.00
    1    3   32      4.52      0.00
    0    4   32      8.02      0.00
    2    4   32      5.38      0.00
    4    4   32      7.71      0.00
    1    5   32     -1.27      0.00
    3    5   32      1.72      0.00
    0    6   32      2.00      0.00
    2    6   32     -3.84      0.00
    4    6   32      4.35      0.00
    6    6   32     -1.27      0.00
    1    7   32      3.46      0.00
    3    7   32      1.30      0.00
    5    7   32      0.65      0.00
    0    8   32      3.63      0.00
    2    8   32      1.80      0.00
    4    8   32     -2.39      0.00
    6    8   32     -0.15      0.00
    8    8   32     -7.33      0.00
    1    9   32     -1.13      0.00
    3    9   32     -7.40      0.00
    5    9   32     -2.84      0.00
    7    9   32    -11.75      0.00
    0   10   32      0.93      0.00
    2   10   32      6.71      0.00
    4   10   32      3.29      0.00
    6   10   32     -1.22      0.00
    8   10   32      1.48      0.00
   10   10   32     -9.76      0.00
    1   11   32     -4.89      0.00
    3   11   32     -1.38      0.00
    5   11   32     -9.42      0.00
    7   11   32      0.39      0.00
    9   11   32     -0.24      0.00
    0   12   32     18.43      0.00
    2   12   32     -2.52      0.00
    4   12   32      1.85      0.00
    6   12   32      6.67      0.00
    8   12   32      2.41      0.00
   10   12   32     10.82      0.00
   12   12   32    -17.46      0.00
    1   13   32      5.71      0.00
    3   13   32     -8.81      0.00
    5   13   32      4.05      0.00
    7   13   32      3.62      0.00
    9   13   32    -12.75      0.00
   11   13   32     10.88      0.00
    0   14   32     -1.10      0.00
    2   14   32      6.94      0.00
    4   14   32      0.21      0.00
    6   14   32     -2.29      0.00
    8   14   32      0.21      0.00
   10   14   32     -1.96      0.00
   12   14   32     -4.58      0.00
   14   14   32     -0.31      0.00
    1   15   32     -0.42      0.00
    3   15   32      1.96      0.00
    5   15   32     -2.33      0.00
    7   15   32     10.14      0.00
    9   15   32      7.06      0.00
   11   15   32     -1.84      0.00
   13   15   32    -12.92      0.00
    0   16   32     -1.91      0.00
    2   16   32      2.28      0.00
    4   16   32     -4.91      0.00
    6   16   32      0.43      0.00
    8   16   32    -17.41      0.00
   10   16   32      6.21      0.00
   12   16   32     -0.18      0.00
   14   16   32      6.34      0.00
   16   16   32     10.49      0.00
    1   17   32    -10.20      0.00
    3   17   32      2.38      0.00
    5   17   32     -3.06      0.00
    7   17   32      2.35      0.00
    9   17   32     -3.04      0.00
   11   17   32      4.02      0.00
   13   17   32     -3.07      0.00
   15   17   32     -2.17      0.00
    0   18   32     -2.80      0.00
    2   18   32     -0.41      0.00
    4   18   32      4.22      0.00
    6   18   32     -9.38      0.00
    8   18   32     -1.67      0.00
   10   18   32     -3.75      0.00
   12   18   32     -5.96      0.00
   14   18   32     -9.58      0.00
    1   19   32      6.91      0.00
    3   19   32    -16.23      0.00
    5   19   32     -3.25      0.00
    7   19   32      3.79      0.00
    9   19   32      2.45      0.00
   11   19   32     -5.25      0.00
   13   19   32      1.64      0.00
    0   20   32      8.48      0.00
    2   20   32      4.34      0.00
    4   20   32      7.53      0.00
    6   20   32      4.96      0.00
    8   20   32     -3.08      0.00
   10   20   32     -4.29      0.00
   12   20   32     -5.85      0.00
    1   21   32    -13.06      0.00
    3   21   32      2.00      0.00
    5   21   32    -11.31      0.00
    7   21   32     -2.56      0.00
    9   21   32     -4.38      0.00
    0   22   32      4.47      0.00
    2   22   32      1.38      0.00
    4   22   32     -6.19      0.00
    6   22   32     -6.23      0.00
    1   23   32    -14.26      0.00
    3   23   32     -6.60      0.00
    0    1   33      6.04      0.00
    1    2   33      4.22      0.00
    0    3   33     -2.34      0.00
    2    3   33     -0.81      0.00
    1    4   33     -4.41      0.00
    3    4   33      1.94      0.00
    0    5   33      2.86      0.00
    2    5   33     -4.91      0.00
    4    5   33     -0.94      0.00
    1    6   33      3.52      0.00
    3    6   33     -2.77      0.00
    5    6   33      6.69      0.00
    0    7   33     -5.17      0.00
    2    7   33      8.06      0.00
    4    7   33     -3.46      0.00
    6    7   33      3.46      0.00
    1    8   33      0.04      0.00
    3    8   33      1.14      0.00
    5    8   33      8.74      0.00
    7    8   33     -3.43      0.00
    0    9   33      9.49      0.00
    2    9   33     -1.48      0.00
    4    9   33      8.50      0.00
    6    9   33     -1.78      0.00
    8    9   33     10.03      0.00
    1   10   33     -6.60      0.00
    3   10   33     -1.22      0.00
    5   10   33     -5.82      0.00
    7   10   33      7.32      0.00
    9   10   33      4.78      0.00
    0   11   33      0.32      0.00
    2   11   33      1.00      0.00
    4   11   33     -9.67      0.00
    6   11   33     -1.30      0.00
    8   11   33    -10.42      0.00
   10   11   33      2.89      0.00
    1   12   33     -1.78      0.00
    3   12   33     -1.87      0.00
    5   12   33     -5.83      0.00
    7   12   33    -11.81      0.00
    9   12   33     -1.79      0.00
   11   12   33      5.00      0.00
    0   13   33     -5.05      0.00
    2   13   33     -0.96      0.00
    4   13   33     -5.08      0.00
    6   13   33    -11.49      0.00
    8   13   33     -0.87      0.00
   10   13   33     -5.19      0.00
   12   13   33      0.59      0.00
    1   14   33     -3.52      0.00
    3   14   33     -2.75      0.00
    5   14   33      3.84      0.00
    7   14   33     -1.37      0.00
    9   14   33      3.10      0.00
   11   14   33      2.64      0.00
   13   14   33     -2.04      0.00
    0   15   33     -5.21      0.00
    2   15   33     -7.89      0.00
    4   15   33     -4.21      0.00
    6   15   33     -1.27      0.00
    8   15   33    -19.32      0.00
   10   15   33     10.27      0.00
   12   15   33      7.36      0.00
   14   15   33     10.97      0.00
    1   16   33      3.39      0.00
    3   16   33     -7.83      0.00
    5   16   33      1.42      0.00
    7   16   33      0.40      0.00
    9   16   33    -11.96      0.00
   11   16   33     -1.05      0.00
   13   16   33     18.77      0.00
   15   16   33    -10.92      0.00
    0   17   33      0.63      0.00
    2   17   33     -5.13      0.00
    4   17   33      6.24      0.00
    6   17   33     -1.08      0.00
    8   17   33      7.68      0.00
   10   17   33     -7.10      0.00
   12   17   33     -7.25      0.00
   14   17   33     -7.33      0.00
    1   18   33      3.93      0.00
    3   18   33      4.87      0.00
    5   18   33      0.04      0.00
    7   18   33      1.67      0.00
    9   18   33      3.80      0.00
   11   18   33      4.31      0.00
   13   18   33      0.44      0.00
    0   19   33     -0.48      0.00
    2   19   33      8.98      0.00
    4   19   33      0.89      0.00
    6   19   33      7.66      0.00
    8   19   33     -5.67      0.00
   10   19   33     -4.89      0.00
   12   19   33     -1.82      0.00
    1   20   33     -8.04      0.00
    3   20   33     -0.86      0.00
    5   20   33     -2.10      0.00
    7   20   33     -7.33      0.00
    9   20   33      2.26      0.00
   11   20   33      7.02      0.00
    0   21   33      8.26      0.00
    2   21   33      9.33      0.00
    4   21   33     -5.03      0.00
    6   21   33     -5.94      0.00
    8   21   33      2.20      0.00
    1   22   33     -3.55      0.00
    3   22   33      0.06      0.00
    5   22   33     -2.45      0.00
    7   22   33      8.42      0.00
    0   23   33      1.40      0.00
    2   23   33     -1.18      0.00
    1    1   34     -1.96      0.00
    0    2   34      6.17      0.00
    1    3   34     -1.97      0.00
    3    3   34     -5.99      0.00
    0    4   34     -7.08      0.00
    2    4   34     -0.61      0.00
    1    5   34     -5.43      0.00
    3    5   34      0.40      0.00
    5    5   34     -8.61      0.00
    0    6   34      4.66      0.00
    2    6   34      0.96      0.00
    4    6   34      1.80      0.00
    1    7   34      5.14      0.00
    3    7   34      4.60      0.00
    5    7   34      3.72      0.00
    7    7   34    -10.38      0.00
    0    8   34     -6.33      0.00
    2    8   34      5.34      0.00
    4    8   34     -0.92      0.00
    6    8   34      1.92      0.00
    1    9   34      2.70      0.00
    3    9   34     -0.96      0.00
    5    9   34     -2.33      0.00
    7    9   34      9.66      0.00
    9    9   34      1.09      0.00
    0   10   34     10.27      0.00
    2   10   34     -1.28      0.00
    4   10   34     -0.44      0.00
    6   10   34      0.71      0.00
    8   10   34     -0.87      0.00
    1   11   34      0.19      0.00
    3   11   34     -2.36      0.00
    5   11   34      0.44      0.00
    7   11   34     -3.51      0.00
    9   11   34     14.06      0.00
   11   11   34      2.44      0.00
    0   12   34      1.31      0.00
    2   12   34      0.75      0.00
    4   12   34     -5.01      0.00
    6   12   34     12.03      0.00
    8   12   34     -6.45      0.00
   10   12   34      5.84      0.00
    1   13   34     -3.29      0.00
    3   13   34     -4.65      0.00
    5   13   34     -5.33      0.00
    7   13   34    -13.58      0.00
    9   13   34      1.16      0.00
   11   13   34      6.83      0.00
   13   13   34     11.84      0.00
    0   14   34      6.98      0.00
    2   14   34     -5.43      0.00
    4   14   34      1.19      0.00
    6   14   34     -5.32      0.00
    8   14   34      3.50      0.00
   10   14   34      5.30      0.00
   12   14   34     -1.45      0.00
    1   15   34      4.27      0.00
    3   15   34     -4.82      0.00
    5   15   34     -2.25      0.00
    7   15   34     -4.42      0.00
    9   15   34     -2.75      0.00
   11   15   34     -5.64      0.00
   13   15   34      9.04      0.00
   15   15   34     -0.52      0.00
    0   16   34     -5.78      0.00
    2   16   34      9.84      0.00
    4   16   34     -0.74      0.00
    6   16   34      4.92      0.00
    8   16   34     15.82      0.00
   10   16   34     -3.23      0.00
   12   16   34    -10.68      0.00
   14   16   34      7.38      0.00
    1   17   34      3.71      0.00
    3   17   34      7.16      0.00
    5   17   34      3.29      0.00
    7   17   34      1.52      0.00
    9   17   34      1.45      0.00
   11   17   34     -2.74      0.00
   13   17   34     -3.01      0.00
   15   17   34     -2.36      0.00
    0   18   34     -6.84      0.00
    2   18   34      2.95      0.00
    4   18   34     -2.74      0.00
    6   18   34     -9.54      0.00
    8   18   34     -1.48      0.00
   10   18   34      5.84      0.00
   12   18   34      6.96      0.00
   14   18   34      1.94      0.00
    1   19   34      6.06      0.00
    3   19   34      5.27      0.00
    5   19   34     -1.00      0.00
    7   19   34     -4.40      0.00
    9   19   34     -1.42      0.00
   11   19   34     -3.68      0.00
   13   19   34     -5.91      0.00
    0   20   34      3.96      0.00
    2   20   34     -0.83      0.00
    4   20   34     -0.47      0.00
    6   20   34     -8.99      0.00
    8   20   34      1.34      0.00
   10   20   34      4.61      0.00
    1   21   34      5.46      0.00
    3   21   34      0.20      0.00
    5   21   34      1.90      0.00
    7   21   34      5.39      0.00
    9   21   34     -5.44      0.00
    0   22   34     -6.00      0.00
    2   22   34      5.76      0.00
    4   22   34     -6.39      0.00
    6   22   34     -0.43      0.00
    0    1   35     -0.60      0.00
    1    2   35     -3.37      0.00
    0    3   35     -2.99      0.00
    2    3   35     -6.56      0.00
    1    4   35     -2.32      0.00
    3    4   35     -0.31      0.00
    0    5   35      2.58      0.00
    2    5   35     -0.40      0.00
    4    5   35      2.80      0.00
    1    6   35      1.46      0.00
    3    6   35     -1.86      0.00
    5    6   35     -0.28      0.00
    0    7   35      2.72      0.00
    2    7   35     -5.06      0.00
    4    7   35     -0.69      0.00
    6    7   35      0.66      0.00
    1    8   35     -3.36      0.00
    3    8   35     -0.29      0.00
    5    8   35     -3.60      0.00
    7    8   35      1.73      0.00
    0    9   35      1.01      0.00
    2    9   35      4.73      0.00
    4    9   35      0.56      0.00
    6    9   35      6.97      0.00
    8    9   35      2.57      0.00
    1   10   35      1.50      0.00
    3   10   35     -0.02      0.00
    5   10   35      0.10      0.00
    7   10   35    -16.12      0.00
    9   10   35      4.90      0.00
    0   11   35      1.08      0.00
    2   11   35     -1.00      0.00
    4   11   35      4.14      0.00
    6   11   35      1.24      0.00
    8   11   35      1.07      0.00
   10   11   35     -6.33      0.00
    1   12   35     -7.54      0.00
    3   12   35      6.34      0.00
    5   12   35     -2.30      0.00
    7   12   35      2.98      0.00
    9   12   35     -2.17      0.00
   11   12   35    -11.35      0.00
    0   13   35      0.55      0.00
    2   13   35     -1.62      0.00
    4   13   35     -1.01      0.00
    6   13   35     -5.08      0.00
    8   13   35     -2.98      0.00
   10   13   35      2.17      0.00
   12   13   35     -9.73      0.00
    1   14   35     -5.70      0.00
    3   14   35    -10.59      0.00
    5   14   35     12.73      0.00
    7   14   35      1.72      0.00
    9   14   35     -2.51      0.00
   11   14   35      9.49      0.00
   13   14   35      4.59      0.00
    0   15   35     -8.58      0.00
    2   15   35     11.62      0.00
    4   15   35     -4.45      0.00
    6   15   35     -5.16      0.00
    8   15   35     -2.23      0.00
   10   15   35     -8.62      0.00
   12   15   35      0.97      0.00
   14   15   35      6.22      0.00
    1   16   35    -10.92      0.00
    3   16   35      2.98      0.00
    5   16   35    -13.61      0.00
    7   16   35     10.88      0.00
    9   16   35      8.64      0.00
   11   16   35      7.73      0.00
   13   16   35     -7.29      0.00
   15   16   35    -12.40      0.00
    0   17   35     -0.32      0.00
    2   17   35     -3.33      0.00
    4   17   35     -3.36      0.00
    6   17   35      3.11      0.00
    8   17   35     -6.20      0.00
   10   17   35      4.32      0.00
   12   17   35      5.79      0.00
   14   17   35     -4.70      0.00
    1   18   35     -4.59      0.00
    3   18   35    -11.87      0.00
    5   18   35     -0.65      0.00
    7   18   35      4.51      0.00
    9   18   35     -3.86      0.00
   11   18   35     -2.51      0.00
   13   18   35      0.09      0.00
    0   19   35     -5.98      0.00
    2   19   35     -2.91      0.00
    4   19   35     -4.45      0.00
    6   19   35     -3.43      0.00
    8   19   35     -2.66      0.00
   10   19   35     11.01      0.00
   12   19   35     -1.78      0.00
    1   20   35     -0.86      0.00
    3   20   35    -15.55      0.00
    5   20   35     -8.77      0.00
    7   20   35     -0.11      0.00
    9   20   35     -1.85      0.00
   11   20   35      5.25      0.00
    0   21   35      6.46      0.00
    2   21   35      9.19      0.00
    4   21   35     -0.34      0.00
    6   21   35      2.85      0.00
    8   21   35     -0.72      0.00
    1   22   35      6.27      0.00
    3   22   35     -3.76      0.00
    5   22   35      2.75      0.00
    0    0   36     -5.85      0.00
    0    2   36      7.25      0.00
    2    2   36     -9.99      0.00
    1    3   36      4.49      0.00
    0    4   36      6.48      0.00
    2    4   36      4.21      0.00
    4    4   36      1.11      0.00
    1    5   36      0.31      0.00
    3    5   36      1.14      0.00
    0    6   36      6.61      0.00
    2    6   36     -0.62      0.00
    4    6   36     -1.40      0.00
    6    6   36     -3.64      0.00
    1    7   36     -0.62      0.00
    3    7   36     -3.29      0.00
    5    7   36      3.48      0.00
    0    8   36      5.03      0.00
    2    8   36      3.04      0.00
    4    8   36      6.36      0.00
    6    8   36      3.08      0.00
    8    8   36      2.45      0.00
    1    9   36      3.76      0.00
    3    9   36      7.13      0.00
    5    9   36      3.95      0.00
    7    9   36     -0.97      0.00
    0   10   36      7.39      0.00
    2   10   36     -3.87      0.00
    4   10   36      3.49      0.00
    6   10   36      8.17      0.00
    8   10   36      8.37      0.00
   10   10   36      6.58      0.00
    1   11   36      0.36      0.00
    3   11   36      0.88      0.00
    5   11   36     17.27      0.00
    7   11   36      9.03      0.00
    9   11   36     -3.20      0.00
    0   12   36     -6.22      0.00
    2   12   36     -0.17      0.00
    4   12   36     -1.97      0.00
    6   12   36      7.31      0.00
    8   12   36     -2.57      0.00
   10   12   36      5.47      0.00
   12   12   36     14.23      0.00
    1   13   36     -1.20      0.00
    3   13   36      2.29      0.00
    5   13   36      1.37      0.00
    7   13   36      7.78      0.00
    9   13   36      5.93      0.00
   11   13   36      9.67      0.00
    0   14   36     -0.46      0.00
    2   14   36      6.80      0.00
    4   14   36     -4.80      0.00
    6   14   36     -3.34      0.00
    8   14   36      8.95      0.00
   10   14   36     -0.20      0.00
   12   14   36    -10.16      0.00
   14   14   36     13.45      0.00
    1   15   36      3.54      0.00
    3   15   36     -2.19      0.00
    5   15   36     -6.17      0.00
    7   15   36     10.25      0.00
    9   15   36      2.91      0.00
   11   15   36     -2.47      0.00
   13   15   36    -12.35      0.00
    0   16   36      0.69      0.00
    2   16   36     -8.11      0.00
    4   16   36      9.93      0.00
    6   16   36      1.55      0.00
    8   16   36     -2.80      0.00
   10   16   36      6.02      0.00
   12   16   36     -0.27      0.00
   14   16   36      0.03      0.00
   16   16   36     12.22      0.00
    1   17   36      2.31      0.00
    3   17   36     -2.99      0.00
    5   17   36     -6.31      0.00
    7   17   36     -8.14      0.00
    9   17   36    -16.10      0.00
   11   17   36      0.28      0.00
   13   17   36     13.34      0.00
   15   17   36      4.07      0.00
    0   18   36      2.59      0.00
    2   18   36     -2.54      0.00
    4   18   36     -0.54      0.00
    6   18   36     -0.53      0.00
    8   18   36      1.26      0.00
   10   18   36     14.20      0.00
   12   18   36     -0.48      0.00
    1   19   36      2.66      0.00
    3   19   36      0.10      0.00
    5   19   36      6.45      0.00
    7   19   36      5.53      0.00
    9   19   36     -3.57      0.00
   11   19   36      3.57      0.00
    0   20   36      3.46      0.00
    2   20   36      4.35      0.00
    4   20   36      5.27      0.00
    6   20   36      7.30      0.00
    8   20   36     11.64      0.00
   10   20   36     -1.26      0.00
    1   21   36     -7.79      0.00
    3   21   36      5.11      0.00
    5   21   36      3.84      0.00
    7   21   36      2.45      0.00
    0   22   36     -7.41      0.00
    2   22   36      2.87      0.00
    4   22   36     -5.03      0.00
    0    1   37     -4.05      0.00
    1    2   37      1.00      0.00
    0    3   37     -0.07      0.00
    2    3   37     -1.22      0.00
    1    4   37     -1.59      0.00
    3    4   37      0.53      0.00
    0    5   37     -5.20      0.00
    2    5   37     -0.62      0.00
    4    5   37     -2.51      0.00
    1    6   37      5.06      0.00
    3    6   37      0.00      0.00
    5    6   37      6.04      0.00
    0    7   37      0.46      0.00
    2    7   37     -9.22      0.00
    4    7   37     -0.43      0.00
    6    7   37      0.76      0.00
    1    8   37      3.25      0.00
    3    8   37      2.50      0.00
    5    8   37     -1.37      0.00
    7    8   37     -0.20      0.00
    0    9   37    -16.84      0.00
    2    9   37     -0.83      0.00
    4    9   37     -3.93      0.00
    6    9   37     -5.96      0.00
    8    9   37     -1.01      0.00
    1   10   37     -1.89      0.00
    3   10   37     -6.64      0.00
    5   10   37      2.83      0.00
    7   10   37     -6.66      0.00
    9   10   37     -5.21      0.00
    0   11   37     -4.36      0.00
    2   11   37     -1.15      0.00
    4   11   37     -3.39      0.00
    6   11   37      5.84      0.00
    8   11   37      1.44      0.00
   10   11   37     -2.79      0.00
    1   12   37     -7.71      0.00
    3   12   37     -3.45      0.00
    5   12   37     -4.07      0.00
    7   12   37      0.64      0.00
    9   12   37      1.83      0.00
   11   12   37     -3.25      0.00
    0   13   37     -1.70      0.00
    2   13   37      0.73      0.00
    4   13   37      4.47      0.00
    6   13   37      5.67      0.00
    8   13   37      1.98      0.00
   10   13   37     -1.34      0.00
   12   13   37     -0.68      0.00
    1   14   37     -7.51      0.00
    3   14   37     -1.34      0.00
    5   14   37     -6.13      0.00
    7   14   37     -0.36      0.00
    9   14   37     -6.74      0.00
   11   14   37     -1.17      0.00
   13   14   37     -0.31      0.00
    0   15   37      2.51      0.00
    2   15   37     -8.77      0.00
    4   15   37      5.84      0.00
    6   15   37     -2.78      0.00
    8   15   37     -9.97      0.00
   10   15   37     10.91      0.00
   12   15   37     -4.13      0.00
   14   15   37      0.34      0.00
    1   16   37     -1.83      0.00
    3   16   37    -12.69      0.00
    5   16   37      3.41      0.00
    7   16   37    -14.56      0.00
    9   16   37     -6.37      0.00
   11   16   37      5.29      0.00
   13   16   37      0.52      0.00
   15   16   37     -5.26      0.00
    0   17   37      4.59      0.00
    2   17   37      7.97      0.00
    4   17   37     -8.81      0.00
    6   17   37      3.06      0.00
    8   17   37      8.60      0.00
   10   17   37      6.45      0.00
   12   17   37     -0.41      0.00
   14   17   37     -1.27      0.00
    1   18   37      2.42      0.00
    3   18   37      2.59      0.00
    5   18   37      4.23      0.00
    7   18   37      9.37      0.00
    9   18   37     -5.54      0.00
   11   18   37     -9.37      0.00
   13   18   37     -4.79      0.00
    0   19   37     -8.55      0.00
    2   19   37      5.86      0.00
    4   19   37      2.72      0.00
    6   19   37      4.53      0.00
    8   19   37     -1.23      0.00
   10   19   37      6.05      0.00
   12   19   37      0.45      0.00
    1   20   37      3.51      0.00
    3   20   37      5.22      0.00
    5   20   37     -3.91      0.00
    7   20   37      0.45      0.00
    9   20   37     -2.03      0.00
    0   21   37      7.03      0.00
    2   21   37     -4.33      0.00
    4   21   37     -0.94      0.00
    6   21   37     -6.39      0.00
    8   21   37     -4.45      0.00
    1   22   37     -4.56      0.00
    3   22   37      8.51      0.00
    1    1   38     -1.66      0.00
    0    2   38     -2.44      0.00
    1    3   38     -0.18      0.00
    3    3   38     -1.49      0.00
    0    4   38     -4.25      0.00
    2    4   38     -1.27      0.00
    1    5   38     -1.26      0.00
    3    5   38      2.54      0.00
    5    5   38      5.11      0.00
    0    6   38     -8.28      0.00
    2    6   38     -6.22      0.00
    4    6   38     -2.71      0.00
    1    7   38     -0.36      0.00
    3    7   38      0.59      0.00
    5    7   38     -3.50      0.00
    7    7   38      4.92      0.00
    0    8   38    -10.52      0.00
    2    8   38     -2.82      0.00
    4    8   38     -4.23      0.00
    6    8   38     -0.55      0.00
    1    9   38     -4.77      0.00
    3    9   38     -0.83      0.00
    5    9   38     -4.19      0.00
    7    9   38     -3.90      0.00
    9    9   38      3.10      0.00
    0   10   38     -3.87      0.00
    2   10   38     -7.52      0.00
    4   10   38     -9.45      0.00
    6   10   38     12.90      0.00
    8   10   38     -2.89      0.00
    1   11   38      0.78      0.00
    3   11   38      5.49      0.00
    5   11   38     -4.56      0.00
    7   11   38    -12.11      0.00
    9   11   38     -3.78      0.00
   11   11   38      6.31      0.00
    0   12   38      2.21      0.00
    2   12   38     -1.14      0.00
    4   12   38      1.86      0.00
    6   12   38     -8.79      0.00
    8   12   38     -0.77      0.00
   10   12   38      1.08      0.00
    1   13   38      0.28      0.00
    3   13   38      5.63      0.00
    5   13   38      1.12      0.00
    7   13   38      2.80      0.00
    9   13   38      6.78      0.00
   11   13   38    -19.47      0.00
   13   13   38     -3.46      0.00
    0   14   38      4.20      0.00
    2   14   38      0.25      0.00
    4   14   38     -6.05      0.00
    6   14   38     -1.79      0.00
    8   14   38     -9.32      0.00
   10   14   38      1.40      0.00
   12   14   38     -7.22      0.00
    1   15   38     -0.69      0.00
    3   15   38    -11.60      0.00
    5   15   38     17.09      0.00
    7   15   38      2.19      0.00
    9   15   38      2.80      0.00
   11   15   38      0.44      0.00
   13   15   38     -0.02      0.00
   15   15   38     -8.74      0.00
    0   16   38     -3.06      0.00
    2   16   38      7.36      0.00
    4   16   38      4.02      0.00
    6   16   38     -0.54      0.00
    8   16   38     -3.08      0.00
   10   16   38     -1.67      0.00
   12   16   38     -5.53      0.00
   14   16   38      8.81      0.00
    1   17   38     -5.64      0.00
    3   17   38      9.66      0.00
    5   17   38     -0.75      0.00
    7   17   38      1.35      0.00
    9   17   38      6.58      0.00
   11   17   38      0.28      0.00
   13   17   38     -6.26      0.00
    0   18   38    -18.18      0.00
    2   18   38      4.83      0.00
    4   18   38     -4.27      0.00
    6   18   38      2.77      0.00
    8   18   38     -2.34      0.00
   10   18   38     -5.01      0.00
   12   18   38      9.48      0.00
    1   19   38      2.06      0.00
    3   19   38      2.62      0.00
    5   19   38     -3.73      0.00
    7   19   38      7.06      0.00
    9   19   38     -2.24      0.00
   11   19   38     -6.32      0.00
    0   20   38     -8.39      0.00
    2   20   38    -19.21      0.00
    4   20   38      3.80      0.00
    6   20   38    -11.16      0.00
    8   20   38      3.88      0.00
    1   21   38     -7.08      0.00
    3   21   38      2.36      0.00
    5   21   38      4.64      0.00
    7   21   38      7.44      0.00
    0   22   38    -18.69      0.00
    2   22   38      2.15      0.00
    0    1   39      0.78      0.00
    1    2   39      2.60      0.00
    0    3   39     10.90      0.00
    2    3   39     -0.32      0.00
    1    4   39     -1.35      0.00
    3    4   39      3.32      0.00
    0    5   39      3.38      0.00
    2    5   39      4.76      0.00
    4    5   39      9.07      0.00
    1    6   39     -1.75      0.00
    3    6   39     -1.94      0.00
    5    6   39     -0.16      0.00
    0    7   39      1.75      0.00
    2    7   39      2.13      0.00
    4    7   39     -4.05      0.00
    6    7   39      5.87      0.00
    1    8   39     -1.58      0.00
    3    8   39     -1.38      0.00
    5    8   39     -5.09      0.00
    7    8   39     -0.72      0.00
    0    9   39     12.94      0.00
    2    9   39     -7.02      0.00
    4    9   39      5.98      0.00
    6    9   39     -5.79      0.00
    8    9   39     -7.49      0.00
    1   10   39      5.31      0.00
    3   10   39     12.90      0.00
    5   10   39      2.39      0.00
    7   10   39     -2.82      0.00
    9   10   39      3.31      0.00
    0   11   39      8.09      0.00
    2   11   39      1.95      0.00
    4   11   39     -4.57      0.00
    6   11   39      0.09      0.00
    8   11   39      4.14      0.00
   10   11   39      6.68      0.00
    1   12   39      3.95      0.00
    3   12   39      2.76      0.00
    5   12   39     10.90      0.00
    7   12   39     -1.01      0.00
    9   12   39      2.62      0.00
   11   12   39     -5.97      0.00
    0   13   39     -8.07      0.00
    2   13   39      0.80      0.00
    4   13   39     -3.14      0.00
    6   13   39      3.28      0.00
    8   13   39     -2.33      0.00
   10   13   39      3.91      0.00
   12   13   39      9.94      0.00
    1   14   39      2.70      0.00
    3   14   39      7.05      0.00
    5   14   39      0.94      0.00
    7   14   39      3.19      0.00
    9   14   39      1.56      0.00
   11   14   39      3.86      0.00
   13   14   39      6.80      0.00
    0   15   39     -9.08      0.00
    2   15   39     -0.38      0.00
    4   15   39     -2.18      0.00
    6   15   39      3.46      0.00
    8   15   39     -0.01      0.00
   10   15   39      5.51      0.00
   12   15   39     11.74      0.00
   14   15   39      7.89      0.00
    1   16   39      7.61      0.00
    3   16   39      1.14      0.00
    5   16   39     -0.94      0.00
    7   16   39      5.69      0.00
    9   16   39      1.01      0.00
   11   16   39      4.50      0.00
   13   16   39     -8.55      0.00
   15   16   39     -1.29      0.00
    0   17   39    -10.80      0.00
    2   17   39     -5.56      0.00
    4   17   39     -4.70      0.00
    6   17   39     -6.24      0.00
    8   17   39      4.57      0.00
   10   17   39     -0.45      0.00
   12   17   39      0.93      0.00
   14   17   39     -1.22      0.00
    1   18   39      3.18      0.00
    3   18   39     11.95      0.00
    5   18   39     -4.45      0.00
    7   18   39      2.57      0.00
    9   18   39    -13.97      0.00
   11   18   39    -11.96      0.00
    0   19   39      1.72      0.00
    2   19   39     -9.05      0.00
    4   19   39     -0.97      0.00
    6   19   39     -5.21      0.00
    8   19   39     -6.67      0.00
   10   19   39      4.90      0.00
    1   20   39     11.43      0.00
    3   20   39      1.31      0.00
    5   20   39     14.49      0.00
    7   20   39     -7.90      0.00
    9   20   39     -7.92      0.00
    0   21   39      2.76      0.00
    2   21   39      8.98      0.00
    4   21   39     -2.85      0.00
    6   21   39     -1.84      0.00
    1   22   39      8.19      0.00
    0    0   40      8.96      0.00
    0    2   40      2.52      0.00
    2    2   40     -0.07      0.00
    1    3   40      7.40      0.00
    0    4   40     -0.08      0.00
    2    4   40     -2.30      0.00
    4    4   40     10.41      0.00
    1    5   40     -3.60      0.00
    3    5   40      0.11      0.00
    0    6   40      3.29      0.00
    2    6   40      3.18      0.00
    4    6   40     -2.87      0.00
    6    6   40     -2.46      0.00
    1    7   40     -0.05      0.00
    3    7   40     -1.80      0.00
    5    7   40      0.90      0.00
    0    8   40      7.95      0.00
    2    8   40      3.72      0.00
    4    8   40      6.91      0.00
    6    8   40      1.26      0.00
    8    8   40     -7.26      0.00
    1    9   40     -1.91      0.00
    3    9   40      1.36      0.00
    5    9   40      5.62      0.00
    7    9   40      0.37      0.00
    0   10   40     -2.53      0.00
    2   10   40     -1.13      0.00
    4   10   40     -1.79      0.00
    6   10   40     -5.73      0.00
    8   10   40     -1.57      0.00
   10   10   40     -1.04      0.00
    1   11   40      0.44      0.00
    3   11   40     -5.49      0.00
    5   11   40     -6.11      0.00
    7   11   40     -9.31      0.00
    9   11   40     -3.64      0.00
    0   12   40     -2.00      0.00
    2   12   40      0.45      0.00
    4   12   40     -2.61      0.00
    6   12   40      0.25      0.00
    8   12   40     -2.35      0.00
   10   12   40      2.74      0.00
   12   12   40     -5.12      0.00
    1   13   40      4.36      0.00
    3   13   40     -3.56      0.00
    5   13   40      0.38      0.00
    7   13   40      1.23      0.00
    9   13   40      1.92      0.00
   11   13   40     -3.63      0.00
    0   14   40      5.45      0.00
    2   14   40     -5.21      0.00
    4   14   40      1.84      0.00
    6   14   40      3.98      0.00
    8   14   40      2.97      0.00
   10   14   40      0.69      0.00
   12   14   40      8.89      0.00
   14   14   40     -9.86      0.00
    1   15   40      6.18      0.00
    3   15   40     13.63      0.00
    5   15   40      0.12      0.00
    7   15   40     13.42      0.00
    9   15   40     -7.17      0.00
   11   15   40      2.71      0.00
   13   15   40     -5.05      0.00
    0   16   40      1.33      0.00
    2   16   40     -2.95      0.00
    4   16   40      5.77      0.00
    6   16   40     -6.23      0.00
    8   16   40     -4.90      0.00
   10   16   40      2.18      0.00
   12   16   40    -10.98      0.00
   14   16   40      9.33      0.00
    1   17   40      9.60      0.00
    3   17   40      7.10      0.00
    5   17   40      7.86      0.00
    7   17   40      2.36      0.00
    9   17   40     -6.28      0.00
   11   17   40    -11.71      0.00
   13   17   40     -2.46      0.00
    0   18   40     11.46      0.00
    2   18   40     -3.23      0.00
    4   18   40     -5.03      0.00
    6   18   40    -11.20      0.00
    8   18   40      9.12      0.00
   10   18   40      4.57      0.00
   12   18   40      3.17      0.00
    1   19   40      4.19      0.00
    3   19   40      1.05      0.00
    5   19   40     -0.30      0.00
    7   19   40      5.25      0.00
    9   19   40    -10.24      0.00
   11   19   40     -5.99      0.00
    0   20   40     -9.92      0.00
    2   20   40      5.87      0.00
    4   20   40      1.02      0.00
    6   20   40     13.98      0.00
    8   20   40     -7.49      0.00
    1   21   40     12.50      0.00
    3   21   40     -4.32      0.00
    5   21   40     -3.84      0.00
    0    1   41     -3.79      0.00
    1    2   41      0.50      0.00
    0    3   41     -4.10      0.00
    2    3   41     -4.33      0.00
    1    4   41      4.70      0.00
    3    4   41      0.62      0.00
    0    5   41     -9.01      0.00
    2    5   41     -1.83      0.00
    4    5   41     -5.09      0.00
    1    6   41      1.27      0.00
    3    6   41      0.77      0.00
    5    6   41     11.38      0.00
    0    7   41     -2.62      0.00
    2    7   41      1.13      0.00
    4    7   41     -2.57      0.00
    6    7   41     -5.34      0.00
    1    8   41      1.66      0.00
    3    8   41     -2.60      0.00
    5    8   41     -4.33      0.00
    7    8   41     -2.59      0.00
    0    9   41      1.11      0.00
    2    9   41     -0.49      0.00
    4    9   41     -5.74      0.00
    6    9   41      2.42      0.00
    8    9   41     -0.65      0.00
    1   10   41      4.66      0.00
    3   10   41     -0.25      0.00
    5   10   41     -3.02      0.00
    7   10   41     -4.60      0.00
    9   10   41      2.97      0.00
    0   11   41     -1.92      0.00
    2   11   41     -3.47      0.00
    4   11   41     -0.05      0.00
    6   11   41     14.37      0.00
    8   11   41      7.57      0.00
   10   11   41     -5.03      0.00
    1   12   41      0.77      0.00
    3   12   41     -0.45      0.00
    5   12   41     -4.20      0.00
    7   12   41      3.99      0.00
    9   12   41     -6.60      0.00
   11   12   41      8.22      0.00
    0   13   41      6.04      0.00
    2   13   41     -6.02      0.00
    4   13   41      0.46      0.00
    6   13   41     -2.13      0.00
    8   13   41      0.15      0.00
   10   13   41      0.49      0.00
   12   13   41     -1.20      0.00
    1   14   41      6.71      0.00
    3   14   41      5.24      0.00
    5   14   41      1.40      0.00
    7   14   41     -4.90      0.00
    9   14   41      1.37      0.00
   11   14   41    -10.09      0.00
   13   14   41      1.66      0.00
    0   15   41      2.93      0.00
    2   15   41      1.50      0.00
    4   15   41     -7.06      0.00
    6   15   41     -4.68      0.00
    8   15   41     -6.67      0.00
   10   15   41      3.98      0.00
   12   15   41     -3.39      0.00
   14   15   41     -0.73      0.00
    1   16   41      1.55      0.00
    3   16   41     -0.07      0.00
    5   16   41     -4.59      0.00
    7   16   41      4.64      0.00
    9   16   41    -10.29      0.00
   11   16   41      0.96      0.00
   13   16   41      2.35      0.00
    0   17   41      2.89      0.00
    2   17   41     -4.83      0.00
    4   17   41     -4.14      0.00
    6   17   41     -2.04      0.00
    8   17   41     -3.79      0.00
   10   17   41     12.47      0.00
   12   17   41     -3.35      0.00
    1   18   41     -4.37      0.00
    3   18   41     -6.72      0.00
    5   18   41     13.34      0.00
    7   18   41     -4.11      0.00
    9   18   41     -0.01      0.00
   11   18   41      0.75      0.00
    0   19   41    -13.52      0.00
    2   19   41      7.87      0.00
    4   19   41     -5.37      0.00
    6   19   41      8.52      0.00
    8   19   41     -4.33      0.00
   10   19   41      9.24      0.00
    1   20   41      4.79      0.00
    3   20   41      2.96      0.00
    5   20   41    -15.93      0.00
    7   20   41      0.87      0.00
    0   21   41     -6.61      0.00
    2   21   41    -12.58      0.00
    4   21   41      1.13      0.00
    1    1   42     -1.04      0.00
    0    2   42     -3.52      0.00
    1    3   42      0.29      0.00
    3    3   42     -4.58      0.00
    0    4   42     -2.59      0.00
    2    4   42     -3.19      0.00
    1    5   42      2.77      0.00
    3    5   42      3.50      0.00
    5    5   42     -0.09      0.00
    0    6   42     -6.43      0.00
    2    6   42     -0.64      0.00
    4    6   42     -3.13      0.00
    1    7   42      3.01      0.00
    3    7   42      3.11      0.00
    5    7   42     -0.08      0.00
    7    7   42      3.24      0.00
    0    8   42     -7.24      0.00
    2    8   42     -0.17      0.00
    4    8   42     -6.02      0.00
    6    8   42      0.16      0.00
    1    9   42     -4.80      0.00
    3    9   42      6.04      0.00
    5    9   42     -1.14      0.00
    7    9   42      3.23      0.00
    9    9   42      5.88      0.00
    0   10   42      3.11      0.00
    2   10   42     -4.20      0.00
    4   10   42      2.47      0.00
    6   10   42     -1.19      0.00
    8   10   42     -7.96      0.00
    1   11   42      1.19      0.00
    3   11   42     -2.53      0.00
    5   11   42      0.44      0.00
    7   11   42      3.54      0.00
    9   11   42      3.24      0.00
   11   11   42      1.97      0.00
    0   12   42     14.88      0.00
    2   12   42      8.68      0.00
    4   12   42      2.41      0.00
    6   12   42      8.06      0.00
    8   12   42     -1.24      0.00
   10   12   42      7.40      0.00
    1   13   42      4.54      0.00
    3   13   42     13.40      0.00
    5   13   42      5.43      0.00
    7   13   42     -8.08      0.00
    9   13   42      6.17      0.00
   11   13   42     -6.08      0.00
   13   13   42      0.92      0.00
    0   14   42     -2.77      0.00
    2   14   42      8.02      0.00
    4   14   42     -4.64      0.00
    6   14   42      9.17      0.00
    8   14   42      2.89      0.00
   10   14   42     16.29      0.00
   12   14   42      2.24      0.00
    1   15   42      5.72      0.00
    3   15   42      7.16      0.00
    5   15   42     -0.48      0.00
    7   15   42     -5.37      0.00
    9   15   42     -2.04      0.00
   11   15   42     -7.76      0.00
   13   15   42      3.70      0.00
   15   15   42      0.07      0.00
    0   16   42     -3.45      0.00
    2   16   42      7.66      0.00
    4   16   42      2.18      0.00
    6   16   42      6.99      0.00
    8   16   42      4.86      0.00
   10   16   42      2.40      0.00
   12   16   42      1.42      0.00
   14   16   42     -1.27      0.00
    1   17   42      5.53      0.00
    3   17   42     -4.78      0.00
    5   17   42      7.16      0.00
    7   17   42      9.78      0.00
    9   17   42      3.36      0.00
   11   17   42     -0.96      0.00
   13   17   42      1.19      0.00
    0   18   42      8.21      0.00
    2   18   42     11.23      0.00
    4   18   42     -4.65      0.00
    6   18   42     -2.80      0.00
    8   18   42      5.83      0.00
   10   18   42      2.47      0.00
    1   19   42     -4.45      0.00
    3   19   42      2.21      0.00
    5   19   42     -4.83      0.00
    7   19   42      0.23      0.00
    9   19   42      1.75      0.00
    0   20   42      3.22      0.00
    2   20   42     -0.12      0.00
    4   20   42      2.03      0.00
    6   20   42      3.17      0.00
    8   20   42     -3.92      0.00
    1   21   42     -6.42      0.00
    3   21   42    -10.74      0.00
    0    1   43     -4.74      0.00
    1    2   43      3.70      0.00
    0    3   43      3.38      0.00
    2    3   43     -3.30      0.00
    1    4   43      3.48      0.00
    3    4   43      1.38      0.00
    0    5   43     -3.08      0.00
    2    5   43     -2.18      0.00
    4    5   43      3.92      0.00
    1    6   43     -3.41      0.00
    3    6   43      2.96      0.00
    5    6   43     -0.15      0.00
    0    7   43      4.26      0.00
    2    7   43     -1.83      0.00
    4    7   43      0.76      0.00
    6    7   43     -5.20      0.00
    1    8   43     -2.96      0.00
    3    8   43     -7.51      0.00
    5    8   43     -1.09      0.00
    7    8   43      0.54      0.00
    0    9   43      7.69      0.00
    2    9   43     -3.42      0.00
    4    9   43     -8.23      0.00
    6    9   43      4.67      0.00
    8    9   43     -0.80      0.00
    1   10   43     -3.47      0.00
    3   10   43      0.88      0.00
    5   10   43      7.43      0.00
    7   10   43      4.43      0.00
    9   10   43      1.13      0.00
    0   11   43     -5.78      0.00
    2   11   43      3.42      0.00
    4   11   43      1.50      0.00
    6   11   43     -2.48      0.00
    8   11   43     -2.58      0.00
   10   11   43      4.17      0.00
    1   12   43     -7.75      0.00
    3   12   43      2.70      0.00
    5   12   43     -5.47      0.00
    7   12   43     -6.27      0.00
    9   12   43      3.48      0.00
   11   12   43     -7.07      0.00
    0   13   43     -4.17      0.00
    2   13   43     -1.82      0.00
    4   13   43     -3.19      0.00
    6   13   43     -2.35      0.00
    8   13   43    -11.10      0.00
   10   13   43      3.34      0.00
   12   13   43     -5.06      0.00
    1   14   43      3.61      0.00
    3   14   43     -6.49      0.00
    5   14   43     -5.18      0.00
    7   14   43     -1.76      0.00
    9   14   43     -1.93      0.00
   11   14   43    -13.00      0.00
   13   14   43     -5.36      0.00
    0   15   43     -1.17      0.00
    2   15   43     -8.45      0.00
    4   15   43     -7.94      0.00
    6   15   43      0.91      0.00
    8   15   43      0.34      0.00
   10   15   43     -6.35      0.00
   12   15   43      0.13      0.00
   14   15   43     -6.68      0.00
    1   16   43     -6.62      0.00
    3   16   43      1.49      0.00
    5   16   43      1.90      0.00
    7   16   43      0.42      0.00
    9   16   43     -1.54      0.00
   11   16   43      2.41      0.00
   13   16   43     -0.24      0.00
    0   17   43     -9.91      0.00
    2   17   43    -12.33      0.00
    4   17   43     -1.18      0.00
    6   17   43     -7.63      0.00
    8   17   43    -10.54      0.00
   10   17   43      3.78      0.00
   12   17   43      1.79      0.00
    1   18   43     -0.41      0.00
    3   18   43      4.97      0.00
    5   18   43      6.37      0.00
    7   18   43      1.18      0.00
    9   18   43      1.35      0.00
   11   18   43      3.93      0.00
    0   19   43      6.12      0.00
    2   19   43      2.52      0.00
    4   19   43     -4.08      0.00
    6   19   43     -9.39      0.00
    8   19   43      2.94      0.00
    1   20   43     -7.80      0.00
    3   20   43      2.02      0.00
    5   20   43     -8.21      0.00
    7   20   43      4.84      0.00
    0   21   43     -7.48      0.00
    2   21   43     12.07      0.00
    0    0   44     16.02      0.00
    0    2   44     -3.23      0.00
    2    2   44     -1.70      0.00
    1    3   44      1.08      0.00
    0    4   44     -7.62      0.00
    2    4   44     -2.10      0.00
    4    4   44      0.51      0.00
    1    5   44      6.07      0.00
    3    5   44     -0.08      0.00
    0    6   44     -2.25      0.00
    2    6   44     -3.55      0.00
    4    6   44     -2.45      0.00
    6    6   44      8.06      0.00
    1    7   44      0.66      0.00
    3    7   44     -3.91      0.00
    5    7   44      5.70      0.00
    0    8   44      4.31      0.00
    2    8   44     -1.79      0.00
    4    8   44      5.87      0.00
    6    8   44      0.61      0.00
    8    8   44     10.55      0.00
    1    9   44     -2.63      0.00
    3    9   44      8.36      0.00
    5    9   44      5.85      0.00
    7    9   44     -8.38      0.00
    0   10   44     -3.89      0.00
    2   10   44      3.23      0.00
    4   10   44     -7.31      0.00
    6   10   44      1.47      0.00
    8   10   44     -5.14      0.00
   10   10   44     18.88      0.00
    1   11   44      5.49      0.00
    3   11   44     -4.31      0.00
    5   11   44     -9.07      0.00
    7   11   44     -4.33      0.00
    9   11   44      0.60      0.00
    0   12   44      1.60      0.00
    2   12   44      0.14      0.00
    4   12   44      9.31      0.00
    6   12   44     -1.74      0.00
    8   12   44     -3.99      0.00
   10   12   44     -4.49      0.00
   12   12   44     -4.62      0.00
    1   13   44     -1.46      0.00
    3   13   44     -3.02      0.00
    5   13   44     -9.16      0.00
    7   13   44      0.27      0.00
    9   13   44     -2.87      0.00
   11   13   44     12.04      0.00
    0   14   44      0.42      0.00
    2   14   44    -12.99      0.00
    4   14   44      0.34      0.00
    6   14   44      1.22      0.00
    8   14   44     -1.77      0.00
   10   14   44     -7.65      0.00
   12   14   44      4.97      0.00
   14   14   44      3.36      0.00
    1   15   44     -4.97      0.00
    3   15   44      4.45      0.00
    5   15   44     -1.19      0.00
    7   15   44     -2.74      0.00
    9   15   44      1.38      0.00
   11   15   44     -8.05      0.00
   13   15   44     10.82      0.00
    0   16   44      4.37      0.00
    2   16   44     -1.24      0.00
    4   16   44     -2.30      0.00
    6   16   44     -2.40      0.00
    8   16   44     10.77      0.00
   10   16   44      7.74      0.00
   12   16   44      0.94      0.00
    1   17   44      9.53      0.00
    3   17   44      9.50      0.00
    5   17   44      1.11      0.00
    7   17   44      7.56      0.00
    9   17   44     -9.92      0.00
   11   17   44      8.72      0.00
    0   18   44     11.54      0.00
    2   18   44     -2.58      0.00
    4   18   44     -2.69      0.00
    6   18   44      0.09      0.00
    8   18   44     -5.33      0.00
   10   18   44      8.91      0.00
    1   19   44    -10.47      0.00
    3   19   44     -4.76      0.00
    5   19   44      1.54      0.00
    7   19   44      2.64      0.00
    9   19   44     -7.48      0.00
    0   20   44     -6.67      0.00
    2   20   44      0.23      0.00
    4   20   44      1.30      0.00
    6   20   44      3.27      0.00
    1   21   44     -4.37      0.00
    0    1   45     -5.69      0.00
    1    2   45     -0.08      0.00
    0    3   45     -3.45      0.00
    2    3   45      4.26      0.00
    1    4   45      2.97      0.00
    3    4   45     -4.28      0.00
    0    5   45      0.41      0.00
    2    5   45      0.91      0.00
    4    5   45      0.34      0.00
    1    6   45      1.93      0.00
    3    6   45      0.51      0.00
    5    6   45     -6.25      0.00
    0    7   45      5.82      0.00
    2    7   45      2.97      0.00
    4    7   45      5.85      0.00
    6    7   45     -0.79      0.00
    1    8   45     -2.71      0.00
    3    8   45      2.82      0.00
    5    8   45      3.78      0.00
    7    8   45      4.81      0.00
    0    9   45      0.23      0.00
    2    9   45     10.37      0.00
    4    9   45     -7.66      0.00
    6    9   45      2.03      0.00
    8    9   45      7.91      0.00
    1   10   45      3.27      0.00
    3   10   45      1.91      0.00
    5   10   45     -0.45      0.00
    7   10   45     10.89      0.00
    9   10   45      4.37      0.00
    0   11   45     -3.68      0.00
    2   11   45     -2.85      0.00
    4   11   45     16.38      0.00
    6   11   45     -6.24      0.00
    8   11   45     -7.37      0.00
   10   11   45     -4.49      0.00
    1   12   45     -3.42      0.00
    3   12   45     -8.35      0.00
    5   12   45      0.37      0.00
    7   12   45      1.79      0.00
    9   12   45      4.25      0.00
   11   12   45      0.34      0.00
    0   13   45      6.78      0.00
    2   13   45     -9.26      0.00
    4   13   45     -3.49      0.00
    6   13   45      9.06      0.00
    8   13   45     -9.42      0.00
   10   13   45     -1.75      0.00
   12   13   45     -1.59      0.00
    1   14   45      0.48      0.00
    3   14   45      7.80      0.00
    5   14   45      4.91      0.00
    7   14   45      1.05      0.00
    9   14   45     -5.13      0.00
   11   14   45     -7.34      0.00
   13   14   45     -5.12      0.00
    0   15   45      8.41      0.00
    2   15   45      2.26      0.00
    4   15   45     -3.63      0.00
    6   15   45      4.21      0.00
    8   15   45      4.95      0.00
   10   15   45      8.17      0.00
   12   15   45      1.36      0.00
   14   15   45      0.80      0.00
    1   16   45      4.49      0.00
    3   16   45      3.40      0.00
    5   16   45      6.17      0.00
    7   16   45    -10.07      0.00
    9   16   45     -1.47      0.00
   11   16   45      1.24      0.00
   13   16   45     -2.63      0.00
    0   17   45    -11.89      0.00
    2   17   45      3.55      0.00
    4   17   45      2.23      0.00
    6   17   45      0.93      0.00
    8   17   45    -13.82      0.00
   10   17   45      5.98      0.00
   12   17   45     -6.68      0.00
    1   18   45     -8.72      0.00
    3   18   45     -1.43      0.00
    5   18   45    -10.24      0.00
    7   18   45      8.88      0.00
    9   18   45     -6.04      0.00
    0   19   45      2.85      0.00
    2   19   45      3.31      0.00
    4   19   45     -2.62      0.00
    6   19   45     -5.13      0.00
    8   19   45     11.05      0.00
    1   20   45      0.37      0.00
    3   20   45     -0.23      0.00
    5   20   45      3.16      0.00
    1    1   46     -2.56      0.00
    0    2   46    -10.59      0.00
    1    3   46      0.56      0.00
    3    3   46     -3.71      0.00
    0    4   46      2.39      0.00
    2    4   46     -6.63      0.00
    1    5   46      1.29      0.00
    3    5   46     -1.10      0.00
    5    5   46     -5.88      0.00
    0    6   46      3.47      0.00
    2    6   46      4.44      0.00
    4    6   46     -0.83      0.00
    1    7   46     -4.55      0.00
    3    7   46      6.97      0.00
    5    7   46     -2.88      0.00
    7    7   46      3.98      0.00
    0    8   46      1.20      0.00
    2    8   46     11.75      0.00
    4    8   46      8.44      0.00
    6    8   46      0.45      0.00
    1    9   46      7.00      0.00
    3    9   46      3.41      0.00
    5    9   46      5.00      0.00
    7    9   46     -6.49      0.00
    9    9   46      2.01      0.00
    0   10   46      9.31      0.00
    2   10   46     -1.74      0.00
    4   10   46     -5.41      0.00
    6   10   46      4.31      0.00
    8   10   46     -4.64      0.00
    1   11   46      4.02      0.00
    3   11   46      1.82      0.00
    5   11   46      3.18      0.00
    7   11   46      6.16      0.00
    9   11   46     -3.40      0.00
   11   11   46     -3.53      0.00
    0   12   46     -0.10      0.00
    2   12   46      4.23      0.00
    4   12   46     -9.44      0.00
    6   12   46      2.27      0.00
    8   12   46     -1.26      0.00
   10   12   46      1.92      0.00
    1   13   46     -3.98      0.00
    3   13   46      0.89      0.00
    5   13   46      0.92      0.00
    7   13   46      0.25      0.00
    9   13   46      2.36      0.00
   11   13   46     -4.82      0.00
   13   13   46     13.46      0.00
    0   14   46    -14.10      0.00
    2   14   46      2.94      0.00
    4   14   46     -1.58      0.00
    6   14   46      4.68      0.00
    8   14   46    -11.64      0.00
   10   14   46     11.70      0.00
   12   14   46     10.15      0.00
    1   15   46     -4.71      0.00
    3   15   46     -0.78      0.00
    5   15   46     -7.93      0.00
    7   15   46      0.70      0.00
    9   15   46      1.77      0.00
   11   15   46     -7.13      0.00
   13   15   46     -1.00      0.00
    0   16   46     -5.79      0.00
    2   16   46      4.32      0.00
    4   16   46    -14.06      0.00
    6   16   46      3.75      0.00
    8   16   46     -3.72      0.00
   10   16   46     -3.32      0.00
   12   16   46     -2.29      0.00
    1   17   46     -2.25      0.00
    3   17   46     -5.13      0.00
    5   17   46      2.48      0.00
    7   17   46     -8.19      0.00
    9   17   46     -2.66      0.00
   11   17   46    -16.37      0.00
    0   18   46    -11.58      0.00
    2   18   46    -13.45      0.00
    4   18   46      0.99      0.00
    6   18   46     -6.78      0.00
    8   18   46     -0.41      0.00
   10   18   46      1.17      0.00
    1   19   46      5.30      0.00
    3   19   46      3.40      0.00
    5   19   46      9.69      0.00
    7   19   46     -5.29      0.00
    0   20   46     -7.85      0.00
    2   20   46      3.47      0.00
    4   20   46     -5.60      0.00
    0    1   47     10.62      0.00
    1    2   47     -0.89      0.00
    0    3   47     -3.78      0.00
    2    3   47     -0.76      0.00
    1    4   47      2.07      0.00
    3    4   47      5.15      0.00
    0    5   47     -7.38      0.00
    2    5   47      0.19      0.00
    4    5   47     -1.56      0.00
    1    6   47      6.75      0.00
    3    6   47      6.14      0.00
    5    6   47     -1.26      0.00
    0    7   47     -9.17      0.00
    2    7   47      2.41      0.00
    4    7   47      1.03      0.00
    6    7   47     -2.35      0.00
    1    8   47     -0.02      0.00
    3    8   47      3.23      0.00
    5    8   47      2.39      0.00
    7    8   47     -2.80      0.00
    0    9   47     10.29      0.00
    2    9   47    -10.03      0.00
    4    9   47     -6.76      0.00
    6    9   47      6.03      0.00
    8    9   47     -0.42      0.00
    1   10   47     -1.99      0.00
    3   10   47      0.89      0.00
    5   10   47      3.39      0.00
    7   10   47     -2.72      0.00
    9   10   47     -1.13      0.00
    0   11   47    -11.23      0.00
    2   11   47      1.36      0.00
    4   11   47      4.83      0.00
    6   11   47      1.89      0.00
    8   11   47     -0.50      0.00
   10   11   47     13.76      0.00
    1   12   47      0.10      0.00
    3   12   47     -3.38      0.00
    5   12   47     -5.61      0.00
    7   12   47     -0.35      0.00
    9   12   47      6.08      0.00
   11   12   47     -2.92      0.00
    0   13   47      1.17      0.00
    2   13   47      1.43      0.00
    4   13   47      7.52      0.00
    6   13   47     12.50      0.00
    8   13   47     -0.64      0.00
   10   13   47      9.72      0.00
   12   13   47    -10.45      0.00
    1   14   47     -0.97      0.00
    3   14   47      4.55      0.00
    5   14   47     -1.75      0.00
    7   14   47     -2.99      0.00
    9   14   47      3.64      0.00
   11   14   47     -0.18      0.00
   13   14   47     -6.34      0.00
    0   15   47     10.23      0.00
    2   15   47      2.33      0.00
    4   15   47      8.08      0.00
    6   15   47     -1.90      0.00
    8   15   47     -0.34      0.00
   10   15   47     -4.14      0.00
   12   15   47      4.63      0.00
    1   16   47    -14.34      0.00
    3   16   47     -2.56      0.00
    5   16   47     -6.21      0.00
    7   16   47     -3.91      0.00
    9   16   47      0.62      0.00
   11   16   47    -13.88      0.00
    0   17   47     -2.77      0.00
    2   17   47      1.51      0.00
    4   17   47     -4.23      0.00
    6   17   47     -3.71      0.00
    8   17   47      8.48      0.00
   10   17   47      5.20      0.00
    1   18   47      4.24      0.00
    3   18   47     -1.49      0.00
    5   18   47      0.66      0.00
    7   18   47      1.37      0.00
    9   18   47     -2.41      0.00
    0   19   47     11.59      0.00
    2   19   47      3.22      0.00
    4   19   47      3.22      0.00
    6   19   47     12.50      0.00
    1   20   47      4.15      0.00
    3   20   47     -2.79      0.00
    0    0   48      1.79      0.00
    0    2   48     -2.94      0.00
    2    2   48      0.81      0.00
    1    3   48     -1.15      0.00
    0    4   48     -3.34      0.00
    2    4   48      7.16      0.00
    4    4   48     -3.54      0.00
    1    5   48      4.05      0.00
    3    5   48     -5.34      0.00
    0    6   48      2.83      0.00
    2    6   48     -2.34      0.00
    4    6   48      0.03      0.00
    6    6   48      3.87      0.00
    1    7   48     -4.40      0.00
    3    7   48     -3.07      0.00
    5    7   48    -10.01      0.00
    0    8   48      6.68      0.00
    2    8   48     -3.16      0.00
    4    8   48     -5.57      0.00
    6    8   48     -1.39      0.00
    8    8   48    -14.83      0.00
    1    9   48     -4.07      0.00
    3    9   48     -5.82      0.00
    5    9   48      2.58      0.00
    7    9   48     -1.90      0.00
    0   10   48     -3.27      0.00
    2   10   48      1.20      0.00
    4   10   48      0.86      0.00
    6   10   48     -2.08      0.00
    8   10   48     -3.11      0.00
   10   10   48     -1.60      0.00
    1   11   48      5.85      0.00
    3   11   48      0.13      0.00
    5   11   48     -7.26      0.00
    7   11   48     10.52      0.00
    9   11   48      7.59      0.00
    0   12   48      5.60      0.00
    2   12   48      0.47      0.00
    4   12   48      4.69      0.00
    6   12   48      1.93      0.00
    8   12   48      4.71      0.00
   10   12   48     -2.73      0.00
   12   12   48      0.32      0.00
    1   13   48      4.38      0.00
    3   13   48     -0.18      0.00
    5   13   48     -4.46      0.00
    7   13   48      9.50      0.00
    9   13   48     -0.66      0.00
   11   13   48     -1.19      0.00
    0   14   48     -4.23      0.00
    2   14   48     -2.99      0.00
    4   14   48      4.17      0.00
    6   14   48     -3.09      0.00
    8   14   48     -4.68      0.00
   10   14   48      9.82      0.00
   12   14   48      1.26      0.00
   14   14   48      2.98      0.00
    1   15   48    -18.30      0.00
    3   15   48     -7.17      0.00
    5   15   48     -0.44      0.00
    7   15   48     -1.43      0.00
    9   15   48     -2.20      0.00
   11   15   48     -1.99      0.00
   13   15   48     -8.97      0.00
    0   16   48      7.81      0.00
    2   16   48     -2.89      0.00
    4   16   48     -4.40      0.00
    6   16   48      5.82      0.00
    8   16   48      0.91      0.00
   10   16   48     -4.28      0.00
   12   16   48      6.72      0.00
    1   17   48     -0.09      0.00
    3   17   48     -2.56      0.00
    5   17   48     -0.48      0.00
    7   17   48      9.50      0.00
    9   17   48      9.02      0.00
    0   18   48      3.12      0.00
    2   18   48      6.32      0.00
    4   18   48     14.72      0.00
    6   18   48      9.96      0.00
    8   18   48    -10.49      0.00
    1   19   48     -5.26      0.00
    3   19   48      1.14      0.00
    5   19   48     -0.31      0.00
    0   20   48      2.03      0.00
    2   20   48     -1.01      0.00
    0    1   49     -0.01      0.00
    1    2   49      4.17      0.00
    0    3   49     -3.02      0.00
    2    3   49      3.07      0.00
    1    4   49     -4.34      0.00
    3    4   49      0.61      0.00
    0    5   49     -0.07      0.00
    2    5   49     -5.39      0.00
    4    5   49      1.90      0.00
    1    6   49     -1.53      0.00
    3    6   49     -6.31      0.00
    5    6   49    -15.34      0.00
    0    7   49      5.06      0.00
    2    7   49      3.31      0.00
    4    7   49      3.72      0.00
    6    7   49      1.31      0.00
    1    8   49     -6.23      0.00
    3    8   49     -3.49      0.00
    5    8   49     -3.46      0.00
    7    8   49     -4.02      0.00
    0    9   49     -2.77      0.00
    2    9   49      2.74      0.00
    4    9   49     -1.19      0.00
    6    9   49      4.88      0.00
    8    9   49     -0.70      0.00
    1   10   49     -4.48      0.00
    3   10   49      3.01      0.00
    5   10   49     -1.26      0.00
    7   10   49      2.69      0.00
    9   10   49      3.49      0.00
    0   11   49      0.22      0.00
    2   11   49     -1.46      0.00
    4   11   49      3.02      0.00
    6   11   49     -7.91      0.00
    8   11   49     -3.89      0.00
   10   11   49      0.76      0.00
    1   12   49     -4.25      0.00
    3   12   49     -1.68      0.00
    5   12   49      9.66      0.00
    7   12   49     -1.91      0.00
    9   12   49      0.81      0.00
   11   12   49      5.75      0.00
    0   13   49     -2.58      0.00
    2   13   49      1.07      0.00
    4   13   49     -1.49      0.00
    6   13   49     -1.98      0.00
    8   13   49     -0.56      0.00
   10   13   49      4.21      0.00
   12   13   49     -1.19      0.00
    1   14   49      3.42      0.00
    3   14   49      1.18      0.00
    5   14   49     -4.58      0.00
    7   14   49      2.07      0.00
    9   14   49     -0.39      0.00
   11   14   49     -0.27      0.00
   13   14   49      3.93      0.00
    0   15   49      7.74      0.00
    2   15   49     -3.26      0.00
    4   15   49     -2.98      0.00
    6   15   49     10.75      0.00
    8   15   49      2.92      0.00
   10   15   49     17.33      0.00
   12   15   49     14.26      0.00
    1   16   49      7.99      0.00
    3   16   49      2.49      0.00
    5   16   49      3.54      0.00
    7   16   49      9.01      0.00
    9   16   49     12.92      0.00
   11   16   49      5.24      0.00
    0   17   49      6.81      0.00
    2   17   49      4.57      0.00
    4   17   49     -8.70      0.00
    6   17   49      3.81      0.00
    8   17   49     -0.90      0.00
   10   17   49     -0.76      0.00
    1   18   49     -1.44      0.00
    3   18   49     -0.04      0.00
    5   18   49      4.58      0.00
    7   18   49      2.77      0.00
    0   19   49     -0.04      0.00
    2   19   49     -4.11      0.00
    4   19   49     -6.20      0.00
    6   19   49    -11.64      0.00
    1    1   50      8.66      0.00
    0    2   50      6.87      0.00
    1    3   50      0.90      0.00
    3    3   50      2.99      0.00
    0    4   50      4.26      0.00
    2    4   50      0.88      0.00
    1    5   50      4.75      0.00
    3    5   50      2.03      0.00
    5    5   50     -8.44      0.00
    0    6   50     -1.12      0.00
    2    6   50      5.25      0.00
    4    6   50      5.63      0.00
    1    7   50     -3.78      0.00
    3    7   50     -3.62      0.00
    5    7   50     -3.90      0.00
    7    7   50      2.53      0.00
    0    8   50     -1.37      0.00
    2    8   50      7.90      0.00
    4    8   50     -4.75      0.00
    6    8   50     -0.91      0.00
    1    9   50     -9.17      0.00
    3    9   50      2.20      0.00
    5    9   50     -0.30      0.00
    7    9   50     -0.88      0.00
    9    9   50    -10.44      0.00
    0   10   50     -2.92      0.00
    2   10   50      1.00      0.00
    4   10   50      0.98      0.00
    6   10   50      3.76      0.00
    8   10   50     -3.31      0.00
    1   11   50     -1.62      0.00
    3   11   50     -9.46      0.00
    5   11   50     -5.21      0.00
    7   11   50     -0.50      0.00
    9   11   50      5.64      0.00
   11   11   50     -3.85      0.00
    0   12   50     -5.61      0.00
    2   12   50      5.10      0.00
    4   12   50     -6.29      0.00
    6   12   50     12.98      0.00
    8   12   50     -5.95      0.00
   10   12   50      3.26      0.00
    1   13   50      9.79      0.00
    3   13   50     -5.65      0.00
    5   13   50     -7.02      0.00
    7   13   50      1.18      0.00
    9   13   50      2.09      0.00
   11   13   50     -0.41      0.00
   13   13   50     18.01      0.00
    0   14   50      1.56      0.00
    2   14   50     -7.35      0.00
    4   14   50     -7.35      0.00
    6   14   50      6.69      0.00
    8   14   50      6.47      0.00
   10   14   50      4.34      0.00
   12   14   50     -5.71      0.00
    1   15   50      1.04      0.00
    3   15   50      8.53      0.00
    5   15   50     14.29      0.00
    7   15   50     -6.06      0.00
    9   15   50      5.39      0.00
   11   15   50      2.53      0.00
    0   16   50      2.31      0.00
    2   16   50      8.71      0.00
    4   16   50      0.68      0.00
    6   16   50     -0.61      0.00
    8   16   50    -11.04      0.00
   10   16   50     -0.58      0.00
    1   17   50     -6.32      0.00
    3   17   50      3.54      0.00
    5   17   50      5.06      0.00
    7   17   50      9.68      0.00
    9   17   50      1.27      0.00
    0   18   50    -10.90      0.00
    2   18   50      6.84      0.00
    4   18   50     -1.92      0.00
    6   18   50     -3.95      0.00
    1   19   50     -2.46      0.00
    3   19   50     -3.93      0.00
    5   19   50      3.92      0.00
    0    1   51     -2.57      0.00
    1    2   51      3.98      0.00
    0    3   51     -4.14      0.00
    2    3   51     -5.19      0.00
    1    4   51     -3.89      0.00
    3    4   51      5.08      0.00
    0    5   51    -14.45      0.00
    2    5   51      1.28      0.00
    4    5   51     -3.84      0.00
    1    6   51     -3.51      0.00
    3    6   51     -3.64      0.00
    5    6   51      2.97      0.00
    0    7   51     -3.13      0.00
    2    7   51     -6.85      0.00
    4    7   51      2.55      0.00
    6    7   51      1.42      0.00
    1    8   51     -3.73      0.00
    3    8   51     -0.25      0.00
    5    8   51      1.87      0.00
    7    8   51     -3.06      0.00
    0    9   51     -7.54      0.00
    2    9   51     -3.49      0.00
    4    9   51     -6.31      0.00
    6    9   51     -2.87      0.00
    8    9   51     -9.42      0.00
    1   10   51     -0.16      0.00
    3   10   51     -1.06      0.00
    5   10   51     -4.55      0.00
    7   10   51      0.74      0.00
    9   10   51      0.49      0.00
    0   11   51     -5.95      0.00
    2   11   51     -6.85      0.00
    4   11   51     -0.63      0.00
    6   11   51     -3.79      0.00
    8   11   51    -12.08      0.00
   10   11   51      1.42      0.00
    1   12   51     -6.40      0.00
    3   12   51      3.64      0.00
    5   12   51      0.48      0.00
    7   12   51    -17.64      0.00
    9   12   51      3.07      0.00
   11   12   51    -11.19      0.00
    0   13   51     -1.30      0.00
    2   13   51     -7.49      0.00
    4   13   51      5.23      0.00
    6   13   51     -5.54      0.00
    8   13   51     -4.06      0.00
   10   13   51     -7.97      0.00
   12   13   51     -6.91      0.00
    1   14   51      7.81      0.00
    3   14   51     -6.66      0.00
    5   14   51     -7.96      0.00
    7   14   51      9.11      0.00
    9   14   51     -3.83      0.00
   11   14   51     -2.74      0.00
   13   14   51     -2.11      0.00
    0   15   51     11.70      0.00
    2   15   51     12.55      0.00
    4   15   51     -3.01      0.00
    6   15   51     -6.15      0.00
    8   15   51     -6.24      0.00
   10   15   51      5.99      0.00
   12   15   51     -8.77      0.00
    1   16   51      0.47      0.00
    3   16   51      0.67      0.00
    5   16   51      0.29      0.00
    7   16   51     -7.97      0.00
    9   16   51     -0.07      0.00
    0   17   51      2.63      0.00
    2   17   51     -3.15      0.00
    4   17   51      5.03      0.00
    6   17   51     -6.58      0.00
    8   17   51     -7.03      0.00
    1   18   51      8.61      0.00
    3   18   51      1.88      0.00
    5   18   51     -9.91      0.00
    7   18   51      3.34      0.00
    0   19   51      5.97      0.00
    2   19   51      8.11      0.00
    0    0   52      4.47      0.00
    0    2   52    -15.63      0.00
    2    2   52     -0.21      0.00
    1    3   52     -4.42      0.00
    0    4   52      0.26      0.00
    2    4   52      3.74      0.00
    4    4   52     -2.99      0.00
    1    5   52      2.38      0.00
    3    5   52     -0.89      0.00
    0    6   52    -16.72      0.00
    2    6   52     -6.29      0.00
    4    6   52      1.95      0.00
    6    6   52     13.42      0.00
    1    7   52      4.46      0.00
    3    7   52      3.20      0.00
    5    7   52     -2.19      0.00
    0    8   52     -2.60      0.00
    2    8   52     -4.01      0.00
    4    8   52     -0.72      0.00
    6    8   52      0.19      0.00
    8    8   52     -7.18      0.00
    1    9   52      5.75      0.00
    3    9   52      4.68      0.00
    5    9   52      0.04      0.00
    7    9   52     13.23      0.00
    0   10   52      7.96      0.00
    2   10   52     -0.74      0.00
    4   10   52     -2.64      0.00
    6   10   52      0.01      0.00
    8   10   52      0.80      0.00
   10   10   52     -5.97      0.00
    1   11   52      3.18      0.00
    3   11   52      1.96      0.00
    5   11   52      3.01      0.00
    7   11   52      7.10      0.00
    9   11   52      3.35      0.00
    0   12   52      8.49      0.00
    2   12   52      5.82      0.00
    4   12   52      3.73      0.00
    6   12   52     -5.05      0.00
    8   12   52     -4.25      0.00
   10   12   52      4.49      0.00
   12   12   52     -8.61      0.00
    1   13   52      0.10      0.00
    3   13   52     -6.75      0.00
    5   13   52      8.51      0.00
    7   13   52      1.03      0.00
    9   13   52     -6.85      0.00
   11   13   52      0.32      0.00
    0   14   52     -7.35      0.00
    2   14   52      9.78      0.00
    4   14   52      9.60      0.00
    6   14   52     -1.23      0.00
    8   14   52      0.83      0.00
   10   14   52     -1.56      0.00
   12   14   52     -5.04      0.00
    1   15   52     -2.05      0.00
    3   15   52     15.68      0.00
    5   15   52     -8.50      0.00
    7   15   52     -7.26      0.00
    9   15   52    -15.23      0.00
   11   15   52     -5.24      0.00
    0   16   52     -8.76      0.00
    2   16   52    -10.60      0.00
    4   16   52      0.89      0.00
    6   16   52      3.65      0.00
    8   16   52      2.09      0.00
   10   16   52      6.44      0.00
    1   17   52      9.58      0.00
    3   17   52      1.76      0.00
    5   17   52      6.45      0.00
    7   17   52      4.06      0.00
    0   18   52      3.40      0.00
    2   18   52      1.25      0.00
    4   18   52    -13.25      0.00
    6   18   52     -0.53      0.00
    1   19   52     -9.99      0.00
    0    1   53      2.98      0.00
    1    2   53      5.23      0.00
    0    3   53     -0.97      0.00
    2    3   53      8.48      0.00
    1    4   53      0.00      0.00
    3    4   53     -7.91      0.00
    0    5   53      2.62      0.00
    2    5   53     -9.53      0.00
    4    5   53      0.67      0.00
    1    6   53     -3.08      0.00
    3    6   53      1.16      0.00
    5    6   53     -8.62      0.00
    0    7   53     -1.63      0.00
    2    7   53      2.20      0.00
    4    7   53      3.63      0.00
    6    7   53     -2.68      0.00
    1    8   53     -1.58      0.00
    3    8   53     -1.73      0.00
    5    8   53     -4.84      0.00
    7    8   53      5.97      0.00
    0    9   53      6.46      0.00
    2    9   53      2.11      0.00
    4    9   53     -0.44      0.00
    6    9   53     -1.55      0.00
    8    9   53     -1.41      0.00
    1   10   53      5.52      0.00
    3   10   53      0.13      0.00
    5   10   53     -1.07      0.00
    7   10   53     -2.33      0.00
    9   10   53     -8.09      0.00
    0   11   53     -8.19      0.00
    2   11   53      5.37      0.00
    4   11   53      0.01      0.00
    6   11   53     -6.32      0.00
    8   11   53     -5.17      0.00
   10   11   53      0.28      0.00
    1   12   53     -1.68      0.00
    3   12   53      6.11      0.00
    5   12   53     -2.75      0.00
    7   12   53     -1.69      0.00
    9   12   53     -7.99      0.00
   11   12   53     -1.64      0.00
    0   13   53    -11.20      0.00
    2   13   53      3.87      0.00
    4   13   53      5.38      0.00
    6   13   53      4.86      0.00
    8   13   53     -7.55      0.00
   10   13   53     -0.86      0.00
   12   13   53     -3.20      0.00
    1   14   53      6.73      0.00
    3   14   53    -14.40      0.00
    5   14   53     -1.86      0.00
    7   14   53     -4.90      0.00
    9   14   53     -3.78      0.00
   11   14   53     -3.30      0.00
    0   15   53      4.38      0.00
    2   15   53     -8.96      0.00
    4   15   53    -10.10      0.00
    6   15   53      1.66      0.00
    8   15   53      8.72      0.00
   10   15   53    -12.66      0.00
    1   16   53     -2.24      0.00
    3   16   53      8.59      0.00
    5   16   53     -0.90      0.00
    7   16   53      0.35      0.00
    9   16   53     -1.45      0.00
    0   17   53      7.38      0.00
    2   17   53      3.96      0.00
    4   17   53     -1.83      0.00
    6   17   53     -7.49      0.00
    8   17   53    -12.15      0.00
    1   18   53      3.67      0.00
    3   18   53     -5.62      0.00
    5   18   53      1.61      0.00
    1    1   54      1.21      0.00
    0    2   54    -11.28      0.00
    1    3   54      6.98      0.00
    3    3   54      6.86      0.00
    0    4   54      5.13      0.00
    2    4   54     -3.86      0.00
    1    5   54      7.63      0.00
    3    5   54      9.13      0.00
    5    5   54     -7.88      0.00
    0    6   54     -1.60      0.00
    2    6   54     18.24      0.00
    4    6   54      8.82      0.00
    1    7   54      0.58      0.00
    3    7   54      5.16      0.00
    5    7   54     -6.89      0.00
    7    7   54     -1.13      0.00
    0    8   54      1.91      0.00
    2    8   54      4.45      0.00
    4    8   54      3.08      0.00
    6    8   54     13.58      0.00
    1    9   54      3.79      0.00
    3    9   54     -5.03      0.00
    5    9   54     -1.47      0.00
    7    9   54      7.55      0.00
    9    9   54      5.22      0.00
    0   10   54     -9.08      0.00
    2   10   54      1.55      0.00
    4   10   54     -9.69      0.00
    6   10   54     -0.90      0.00
    8   10   54     -1.11      0.00
    1   11   54     -2.61      0.00
    3   11   54      2.83      0.00
    5   11   54      7.67      0.00
    7   11   54      4.01      0.00
    9   11   54      2.35      0.00
   11   11   54      8.91      0.00
    0   12   54      6.21      0.00
    2   12   54     -5.31      0.00
    4   12   54     -3.21      0.00
    6   12   54     -0.26      0.00
    8   12   54      6.66      0.00
   10   12   54     10.81      0.00
    1   13   54     -5.42      0.00
    3   13   54     -4.05      0.00
    5   13   54     -0.04      0.00
    7   13   54     -0.64      0.00
    9   13   54      5.60      0.00
   11   13   54      1.43      0.00
   13   13   54     14.25      0.00
    0   14   54     -7.67      0.00
    2   14   54     10.25      0.00
    4   14   54     13.76      0.00
    6   14   54      5.84      0.00
    8   14   54     -7.14      0.00
   10   14   54     -0.99      0.00
   12   14   54     -1.36      0.00
    1   15   54     -4.08      0.00
    3   15   54     -8.15      0.00
    5   15   54     -1.65      0.00
    7   15   54      7.01      0.00
    9   15   54      9.79      0.00
    0   16   54      9.58      0.00
    2   16   54      7.09      0.00
    4   16   54     -0.13      0.00
    6   16   54      4.44      0.00
    8   16   54     -0.11      0.00
    1   17   54     -0.59      0.00
    3   17   54    -13.92      0.00
    5   17   54      3.25      0.00
    7   17   54     -6.89      0.00
    0   18   54    -14.29      0.00
    2   18   54     -3.25      0.00
    4   18   54      6.74      0.00
    0    1   55      4.42      0.00
    1    2   55     -6.88      0.00
    0    3   55    -11.13      0.00
    2    3   55      0.52      0.00
    1    4   55     -1.63      0.00
    3    4   55    -11.06      0.00
    0    5   55      7.60      0.00
    2    5   55      1.09      0.00
    4    5   55      6.82      0.00
    1    6   55      1.09      0.00
    3    6   55     -2.67      0.00
    5    6   55    -13.51      0.00
    0    7   55     -1.23      0.00
    2    7   55     -0.38      0.00
    4    7   55     -2.39      0.00
    6    7   55     13.06      0.00
    1    8   55      2.83      0.00
    3    8   55     -4.38      0.00
    5    8   55      0.58      0.00
    7    8   55     -1.77      0.00
    0    9   55      1.28      0.00
    2    9   55      3.04      0.00
    4    9   55     12.62      0.00
    6    9   55     -3.49      0.00
    8    9   55    -10.83      0.00
    1   10   55     -5.92      0.00
    3   10   55      0.08      0.00
    5   10   55     -3.46      0.00
    7   10   55      1.31      0.00
    9   10   55     16.47      0.00
    0   11   55     16.09      0.00
    2   11   55      2.78      0.00
    4   11   55      2.45      0.00
    6   11   55      4.01      0.00
    8   11   55      5.16      0.00
   10   11   55     -4.48      0.00
    1   12   55      1.42      0.00
    3   12   55     -6.07      0.00
    5   12   55     -6.02      0.00
    7   12   55     14.89      0.00
    9   12   55      0.30      0.00
   11   12   55     -2.29      0.00
    0   13   55      1.45      0.00
    2   13   55      4.77      0.00
    4   13   55      0.61      0.00
    6   13   55     -4.36      0.00
    8   13   55     -3.36      0.00
   10   13   55     11.17      0.00
   12   13   55    -10.81      0.00
    1   14   55      1.67      0.00
    3   14   55    -12.31      0.00
    5   14   55      6.09      0.00
    7   14   55     -3.58      0.00
    9   14   55      5.65      0.00
   11   14   55     -4.10      0.00
    0   15   55     -4.63      0.00
    2   15   55     -0.18      0.00
    4   15   55      3.47      0.00
    6   15   55      1.29      0.00
    8   15   55      3.37      0.00
   10   15   55      0.18      0.00
    1   16   55      0.70      0.00
    3   16   55      9.08      0.00
    5   16   55     -4.53      0.00
    7   16   55     -1.63      0.00
    0   17   55     -9.38      0.00
    2   17   55     -5.73      0.00
    4   17   55      5.02      0.00
    6   17   55      0.68      0.00
    1   18   55      0.29      0.00
    0    0   56     -5.59      0.00
    0    2   56      1.15      0.00
    2    2   56      3.32      0.00
    1    3   56    -10.27      0.00
    0    4   56     -2.27      0.00
    2    4   56      5.81      0.00
    4    4   56     -1.61      0.00
    1    5   56     -0.52      0.00
    3    5   56     -4.32      0.00
    0    6   56     -5.18      0.00
    2    6   56      2.41      0.00
    4    6   56     -3.74      0.00
    6    6   56      2.52      0.00
    1    7   56      2.91      0.00
    3    7   56      1.58      0.00
    5    7   56      6.10      0.00
    0    8   56      5.65      0.00
    2    8   56     -0.54      0.00
    4    8   56      1.93      0.00
    6    8   56      0.80      0.00
    8    8   56     -3.07      0.00
    1    9   56     -1.66      0.00
    3    9   56     -1.72      0.00
    5    9   56     -7.75      0.00
    7    9   56      7.24      0.00
    0   10   56     -6.42      0.00
    2   10   56     -1.27      0.00
    4   10   56      7.64      0.00
    6   10   56      5.47      0.00
    8   10   56     -1.70      0.00
   10   10   56      3.08      0.00
    1   11   56     -0.93      0.00
    3   11   56     -2.51      0.00
    5   11   56      8.33      0.00
    7   11   56     -1.89      0.00
    9   11   56     -8.12      0.00
    0   12   56     -4.45      0.00
    2   12   56     -1.12      0.00
    4   12   56    -10.38      0.00
    6   12   56     -7.39      0.00
    8   12   56      3.15      0.00
   10   12   56     10.19      0.00
   12   12   56     -3.54      0.00
    1   13   56      8.26      0.00
    3   13   56      3.99      0.00
    5   13   56     -6.60      0.00
    7   13   56      6.09      0.00
    9   13   56     -1.67      0.00
   11   13   56      6.25      0.00
    0   14   56     -3.95      0.00
    2   14   56      8.75      0.00
    4   14   56      9.15      0.00
    6   14   56    -10.27      0.00
    8   14   56     -2.41      0.00
   10   14   56      4.31      0.00
    1   15   56      7.02      0.00
    3   15   56     -7.18      0.00
    5   15   56      7.77      0.00
    7   15   56     -5.16      0.00
    9   15   56      3.76      0.00
    0   16   56     -3.39      0.00
    2   16   56    -15.78      0.00
    4   16   56     -7.19      0.00
    6   16   56      2.55      0.00
    1   17   56    -12.05      0.00
    3   17   56      3.61      0.00
    5   17   56     -5.66      0.00
    0    1   57     -1.21      0.00
    1    2   57     -6.07      0.00
    0    3   57     10.22      0.00
    2    3   57      3.39      0.00
    1    4   57      9.63      0.00
    3    4   57      0.32      0.00
    0    5   57     -1.84      0.00
    2    5   57     -6.46      0.00
    4    5   57      6.63      0.00
    1    6   57      2.01      0.00
    3    6   57      0.51      0.00
    5    6   57     -0.62      0.00
    0    7   57      1.02      0.00
    2    7   57      5.57      0.00
    4    7   57     -5.34      0.00
    6    7   57      4.18      0.00
    1    8   57     -3.72      0.00
    3    8   57     -2.66      0.00
    5    8   57     -7.37      0.00
    7    8   57      4.07      0.00
    0    9   57     -5.85      0.00
    2    9   57     -0.20      0.00
    4    9   57      5.90      0.00
    6    9   57     -7.33      0.00
    8    9   57     -7.94      0.00
    1   10   57      3.16      0.00
    3   10   57      1.95      0.00
    5   10   57     -1.74      0.00
    7   10   57      3.24      0.00
    9   10   57      4.07      0.00
    0   11   57     -1.25      0.00
    2   11   57      5.17      0.00
    4   11   57    -20.43      0.00
    6   11   57      0.22      0.00
    8   11   57     -0.71      0.00
   10   11   57     -3.17      0.00
    1   12   57     -0.75      0.00
    3   12   57     -4.30      0.00
    5   12   57      6.52      0.00
    7   12   57      8.64      0.00
    9   12   57    -14.68      0.00
   11   12   57     -2.58      0.00
    0   13   57      8.10      0.00
    2   13   57     -0.48      0.00
    4   13   57      2.52      0.00
    6   13   57    -10.10      0.00
    8   13   57      7.61      0.00
   10   13   57      1.66      0.00
    1   14   57    -16.76      0.00
    3   14   57     -6.08      0.00
    5   14   57     -7.43      0.00
    7   14   57      3.73      0.00
    9   14   57      1.27      0.00
    0   15   57    -13.35      0.00
    2   15   57     -8.09      0.00
    4   15   57      3.80      0.00
    6   15   57      3.35      0.00
    8   15   57    -13.26      0.00
    1   16   57     -1.82      0.00
    3   16   57    -10.84      0.00
    5   16   57     -4.00      0.00
    7   16   57      9.21      0.00
    0   17   57      0.41      0.00
    2   17   57      6.49      0.00
    4   17   57      0.33      0.00
    1    1   58      4.15      0.00
    0    2   58      9.21      0.00
    1    3   58     -8.48      0.00
    3    3   58     -1.86      0.00
    0    4   58    -11.37      0.00
    2    4   58      1.08      0.00
    1    5   58     -8.11      0.00
    3    5   58     -0.01      0.00
    5    5   58      2.29      0.00
    0    6   58     -7.37      0.00
    2    6   58     12.63      0.00
    4    6   58      0.70      0.00
    1    7   58      0.47      0.00
    3    7   58     -2.15      0.00
    5    7   58     -9.42      0.00
    7    7   58      3.38      0.00
    0    8   58      9.69      0.00
    2    8   58      0.21      0.00
    4    8   58     -4.19      0.00
    6    8   58      5.46      0.00
    1    9   58      7.39      0.00
    3    9   58      3.66      0.00
    5    9   58     -3.57      0.00
    7    9   58      5.51      0.00
    9    9   58      5.31      0.00
    0   10   58    -11.66      0.00
    2   10   58      5.07      0.00
    4   10   58      6.83      0.00
    6   10   58     -5.11      0.00
    8   10   58    -13.50      0.00
    1   11   58     -0.58      0.00
    3   11   58      7.20      0.00
    5   11   58      4.49      0.00
    7   11   58     -1.73      0.00
    9   11   58     -4.00      0.00
   11   11   58     -7.24      0.00
    0   12   58      7.57      0.00
    2   12   58     -2.94      0.00
    4   12   58      9.16      0.00
    6   12   58     -2.83      0.00
    8   12   58     -2.77      0.00
   10   12   58     -2.60      0.00
    1   13   58      2.97      0.00
    3   13   58     -7.25      0.00
    5   13   58      2.11      0.00
    7   13   58     -0.10      0.00
    9   13   58     -3.98      0.00
   11   13   58     -1.97      0.00
    0   14   58    -12.24      0.00
    2   14   58     -9.66      0.00
    4   14   58      0.45      0.00
    6   14   58     -4.14      0.00
    8   14   58     -6.43      0.00
    1   15   58      6.66      0.00
    3   15   58     -8.54      0.00
    5   15   58      2.98      0.00
    7   15   58     -3.67      0.00
    0   16   58    -10.84      0.00
    2   16   58     -4.91      0.00
    4   16   58     -7.48      0.00
    6   16   58     -5.87      0.00
    1   17   58      3.30      0.00
    0    1   59     -4.02      0.00
    1    2   59      3.08      0.00
    0    3   59     19.23      0.00
    2    3   59      6.86      0.00
    1    4   59      3.57      0.00
    3    4   59      9.20      0.00
    0    5   59      6.58      0.00
    2    5   59      6.54      0.00
    4    5   59     -1.95      0.00
    1    6   59     -0.78      0.00
    3    6   59     -4.79      0.00
    5    6   59     -4.80      0.00
    0    7   59     -2.81      0.00
    2    7   59     -7.17      0.00
    4    7   59     -1.77      0.00
    6    7   59     -0.18      0.00
    1    8   59     -3.82      0.00
    3    8   59      1.40      0.00
    5    8   59      1.24      0.00
    7    8   59      3.00      0.00
    0    9   59     -5.23      0.00
    2    9   59      0.98      0.00
    4    9   59      3.59      0.00
    6    9   59     -7.62      0.00
    8    9   59      0.83      0.00
    1   10   59      5.78      0.00
    3   10   59     12.97      0.00
    5   10   59      2.51      0.00
    7   10   59      6.76      0.00
    9   10   59      7.98      0.00
    0   11   59      9.81      0.00
    2   11   59     -6.06      0.00
    4   11   59      2.08      0.00
    6   11   59      6.41      0.00
    8   11   59     -3.35      0.00
   10   11   59      7.79      0.00
    1   12   59      5.17      0.00
    3   12   59     -3.38      0.00
    5   12   59     21.16      0.00
    7   12   59      3.42      0.00
    9   12   59    -11.70      0.00
   11   12   59      1.86      0.00
    0   13   59    -15.37      0.00
    2   13   59      6.22      0.00
    4   13   59      2.92      0.00
    6   13   59     -2.77      0.00
    8   13   59      1.62      0.00
   10   13   59      6.93      0.00
    1   14   59     -0.20      0.00
    3   14   59      4.91      0.00
    5   14   59     -7.84      0.00
    7   14   59      8.25      0.00
    9   14   59      4.62      0.00
    0   15   59      6.51      0.00
    2   15   59      5.74      0.00
    4   15   59     -2.12      0.00
    6   15   59     -3.98      0.00
    1   16   59     18.43      0.00
    3   16   59      8.76      0.00
    5   16   59      4.66      0.00
    0    0   60     11.07      0.00
    0    2   60      6.57      0.00
    2    2   60      9.32      0.00
    1    3   60      1.28      0.00
    0    4   60     -0.95      0.00
    2    4   60      4.99      0.00
    4    4   60     -4.61      0.00
    1    5   60      7.59      0.00
    3    5   60      4.53      0.00
    0    6   60      2.90      0.00
    2    6   60     -3.18      0.00
    4    6   60      7.22      0.00
    6    6   60      4.06      0.00
    1    7   60      5.60      0.00
    3    7   60      6.97      0.00
    5    7   60      6.36      0.00
    0    8   60      0.95      0.00
    2    8   60     22.36      0.00
    4    8   60      4.21      0.00
    6    8   60      5.91      0.00
    8    8   60     -2.97      0.00
    1    9   60     -4.21      0.00
    3    9   60     -2.33      0.00
    5    9   60      3.84      0.00
    7    9   60      1.07      0.00
    0   10   60      2.79      0.00
    2   10   60     -2.47      0.00
    4   10   60      4.73      0.00
    6   10   60     -0.35      0.00
    8   10   60    -11.40      0.00
   10   10   60     -8.96      0.00
    1   11   60      3.97      0.00
    3   11   60     -4.81      0.00
    5   11   60      5.35      0.00
    7   11   60     -1.98      0.00
    9   11   60      0.64      0.00
    0   12   60    -13.56      0.00
    2   12   60      1.82      0.00
    4   12   60     -0.27      0.00
    6   12   60     -8.20      0.00
    8   12   60     -1.04      0.00
   10   12   60      8.44      0.00
    1   13   60    -10.84      0.00
    3   13   60     -1.27      0.00
    5   13   60      6.41      0.00
    7   13   60      2.83      0.00
    9   13   60      0.42      0.00
    0   14   60     13.83      0.00
    2   14   60      5.33      0.00
    4   14   60     -0.94      0.00
    6   14   60      1.07      0.00
    8   14   60      5.66      0.00
    1   15   60      6.89      0.00
    3   15   60      7.58      0.00
    5   15   60      1.32      0.00
    0   16   60      1.24      0.00
    2   16   60     -4.70      0.00
    0    1   61     -5.19      0.00
    1    2   61     -2.99      0.00
    0    3   61     -0.25      0.00
    2    3   61     -4.77      0.00
    1    4   61     -5.58      0.00
    3    4   61     -0.05      0.00
    0    5   61     -8.83      0.00
    2    5   61     -8.37      0.00
    4    5   61    -12.75      0.00
    1    6   61     -0.69      0.00
    3    6   61     -1.45      0.00
    5    6   61     16.04      0.00
    0    7   61    -22.05      0.00
    2    7   61     -4.15      0.00
    4    7   61      1.62      0.00
    6    7   61      0.70      0.00
    1    8   61     -6.31      0.00
    3    8   61     -5.91      0.00
    5    8   61     -1.52      0.00
    7    8   61      2.24      0.00
    0    9   61     -2.85      0.00
    2    9   61     -0.74      0.00
    4    9   61     -0.14      0.00
    6    9   61      8.80      0.00
    8    9   61     -3.99      0.00
    1   10   61      9.69      0.00
    3   10   61      1.01      0.00
    5   10   61     -6.38      0.00
    7   10   61      6.76      0.00
    9   10   61      5.73      0.00
    0   11   61    -11.85      0.00
    2   11   61     -6.60      0.00
    4   11   61    -10.27      0.00
    6   11   61      3.40      0.00
    8   11   61     -0.05      0.00
   10   11   61     17.93      0.00
    1   12   61     10.81      0.00
    3   12   61     12.22      0.00
    5   12   61     -8.41      0.00
    7   12   61      7.18      0.00
    9   12   61      2.00      0.00
    0   13   61     -0.07      0.00
    2   13   61      8.91      0.00
    4   13   61      4.33      0.00
    6   13   61    -10.12      0.00
    8   13   61     11.30      0.00
    1   14   61     22.71      0.00
    3   14   61      5.31      0.00
    5   14   61      1.76      0.00
    7   14   61      7.44      0.00
    0   15   61      2.25      0.00
    2   15   61     -4.54      0.00
    4   15   61      8.50      0.00
    1   16   61      7.57      0.00
    1    1   62     -6.43      0.00
    0    2   62     10.57      0.00
    1    3   62     -8.31      0.00
    3    3   62    -10.90      0.00
    0    4   62     -9.59      0.00
    2    4   62      3.55      0.00
    1    5   62      0.29      0.00
    3    5   62      4.92      0.00
    5    5   62     10.11      0.00
    0    6   62     -8.90      0.00
    2    6   62      4.83      0.00
    4    6   62      3.43      0.00
    1    7   62      9.28      0.00
    3    7   62      4.20      0.00
    5    7   62     -5.50      0.00
    7    7   62      0.00      0.00
    0    8   62     -6.26      0.00
    2    8   62      4.55      0.00
    4    8   62     -5.01      0.00
    6    8   62     -9.18      0.00
    1    9   62     -2.01      0.00
    3    9   62     -2.67      0.00
    5    9   62     -0.27      0.00
    7    9   62      2.90      0.00
    9    9   62     -0.40      0.00
    0   10   62    -11.21      0.00
    2   10   62    -17.84      0.00
    4   10   62    -18.60      0.00
    6   10   62     -5.83      0.00
    8   10   62     -1.76      0.00
    1   11   62      1.29      0.00
    3   11   62      7.89      0.00
    5   11   62     -2.51      0.00
    7   11   62      1.55      0.00
    9   11   62      4.84      0.00
   11   11   62    -12.30      0.00
    0   12   62    -12.78      0.00
    2   12   62     -9.83      0.00
    4   12   62      7.94      0.00
    6   12   62    -10.27      0.00
    8   12   62      5.56      0.00
   10   12   62      1.09      0.00
    1   13   62     -1.20      0.00
    3   13   62    -12.88      0.00
    5   13   62     14.90      0.00
    7   13   62      1.61      0.00
    0   14   62      7.68      0.00
    2   14   62     -1.35      0.00
    4   14   62      8.60      0.00
    6   14   62      6.21      0.00
    1   15   62     -2.27      0.00
    3   15   62     -0.59      0.00
    0    1   63     10.61      0.00
    1    2   63    -11.71      0.00
    0    3   63      0.62      0.00
    2    3   63      4.93      0.00
    1    4   63      1.06      0.00
    3    4   63      1.99      0.00
    0    5   63      0.12      0.00
    2    5   63      4.30      0.00
    4    5   63     -1.04      0.00
    1    6   63      3.93      0.00
    3    6   63     -6.89      0.00
    5    6   63     -7.70      0.00
    0    7   63     -1.94      0.00
    2    7   63    -11.57      0.00
    4    7   63     -6.72      0.00
    6    7   63     -3.73      0.00
    1    8   63     -4.44      0.00
    3    8   63      0.75      0.00
    5    8   63     -9.38      0.00
    7    8   63     -0.48      0.00
    0    9   63     -4.67      0.00
    2    9   63     -0.57      0.00
    4    9   63     -2.57      0.00
    6    9   63     -7.43      0.00
    8    9   63      1.40      0.00
    1   10   63      4.31      0.00
    3   10   63     -4.59      0.00
    5   10   63     -1.96      0.00
    7   10   63      3.31      0.00
    9   10   63      3.78      0.00
    0   11   63    -12.38      0.00
    2   11   63     -4.91      0.00
    4   11   63     -2.70      0.00
    6   11   63     -8.65      0.00
    8   11   63      2.91      0.00
   10   11   63     -7.45      0.00
    1   12   63     10.96      0.00
    3   12   63     -4.72      0.00
    5   12   63    -12.97      0.00
    7   12   63     -2.53      0.00
    9   12   63      0.19      0.00
    0   13   63      6.97      0.00
    2   13   63      2.38      0.00
    4   13   63     -5.85      0.00
    6   13   63     -0.79      0.00
    1   14   63     -7.83      0.00
    3   14   63     -1.72      0.00
    5   14   63     -2.36      0.00
    0   15   63    -11.08      0.00
    2   15   63     -4.44      0.00
    0    0   64      5.36      0.00
    0    2   64     10.84      0.00
    2    2   64      0.62      0.00
    1    3   64      0.27      0.00
    0    4   64     -9.26      0.00
    2    4   64     -1.11      0.00
    4    4   64     -7.06      0.00
    1    5   64     -7.09      0.00
    3    5   64      2.53      0.00
    0    6   64    -17.15      0.00
    2    6   64      1.36      0.00
    4    6   64     -8.96      0.00
    6    6   64     -8.67      0.00
    1    7   64      7.61      0.00
    3    7   64     -0.55      0.00
    5    7   64      0.06      0.00
    0    8   64     -3.43      0.00
    2    8   64     -0.86      0.00
    4    8   64      6.89      0.00
    6    8   64      1.57      0.00
    8    8   64      6.59      0.00
    1    9   64     -3.47      0.00
    3    9   64    -22.41      0.00
    5    9   64      1.95      0.00
    7    9   64     -2.29      0.00
    0   10   64      3.11      0.00
    2   10   64     -1.09      0.00
    4   10   64      4.84      0.00
    6   10   64      6.27      0.00
    8   10   64     -5.47      0.00
   10   10   64    -12.95      0.00
    1   11   64     -2.09      0.00
    3   11   64      5.01      0.00
    5   11   64     -4.78      0.00
    7   11   64     -5.29      0.00
    9   11   64    -12.31      0.00
    0   12   64    -16.04      0.00
    2   12   64     -5.43      0.00
    4   12   64     -0.43      0.00
    6   12   64     17.98      0.00
    8   12   64     -9.37      0.00
    1   13   64     -4.02      0.00
    3   13   64    -13.01      0.00
    5   13   64     -2.96      0.00
    0   14   64     -9.48      0.00
    2   14   64    -18.08      0.00
    4   14   64      4.07      0.00
    0    1   65      0.02      0.00
    1    2   65    -11.07      0.00
    0    3   65     12.59      0.00
    2    3   65      3.56      0.00
    1    4   65      4.26      0.00
    3    4   65     -2.52      0.00
    0    5   65      5.44      0.00
    2    5   65      3.83      0.00
    4    5   65      0.02      0.00
    1    6   65     13.33      0.00
    3    6   65     -7.47      0.00
    5    6   65      4.80      0.00
    0    7   65     -1.36      0.00
    2    7   65     -7.36      0.00
    4    7   65     -1.24      0.00
    6    7   65     11.16      0.00
    1    8   65     -3.98      0.00
    3    8   65     -5.49      0.00
    5    8   65     -5.17      0.00
    7    8   65      6.31      0.00
    0    9   65      6.87      0.00
    2    9   65     15.51      0.00
    4    9   65     -3.74      0.00
    6    9   65     -5.05      0.00
    8    9   65      1.49      0.00
    1   10   65     -1.03      0.00
    3   10   65      4.80      0.00
    5   10   65     -4.24      0.00
    7   10   65      6.70      0.00
    9   10   65      2.84      0.00
    0   11   65     -6.09      0.00
    2   11   65     -1.13      0.00
    4   11   65      1.01      0.00
    6   11   65     -0.89      0.00
    8   11   65     -2.62      0.00
    1   12   65      6.55      0.00
    3   12   65     -2.42      0.00
    5   12   65    -12.39      0.00
    7   12   65     -1.21      0.00
    0   13   65      3.94      0.00
    2   13   65      4.41      0.00
    4   13   65      1.94      0.00
    1   14   65     -0.74      0.00
    1    1   66    -17.21      0.00
    0    2   66     -4.80      0.00
    1    3   66    -14.30      0.00
    3    3   66    -11.61      0.00
    0    4   66     -8.32      0.00
    2    4   66     -2.48      0.00
    1    5   66    -11.05      0.00
    3    5   66      2.07      0.00
    5    5   66     14.29      0.00
    0    6   66    -13.33      0.00
    2    6   66     -5.44      0.00
    4    6   66     -2.22      0.00
    1    7   66     -0.36      0.00
    3    7   66      2.86      0.00
    5    7   66      0.13      0.00
    7    7   66      0.42      0.00
    0    8   66    -10.23      0.00
    2    8   66     12.14      0.00
    4    8   66     -4.50      0.00
    6    8   66      2.50      0.00
    1    9   66      0.45      0.00
    3    9   66     -2.00      0.00
    5    9   66      0.27      0.00
    7    9   66      0.93      0.00
    9    9   66     -8.98      0.00
    0   10   66     -8.84      0.00
    2   10   66      0.75      0.00
    4   10   66     17.41      0.00
    6   10   66      2.15      0.00
    8   10   66     -8.23      0.00
    1   11   66     10.79      0.00
    3   11   66      4.52      0.00
    5   11   66     12.67      0.00
    7   11   66     -3.58      0.00
    0   12   66      0.88      0.00
    2   12   66      3.19      0.00
    4   12   66      7.22      0.00
    6   12   66      0.73      0.00
    1   13   66      4.94      0.00
    3   13   66     -2.71      0.00
    0    1   67     -7.95      0.00
    1    2   67      4.55      0.00
    0    3   67     24.05      0.00
    2    3   67     -2.08      0.00
    1    4   67      2.12      0.00
    3    4   67      2.17      0.00
    0    5   67      1.29      0.00
    2    5   67      5.50      0.00
    4    5   67     -2.19      0.00
    1    6   67     -4.86      0.00
    3    6   67     -6.18      0.00
    5    6   67     -6.27      0.00
    0    7   67    -21.95      0.00
    2    7   67      6.10      0.00
    4    7   67      2.43      0.00
    6    7   67     -9.78      0.00
    1    8   67      1.37      0.00
    3    8   67     -2.14      0.00
    5    8   67     -4.88      0.00
    7    8   67      4.50      0.00
    0    9   67     -3.96      0.00
    2    9   67      8.82      0.00
    4    9   67     11.51      0.00
    6    9   67      2.01      0.00
    8    9   67      8.10      0.00
    1   10   67      1.95      0.00
    3   10   67      3.23      0.00
    5   10   67      0.51      0.00
    7   10   67      1.50      0.00
    0   11   67      6.86      0.00
    2   11   67      1.11      0.00
    4   11   67      2.94      0.00
    6   11   67     -3.10      0.00
    1   12   67      4.52      0.00
    3   12   67      1.66      0.00
    5   12   67     -5.81      0.00
    0   13   67     11.29      0.00
    2   13   67      8.39      0.00
    0    0   68    -10.01      0.00
    0    2   68      3.18      0.00
    2    2   68      5.42      0.00
    1    3   68     -1.29      0.00
    0    4   68     -8.24      0.00
    2    4   68      4.93      0.00
    4    4   68     13.24      0.00
    1    5   68    -13.35      0.00
    3    5   68     -6.98      0.00
    0    6   68      3.58      0.00
    2    6   68      9.14      0.00
    4    6   68      3.08      0.00
    6    6   68     -5.32      0.00
    1    7   68     17.99      0.00
    3    7   68      5.77      0.00
    5    7   68      3.50      0.00
    0    8   68      1.61      0.00
    2    8   68      0.30      0.00
    4    8   68     -0.40      0.00
    6    8   68      7.63      0.00
    8    8   68    -17.50      0.00
    1    9   68      5.53      0.00
    3    9   68     10.54      0.00
    5    9   68     15.95      0.00
    7    9   68     -3.07      0.00
    0   10   68     -0.80      0.00
    2   10   68      0.11      0.00
    4   10   68     -5.02      0.00
    6   10   68      0.91      0.00
    1   11   68     19.45      0.00
    3   11   68     -0.61      0.00
    5   11   68      3.10      0.00
    0   12   68      8.29      0.00
    2   12   68     -5.94      0.00
    4   12   68     13.07      0.00
    0    1   69     10.24      0.00
    1    2   69      5.17      0.00
    0    3   69      7.44      0.00
    2    3   69     -3.42      0.00
    1    4   69      4.22      0.00
    3    4   69      2.13      0.00
    0    5   69     16.08      0.00
    2    5   69     11.89      0.00
    4    5   69     -6.76      0.00
    1    6   69      4.46      0.00
    3    6   69      5.54      0.00
    5    6   69     -0.38      0.00
    0    7   69     12.38      0.00
    2    7   69     -7.68      0.00
    4    7   69      7.73      0.00
    6    7   69     -0.60      0.00
    1    8   69     -2.68      0.00
    3    8   69     -3.18      0.00
    5    8   69      0.50      0.00
    7    8   69     -2.66      0.00
    0    9   69      2.98      0.00
    2    9   69      4.99      0.00
    4    9   69     -3.85      0.00
    6    9   69     -3.86      0.00
    8    9   69      0.06      0.00
    1   10   69      0.38      0.00
    3   10   69    -11.69      0.00
    5   10   69    -21.30      0.00
    0   11   69    -21.23      0.00
    2   11   69     -9.95      0.00
    4   11   69     -4.71      0.00
    1   12   69    -17.45      0.00
    1    1   70      5.11      0.00
    0    2   70      3.09      0.00
    1    3   70      9.88      0.00
    3    3   70     14.26      0.00
    0    4   70     -4.49      0.00
    2    4   70     -5.59      0.00
    1    5   70     10.01      0.00
    3    5   70      4.47      0.00
    5    5   70     -7.54      0.00
    0    6   70     10.85      0.00
    2    6   70      8.44      0.00
    4    6   70     -2.53      0.00
    1    7   70      7.86      0.00
    3    7   70     -8.75      0.00
    5    7   70     -0.87      0.00
    7    7   70      4.27      0.00
    0    8   70     -2.79      0.00
    2    8   70     16.22      0.00
    4    8   70     16.93      0.00
    6    8   70     -1.71      0.00
    1    9   70     -3.77      0.00
    3    9   70     -5.80      0.00
    5    9   70      0.37      0.00
    7    9   70      0.82      0.00
    0   10   70      0.22      0.00
    2   10   70     14.28      0.00
    4   10   70      2.50      0.00
    1   11   70      7.98      0.00
    3   11   70      2.83      0.00
    0    1   71      7.90      0.00
    1    2   71      2.90      0.00
    0    3   71     -3.97      0.00
    2    3   71      6.95      0.00
    1    4   71     14.46      0.00
    3    4   71      4.06      0.00
    0    5   71      1.50      0.00
    2    5   71      1.77      0.00
    4    5   71      8.52      0.00
    1    6   71     -5.65      0.00
    3    6   71     12.43      0.00
    5    6   71      5.01      0.00
    0    7   71     -3.94      0.00
    2    7   71     -1.91      0.00
    4    7   71      6.34      0.00
    6    7   71     -2.88      0.00
    1    8   71      1.31      0.00
    3    8   71      0.38      0.00
    5    8   71     -7.87      0.00
    7    8   71      8.33      0.00
    0    9   71     -8.66      0.00
    2    9   71      0.83      0.00
    4    9   71    -10.83      0.00
    6    9   71     -3.10      0.00
    1   10   71     -2.72      0.00
    3   10   71     -4.69      0.00
    0    0   72    -13.39      0.00
    0    2   72     -2.36      0.00
    2    2   72     -5.74      0.00
    1    3   72    -20.93      0.00
    0    4   72    -18.34      0.00
    2    4   72     -7.48      0.00
    4    4   72     -6.47      0.00
    1    5   72     -5.68      0.00
    3    5   72     -5.76      0.00
    0    6   72      8.07      0.00
    2    6   72     -0.02      0.00
    4    6   72    -11.39      0.00
    6    6   72     26.49      0.00
    1    7   72     -5.58      0.00
    3    7   72     -7.38      0.00
    5    7   72     -1.91      0.00
    0    8   72    -13.82      0.00
    2    8   72      3.37      0.00
    4    8   72      7.40      0.00
    6    8   72      3.09      0.00
    1    9   72    -10.91      0.00
    3    9   72     -3.72      0.00
    0   10   72     11.83      0.00
    0    1   73      8.98      0.00
    1    2   73     -5.18      0.00
    0    3   73     -2.89      0.00
    2    3   73      7.64      0.00
    1    4   73      9.72      0.00
    3    4   73     -5.75      0.00
    0    5   73     -0.42      0.00
    2    5   73     -9.74      0.00
    4    5   73     17.59      0.00
    1    6   73     -5.84      0.00
    3    6   73     13.19      0.00
    5    6   73     -7.55      0.00
    0    7   73    -12.44      0.00
    2    7   73     -8.43      0.00
    4    7   73     -7.41      0.00
    6    7   73     -9.57      0.00
    1    8   73      7.64      0.00
    3    8   73     -1.62      0.00
    0    9   73      4.29      0.00
    2    9   73    -13.27      0.00
    1    1   74    -15.43      0.00
    0    2   74     -2.91      0.00
    1    3   74    -13.31      0.00
    3    3   74    -20.26      0.00
    0    4   74     -8.70      0.00
    2    4   74      8.26      0.00
    1    5   74     -7.13      0.00
    3    5   74     -9.21      0.00
    5    5   74    -13.09      0.00
    0    6   74     -6.54      0.00
    2    6   74    -17.37      0.00
    4    6   74    -18.72      0.00
    1    7   74     -3.51      0.00
    3    7   74      7.83      0.00
    0    8   74    -11.54      0.00
    2    8   74    -11.60      0.00
    0    1   75     10.12      0.00
    1    2   75      3.13      0.00
    0    3   75      6.41      0.00
    2    3   75      7.25      0.00
    1    4   75     -6.83      0.00
    3    4   75     10.67      0.00
    0    5   75     -1.88      0.00
    2    5   75     -5.16      0.00
    4    5   75      3.80      0.00
    1    6   75     -3.41      0.00
    3    6   75      5.61      0.00
    0    7   75      6.47      0.00
    2    7   75      8.03      0.00
    0    0   76     20.85      0.00
    0    2   76     -3.05      0.00
    2    2   76      9.27      0.00
    1    3   76      9.23      0.00
    0    4   76     12.48      0.00
    2    4   76      0.80      0.00
    4    4   76     -8.22      0.00
    1    5   76      8.77      0.00
    3    5   76     -7.63      0.00
    0    6   76     -3.22      0.00
    0    1   77      1.88      0.00
    1    2   77     -6.63      0.00
    0    3   77     15.03      0.00
    2    3   77     -1.95      0.00
    1    4   77    -12.27      0.00
    1    1   78    -12.02      0.00
    0    2   78     14.01      0.00
   16   20    0    -15.76      0.00
    0    1    1   -274.21      0.00
   13   22    1     -2.77      0.00
    9   24    1     -2.22      0.00
    6   25    1     -8.09      0.00
   16   20    2      2.76      0.00
   13   22    3     -7.20      0.00
    9   24    3    -10.89      0.00
    6   25    3      2.03      0.00
   16   20    4     -1.97      0.00
   13   22    5      2.44      0.00
    9   24    5     -3.13      0.00
   17   19    6      7.10      0.00
   16   20    6     -6.02      0.00
   11   23    6      7.81      0.00
    5   25    6      9.14      0.00
   13   22    7     -8.14      0.00
    9   24    7      2.35      0.00
   18   18    8     -0.38      0.00
   17   19    8      2.43      0.00
   16   20    8      2.75      0.00
   11   23    8     -3.26      0.00
    5   25    8    -10.52      0.00
   13   22    9      2.95      0.00
   17   19   10      2.94      0.00
   11   23   10     -5.27      0.00
    5   25   10     -3.65      0.00
    4   25   11      4.50      0.00
   18   18   12     -7.36      0.00
    8   24   12      3.50      0.00
   14   21   13     -3.36      0.00
    4   25   13      9.01      0.00
    8   24   14     10.18      0.00
    3   25   14      0.61      0.00
   14   21   15      4.06      0.00
   10   23   15     -3.24      0.00
    2   25   15     21.10      0.00
   12   22   16      1.55      0.00
    1   25   16     -5.30      0.00
    3   25   16     -9.91      0.00
   15   20   17     -5.86      0.00
   10   23   17     14.70      0.00
    7   24   17      1.53      0.00
    0   25   17      0.60      0.00
    2   25   17      1.18      0.00
   12   22   18      1.10      0.00
    1   25   18     -5.53      0.00
   16   19   19     -3.93      0.00
    6   24   20     -7.32      0.00
   17   18   21     -8.46      0.00
   13   21   22     -2.17      0.00
    9   23   22      5.30      0.00
   11   22   23     -1.14      0.00
    5   24   23      4.53      0.00
   14   20   24     -1.45      0.00
    4   24   24     10.30      0.00
    8   23   25     -7.63      0.00
   15   19   26     -1.30      0.00
   10   22   26     -7.69      0.00
    2   24   26     22.88      0.00
   12   21   27     -5.94      0.00
    1   24   27      5.48      0.00
    3   24   27     -6.34      0.00
    7   23   28      8.26      0.00
    0   24   28     13.23      0.00
   13   20   29     -5.22      0.00
    9   22   29     -6.00      0.00
    6   23   29      4.15      0.00
   11   21   30      4.79      0.00
   14   19   31      7.96      0.00
    8   22   32      0.68      0.00
    5   23   32     -5.33      0.00
   16   17   33     -2.03      0.00
   10   21   33      5.52      0.00
    4   23   33      9.19      0.00
    1   23   34      3.51      0.00
    3   23   34      2.73      0.00
    7   22   35     -4.21      0.00
    0   23   35     14.79      0.00
    2   23   35     11.10      0.00
   14   18   36      4.23      0.00
    9   21   36      3.51      0.00
    6   22   36     -1.28      0.00
    5   22   37      4.02      0.00
   10   20   38     -6.18      0.00
    4   22   38     -5.60      0.00
   13   18   39      1.92      0.00
    3   22   39      4.81      0.00
    7   21   40      9.73      0.00
    0   22   40     12.07      0.00
    2   22   40     -7.85      0.00
   15   16   41      2.05      0.00
    9   20   41      6.24      0.00
    6   21   41    -15.06      0.00
   12   18   42      4.24      0.00
    5   21   42      5.57      0.00
   10   19   43     -2.01      0.00
    4   21   43      8.90      0.00
   14   16   44     -2.13      0.00
    3   21   44     -7.33      0.00
   11   18   45     -6.08      0.00
    0   21   45      3.74      0.00
    2   21   45     10.80      0.00
    6   20   46      5.04      0.00
   14   15   47     -3.48      0.00
   13   16   47      3.10      0.00
    8   19   47      4.88      0.00
    5   20   47     -5.62      0.00
   11   17   48      5.06      0.00
    7   19   48     -0.73      0.00
    4   20   48      1.02      0.00
    9   18   49      0.50      0.00
    1   20   49      7.55      0.00
   13   15   50     -4.27      0.00
    8   18   50     -1.78      0.00
   11   16   51     -4.96      0.00
    4   19   51     -5.03      0.00
    9   17   52      5.80      0.00
    3   19   52      4.77      0.00
    0   19   53      0.66      0.00
   11   15   54      0.44      0.00
    9   16   55    -12.00      0.00
    3   18   55      0.07      0.00
    8   16   56     -0.33      0.00
    0   18   56    -12.99      0.00
    2   18   56     -0.43      0.00
   12   13   57     -1.97      0.00
   11   14   57      5.54      0.00
   10   14   58      4.99      0.00
    3   17   58      6.89      0.00
    8   15   59      3.51      0.00
    0   17   59      8.42      0.00
    2   17   59     -3.66      0.00
    7   15   60      6.83      0.00
    4   16   60     12.80      0.00
   11   12   61     -5.90      0.00
    6   15   61     -0.58      0.00
    3   16   61      2.35      0.00
    9   13   62    -10.09      0.00
    5   15   62      4.41      0.00
    8   13   63     -6.97      0.00
    4   15   63     -4.26      0.00
    7   13   64     -4.80      0.00
    1   15   64      1.15      0.00
    6   13   65     -2.12      0.00
    3   14   65      2.90      0.00
    5   13   66     -0.23      0.00
    0   14   66      6.38      0.00
    9   10   67      8.47      0.00
    8   11   67      6.34      0.00
    4   13   67      8.08      0.00
    8   10   68     -8.00      0.00
    7   11   68      7.12      0.00
    1   13   68     -9.09      0.00
    7   10   69      6.21      0.00
    3   12   69     -4.12      0.00
    6   10   70     12.25      0.00
    5   10   71     -4.89      0.00
    0   11   71    -22.02      0.00
    2   11   71    -13.00      0.00
    5    9   72      1.68      0.00
    2   10   72     -5.40      0.00
    5    8   73    -10.41      0.00
    5    7   74      1.35      0.00
    4    8   74     -5.69      0.00
    5    6   75     -7.00      0.00
    2    6   76      9.51      0.00
    3    4   77     -9.21      0.00
    0    5   77      8.53      0.00
    2    5   77     15.04      0.00
    1    3   78      5.98      0.00
    0    4   78      7.13      0.00
    0    0    0      0.00      0.00
# SQUEEZE RESULTS (Version =  30715)
# Note: Data are Listed for all Voids in the P1 Unit Cell
# i.e. Centre of Gravity, Solvent Accessible Volume,
# Recovered number of Electrons in the Void and
# Details about the Squeezed Material
loop_
  _platon_squeeze_void_nr
  _platon_squeeze_void_average_x
  _platon_squeeze_void_average_y
  _platon_squeeze_void_average_z
  _platon_squeeze_void_volume
  _platon_squeeze_void_count_electrons
  _platon_squeeze_void_content
   1 -0.070  0.033  0.138     12779      2231 ' '
# Missing Reflections Below sin(th)/lambda = 0.25
loop_
  _platon_missing_refln_index_h
  _platon_missing_refln_index_k
  _platon_missing_refln_index_l
  _platon_missing_refln_theta
    0    1    1     1.091
_platon_squeeze_void_probe_radius                  1.20
_platon_squeeze_details
)
TITL wpp1      I 41/a m d   R = 0.11
CELL   19.6270   19.6270   60.1750     90.00     90.00     90.00
SPGR I41/amd
# Solvent Accessible Volume =   12983.7
# Electrons Found in S.A.V. =    2225.6
# Note: Atoms in Void as Cxxx and Qxxx all others
Q101 1.000 0.718 0.023 !       1.65 eA-3
C102 0.500 0.956 0.125 !       1.40 eA-3
Q103 0.465 0.749 0.234 !       1.39 eA-3
C104 0.500 0.608 0.140 !       1.24 eA-3
C105 0.722 0.747 0.148 !       1.17 eA-3
C106 0.500 0.456 0.195 !       1.13 eA-3
C107 0.706 0.981 0.006 !       1.12 eA-3
C108 0.764 0.247 0.141 !       1.12 eA-3
C109 0.500 0.911 0.125 !       1.09 eA-3
C110 0.732 0.478 0.008 !       1.08 eA-3
Q111 0.500 0.498 0.214 !       1.08 eA-3
C112 0.282 0.501 0.248 !       1.08 eA-3
C113 1.000 1.005 0.117 !       1.08 eA-3
C114 0.748 0.718 0.150 !       1.05 eA-3
Q115 1.000 0.591 0.004 !       1.05 eA-3
Q116 0.500 0.783 0.191 !       1.02 eA-3
C117 1.000 0.538 0.121 !       1.01 eA-3
Q118 1.000 0.961 0.093 !       1.01 eA-3
C119 0.233 0.736 0.139 !       0.98 eA-3
C120 0.510 0.084 0.187 !       0.98 eA-3
C121 0.827 0.204 0.131 !       0.97 eA-3
C122 0.500 0.930 0.144 !       0.97 eA-3
C123 0.240 0.751 0.156 !       0.97 eA-3
C124 0.029 0.033 0.112 !       0.97 eA-3
Q125 0.969 0.691 0.243 !       0.95 eA-3
Q126 0.675 0.592 0.031 !       0.94 eA-3
C127 0.522 0.940 0.110 !       0.94 eA-3
Q128 1.000 0.249 0.031 !       0.94 eA-3
Q129 0.191 0.031 0.246 !       0.91 eA-3
Q130 0.700 0.949 0.024 !       0.90 eA-3
Q131 0.185 0.716 0.251 !       0.89 eA-3
C132 0.181 1.002 0.476 !       0.89 eA-3
C133 0.319 0.498 0.024 !       0.89 eA-3
Q134 0.512 0.257 0.102 !       0.88 eA-3
C135 0.629 0.747 0.066 !       0.87 eA-3
Q136 0.823 0.752 0.145 !       0.87 eA-3
Q137 0.214 0.752 0.246 !       0.87 eA-3
C138 0.034 0.251 0.238 !       0.86 eA-3
Q139 0.087 0.251 0.062 !       0.86 eA-3
C140 0.515 0.098 0.199 !       0.84 eA-3
Q141 0.017 0.427 0.094 !       0.83 eA-3
Q142 1.000 0.060 0.008 !       0.82 eA-3
Q143 0.500 0.914 0.232 !       0.82 eA-3
Q144 0.823 0.742 0.980 !       0.81 eA-3
Q145 0.686 0.263 0.035 !       0.80 eA-3
C146 0.330 0.016 0.006 !       0.80 eA-3
C147 0.298 0.450 0.242 !       0.79 eA-3
C148 0.631 0.591 0.039 !       0.79 eA-3
C149 0.708 0.752 0.125 !       0.79 eA-3
C150 0.825 0.528 0.473 !       0.79 eA-3
Q151 0.138 0.690 0.004 !       0.78 eA-3
C152 0.617 0.238 0.040 !       0.78 eA-3
Q153 0.500 0.940 0.231 !       0.78 eA-3
C154 0.142 0.249 0.148 !       0.78 eA-3
Q155 0.795 0.737 0.980 !       0.77 eA-3
C156 0.659 0.562 0.014 !       0.77 eA-3
C157 0.939 0.515 0.120 !       0.77 eA-3
Q158 0.500 0.939 0.280 !       0.76 eA-3
Q159 1.000 0.561 0.220 !       0.76 eA-3
Q160 0.675 0.751 0.141 !       0.76 eA-3
C161 0.264 0.701 0.121 !       0.75 eA-3
C162 1.000 0.926 0.145 !       0.75 eA-3
C163 0.157 0.746 0.090 !       0.74 eA-3
C164 1.000 0.918 0.134 !       0.73 eA-3
Q165 0.578 0.246 0.066 !       0.73 eA-3
C166 0.247 0.752 0.113 !       0.73 eA-3
C167 0.858 0.499 0.527 !       0.72 eA-3
Q168 0.837 0.473 0.234 !       0.72 eA-3
C169 0.685 0.301 0.238 !       0.72 eA-3
Q170 1.000 0.547 0.228 !       0.72 eA-3
C171 0.279 0.249 0.172 !       0.72 eA-3
C172 0.253 0.261 0.160 !       0.72 eA-3
C173 0.311 0.171 0.200 !       0.72 eA-3
Q174 0.939 0.752 0.063 !       0.71 eA-3
C175 0.729 0.299 0.194 !       0.71 eA-3
C176 0.042 0.063 0.114 !       0.70 eA-3
Q177 0.066 0.251 0.086 !       0.70 eA-3
Q178 0.969 0.872 0.114 !       0.70 eA-3
C179 0.335 0.251 0.211 !       0.70 eA-3
Q180 0.968 0.875 0.153 !       0.69 eA-3
C181 1.000 0.250 0.187 !       0.69 eA-3
Q182 0.784 0.252 0.039 !       0.69 eA-3
C183 0.623 0.468 0.048 !       0.69 eA-3
C184 0.847 0.714 0.079 !       0.69 eA-3
C185 0.500 0.454 0.050 !       0.69 eA-3
C186 0.129 0.187 0.125 !       0.68 eA-3
Q187 0.684 0.752 0.168 !       0.68 eA-3
Q188 0.500 0.398 0.227 !       0.68 eA-3
C189 0.500 0.276 0.227 !       0.68 eA-3
Q190 0.808 0.248 0.008 !       0.67 eA-3
Q191 0.737 0.751 0.031 !       0.67 eA-3
Q192 0.093 0.752 0.063 !       0.67 eA-3
C193 0.573 0.577 0.109 !       0.67 eA-3
C194 0.439 0.598 0.094 !       0.67 eA-3
C195 0.459 0.872 0.136 !       0.67 eA-3
C196 0.595 0.861 0.032 !       0.66 eA-3
C197 0.192 0.829 0.116 !       0.65 eA-3
Q198 0.706 0.391 0.005 !       0.65 eA-3
C199 0.328 0.751 0.098 !       0.65 eA-3
)
;
_shelx_fab_checksum              96826
loop_
_space_group_symop_operation_xyz
'x, y, z'
'-x, -y+1/2, z'
'x, -y, -z'
'-x, y+1/2, -z'
'-y+1/4, -x+1/4, -z+3/4'
'y+1/4, x+3/4, -z+1/4'
'y+1/4, -x+1/4, z+3/4'
'-y+1/4, x+3/4, z+1/4'
'x+1/2, y+1/2, z+1/2'
'-x+1/2, -y+1, z+1/2'
'x+1/2, -y+1/2, -z+1/2'
'-x+1/2, y+1, -z+1/2'
'-y+3/4, -x+3/4, -z+5/4'
'y+3/4, x+5/4, -z+3/4'
'y+3/4, -x+3/4, z+5/4'
'-y+3/4, x+5/4, z+3/4'
'-x, -y, -z'
'x, y-1/2, -z'
'-x, y, z'
'x, -y-1/2, z'
'y-1/4, x-1/4, z-3/4'
'-y-1/4, -x-3/4, z-1/4'
'-y-1/4, x-1/4, -z-3/4'
'y-1/4, -x-3/4, -z-1/4'
'-x+1/2, -y+1/2, -z+1/2'
'x+1/2, y, -z+1/2'
'-x+1/2, y+1/2, z+1/2'
'x+1/2, -y, z+1/2'
'y+1/4, x+1/4, z-1/4'
'-y+1/4, -x-1/4, z+1/4'
'-y+1/4, x+1/4, -z-1/4'
'y+1/4, -x-1/4, -z+1/4'
loop_
_atom_site_label
_atom_site_type_symbol
_atom_site_fract_x
_atom_site_fract_y
_atom_site_fract_z
_atom_site_U_iso_or_equiv
_atom_site_adp_type
_atom_site_occupancy
_atom_site_site_symmetry_order
_atom_site_calc_flag
_atom_site_refinement_flags_posn
_atom_site_refinement_flags_adp
_atom_site_refinement_flags_occupancy
_atom_site_disorder_assembly
_atom_site_disorder_group
Cu1 Cu 0.18392(4) 0.7500 0.24719(2) 0.0535(3) Uani 1 2 d S T P B .
Cu2 Cu 0.0000 0.2500 0.35314(2) 0.0508(3) Uani 1 4 d S T P . .
O1 O 0.29993(17) 0.68079(18) 0.27541(5) 0.0720(10) Uani 1 1 d . U . . .
O2 O 0.18764(17) 0.68021(18) 0.27055(5) 0.0725(10) Uani 1 1 d . U . . .
O3 O 0.0000 0.2500 0.31711(12) 0.131(4) Uani 1 4 d S T P . .
H3A H 0.0265 0.2765 0.3101 0.158 Uiso 0.25 1 d R U P . .
H3B H -0.0265 0.2235 0.3101 0.158 Uiso 0.25 1 d R U P . .
O4 O 0.07031(16) 0.32066(17) 0.35657(5) 0.0700(9) Uani 1 1 d . U . . .
O5A O 0.0000 0.7500 0.1839(3) 0.173(5) Uani 0.5 4 d DS TU P . .
O6A O 0.1025(4) 0.7500 0.1657(4) 0.223(9) Uani 0.25 2 d DS TU P . .
O5B O 0.0000 0.7500 0.3056(3) 0.162(5) Uani 0.5 4 d DS TU P . .
C16B C -0.0657(7) 0.7500 0.3380(4) 0.196(7) Uani 0.25 2 d DS TU P . .
H16G H -0.0600 0.7500 0.3538 0.295 Uiso 0.25 2 d R U P B .
H16H H -0.0905 0.7899 0.3335 0.295 Uiso 0.125 1 d R U P . .
H16I H -0.0905 0.7101 0.3335 0.295 Uiso 0.125 1 d R U P . .
O5C O 0.0000 0.5555(7) 0.2419(3) 0.200(5) Uani 0.5 2 d DS TU P A 2
O6C O 0.0854(13) 0.4857(14) 0.2305(5) 0.253(9) Uani 0.25 1 d D U P A 2
N1 N 0.0719(3) 0.7500 0.24497(13) 0.0979(18) Uani 1 2 d S TU P . .
C1 C 0.2402(3) 0.6607(3) 0.28014(8) 0.0671(13) Uani 1 1 d . U . . .
C2 C 0.2319(3) 0.6141(3) 0.29902(8) 0.0731(13) Uani 1 1 d . U . . .
C3 C 0.1693(3) 0.5892(3) 0.30492(9) 0.0893(16) Uani 1 1 d . U . . .
H3 H 0.1317 0.6002 0.2962 0.107 Uiso 1 1 calc R U . . .
C4 C 0.2885(3) 0.5928(3) 0.31159(9) 0.0870(16) Uani 1 1 d . U . . .
H4 H 0.3321 0.6068 0.3077 0.104 Uiso 1 1 calc R U . . .
C5 C 0.1602(3) 0.5481(3) 0.32335(9) 0.0921(17) Uani 1 1 d . U . . .
H5 H 0.1165 0.5344 0.3273 0.111 Uiso 1 1 calc R U . . .
C6 C 0.2787(3) 0.5505(3) 0.32990(9) 0.0917(17) Uani 1 1 d . U . . .
H6 H 0.3162 0.5375 0.3383 0.110 Uiso 1 1 calc R U . . .
C7 C 0.2147(3) 0.5275(3) 0.33583(9) 0.0812(15) Uani 1 1 d . U . . .
C8 C 0.2048(3) 0.4838(3) 0.35578(8) 0.0794(14) Uani 1 1 d . U . . .
C9 C 0.2443(3) 0.4943(3) 0.3750 0.085(2) Uani 1 2 d S TU P . .
H9 H 0.2779 0.5279 0.3750 0.103 Uiso 1 2 calc R U P . .
C10 C 0.1565(3) 0.4326(3) 0.35626(8) 0.0744(14) Uani 1 1 d . U . . .
H10 H 0.1314 0.4236 0.3435 0.089 Uiso 1 1 calc R U . . .
C11 C 0.1444(2) 0.3944(2) 0.3750 0.0681(17) Uani 1 2 d S TU P . .
C12 C 0.0909(2) 0.3409(2) 0.3750 0.0626(16) Uani 1 2 d S TU P . .
C13A C 0.0362(8) 0.7500 0.2266(3) 0.1004(19) Uani 0.5 2 d DS TU P B 1
H13A H 0.0602 0.7500 0.2127 0.120 Uiso 0.25 2 d R U P B 2
C14A C 0.0475(13) 0.7500 0.2020(3) 0.140(5) Uani 0.25 2 d DS TU P B 1
H14A H 0.0761 0.7894 0.1993 0.168 Uiso 0.125 1 d R U P B 1
H14B H 0.0761 0.7106 0.1993 0.168 Uiso 0.125 1 d R U P B 1
C15A C 0.0376(10) 0.7500 0.1640(4) 0.186(6) Uani 0.25 2 d DS TU P B 1
C16A C 0.0000 0.7500 0.1447(3) 0.192(7) Uani 0.5 4 d DS TU P B 1
H16A H 0.0212 0.7797 0.1341 0.289 Uiso 0.125 1 d R U P B 1
H16B H -0.0454 0.7657 0.1477 0.289 Uiso 0.125 1 d R U P B 1
H16C H 0.0000 0.7046 0.1388 0.289 Uiso 0.25 2 d R U P B 1
C13B C 0.0348(8) 0.7500 0.2665(3) 0.1000(19) Uani 0.5 2 d DS TU P B 1
H13B H 0.0595 0.7500 0.2803 0.120 Uiso 0.25 2 d R U P B 2
C14B C 0.0559(10) 0.7500 0.2904(3) 0.131(4) Uani 0.25 2 d DS TU P B 1
H14C H 0.0836 0.7100 0.2932 0.157 Uiso 0.125 1 d R U P B 1
H14D H 0.0836 0.7900 0.2932 0.157 Uiso 0.125 1 d R U P B 1
C15B C 0.0000 0.7500 0.3276(3) 0.187(6) Uani 0.5 4 d DS TU P B 1
O6B O 0.0553(8) 0.7500 0.3388(4) 0.203(7) Uani 0.25 2 d DS TU P B 1
C13C C 0.0409(6) 0.6956(7) 0.2445(2) 0.1013(19) Uani 0.5 1 d D U P A 2
H13C H 0.0667 0.6541 0.2442 0.122 Uiso 0.25 1 d R U P A 1
C14C C 0.0203(4) 0.6244(7) 0.24322(18) 0.168(5) Uani 0.25 1 d D U P A 2
H14E H 0.0645 0.6119 0.2372 0.202 Uiso 0.25 1 d R U P A 2
H14F H 0.0254 0.6202 0.2592 0.202 Uiso 0.25 1 d R U P A 2
C15C C 0.0637(13) 0.5225(13) 0.2467(4) 0.211(6) Uani 0.25 1 d D U P A 2
C16C C 0.0543(18) 0.4891(16) 0.2688(4) 0.221(9) Uani 0.25 1 d D U P A 2
H16D H 0.0854 0.4515 0.2698 0.331 Uiso 0.25 1 d R U P A 2
H16E H 0.0126 0.4777 0.2763 0.331 Uiso 0.25 1 d R U P A 2
H16F H 0.0742 0.5286 0.2757 0.331 Uiso 0.25 1 d R U P A 2
loop_
_atom_site_aniso_label
_atom_site_aniso_U_11
_atom_site_aniso_U_22
_atom_site_aniso_U_33
_atom_site_aniso_U_23
_atom_site_aniso_U_13
_atom_site_aniso_U_12
Cu1 0.0415(5) 0.0713(6) 0.0477(5) 0.000 0.0030(3) 0.000
Cu2 0.0598(7) 0.0585(7) 0.0340(6) 0.000 0.000 0.000
O1 0.062(2) 0.088(3) 0.065(2) 0.0107(18) -0.0013(17) -0.0010(19)
O2 0.059(2) 0.093(3) 0.065(2) 0.0190(18) -0.0003(17) -0.0065(19)
O3 0.138(8) 0.200(10) 0.056(5) 0.000 0.000 0.000
O4 0.074(2) 0.082(2) 0.055(2) 0.0074(17) -0.0045(17) -0.0198(18)
O5A 0.167(10) 0.209(10) 0.144(7) 0.000 0.000 0.000
O6A 0.180(12) 0.27(2) 0.217(18) 0.000 0.009(9) 0.000
O5B 0.108(9) 0.234(11) 0.144(8) 0.000 0.000 0.000
C16B 0.143(12) 0.279(16) 0.168(12) 0.000 0.016(8) 0.000
O5C 0.205(9) 0.148(7) 0.246(9) -0.004(8) 0.000 0.000
O6C 0.252(14) 0.251(15) 0.256(13) -0.017(11) 0.036(12) 0.022(11)
N1 0.064(4) 0.111(4) 0.118(4) 0.000 -0.004(3) 0.000
C1 0.067(3) 0.078(3) 0.056(3) 0.003(2) -0.003(2) -0.007(3)
C2 0.073(3) 0.087(3) 0.059(3) 0.019(2) -0.005(2) -0.017(3)
C3 0.078(3) 0.114(4) 0.076(3) 0.033(3) -0.013(3) -0.027(3)
C4 0.076(3) 0.108(4) 0.076(3) 0.027(3) -0.012(3) -0.023(3)
C5 0.087(3) 0.115(4) 0.075(3) 0.035(3) -0.015(3) -0.032(3)
C6 0.087(3) 0.110(4) 0.079(3) 0.033(3) -0.018(3) -0.023(3)
C7 0.081(3) 0.097(3) 0.066(3) 0.024(3) -0.015(3) -0.028(3)
C8 0.083(3) 0.095(3) 0.060(3) 0.017(3) -0.015(3) -0.025(3)
C9 0.093(3) 0.093(3) 0.070(4) 0.015(3) -0.015(3) -0.033(4)
C10 0.083(3) 0.087(3) 0.052(3) 0.009(2) -0.015(2) -0.024(3)
C11 0.073(3) 0.073(3) 0.059(4) 0.011(2) -0.011(2) -0.013(3)
C12 0.067(2) 0.067(2) 0.053(4) 0.006(2) -0.006(2) -0.005(3)
C13A 0.067(4) 0.114(4) 0.120(4) 0.000 -0.003(3) 0.000
C14A 0.120(9) 0.163(9) 0.136(7) 0.000 0.010(6) 0.000
C15A 0.179(11) 0.221(11) 0.156(8) 0.000 0.004(5) 0.000
C16A 0.198(11) 0.212(11) 0.167(8) 0.000 0.000 0.000
C13B 0.067(4) 0.114(4) 0.120(4) 0.000 -0.006(3) 0.000
C14B 0.087(9) 0.175(10) 0.131(7) 0.000 -0.016(6) 0.000
C15B 0.131(11) 0.270(13) 0.159(9) 0.000 0.000 0.000
O6B 0.147(12) 0.285(16) 0.177(11) 0.000 -0.024(7) 0.000
C13C 0.068(4) 0.115(4) 0.121(4) -0.0003(12) -0.004(3) 0.0015(12)
C14C 0.154(9) 0.151(7) 0.200(9) -0.004(8) -0.004(7) -0.016(6)
C15C 0.213(9) 0.184(8) 0.236(9) -0.004(7) -0.001(7) 0.012(6)
C16C 0.221(16) 0.216(15) 0.225(12) -0.005(11) -0.025(11) -0.012(13)
loop_
_atom_type_symbol
_atom_type_description
_atom_type_scat_dispersion_real
_atom_type_scat_dispersion_imag
_atom_type_scat_source
C C 0.0033 0.0016 'International Tables Vol C Tables 4.2.6.8 and 6.1.1.4'
H H 0.0000 0.0000 'International Tables Vol C Tables 4.2.6.8 and 6.1.1.4'
N N 0.0061 0.0033 'International Tables Vol C Tables 4.2.6.8 and 6.1.1.4'
O O 0.0106 0.0060 'International Tables Vol C Tables 4.2.6.8 and 6.1.1.4'
Cu Cu 0.3201 1.2651 'International Tables Vol C Tables 4.2.6.8 and 6.1.1.4'
loop_
_geom_angle_atom_site_label_1
_geom_angle_atom_site_label_2
_geom_angle_atom_site_label_3
_geom_angle
_geom_angle_site_symmetry_1
_geom_angle_site_symmetry_3
O1 Cu1 O1 88.4(2) 12_545 25_565
O1 Cu1 O2 168.47(15) 12_545 20_575
O1 Cu1 O2 90.40(15) 25_565 20_575
O1 Cu1 O2 90.41(15) 12_545 .
O1 Cu1 O2 168.48(15) 25_565 .
O2 Cu1 O2 88.4(2) 20_575 .
O1 Cu1 N1 96.90(17) 12_545 .
O1 Cu1 N1 96.90(17) 25_565 .
O2 Cu1 N1 94.62(17) 20_575 .
O2 Cu1 N1 94.62(18) . .
O1 Cu1 Cu1 85.92(10) 12_545 25_565
O1 Cu1 Cu1 85.92(10) 25_565 25_565
O2 Cu1 Cu1 82.56(10) 20_575 25_565
O2 Cu1 Cu1 82.56(10) . 25_565
N1 Cu1 Cu1 176.1(2) . 25_565
O4 Cu2 O4 167.96(18) . 2
O4 Cu2 O4 89.6(2) . 20_565
O4 Cu2 O4 89.1(2) 2 20_565
O4 Cu2 O4 89.1(2) . 19
O4 Cu2 O4 89.6(2) 2 19
O4 Cu2 O4 167.96(18) 20_565 19
O4 Cu2 O3 96.02(9) . .
O4 Cu2 O3 96.02(9) 2 .
O4 Cu2 O3 96.02(9) 20_565 .
O4 Cu2 O3 96.02(9) 19 .
O4 Cu2 Cu2 83.98(9) . 5
O4 Cu2 Cu2 83.98(9) 2 5
O4 Cu2 Cu2 83.98(9) 20_565 5
O4 Cu2 Cu2 83.98(9) 19 5
O3 Cu2 Cu2 180.0 . 5
C1 O1 Cu1 121.5(3) . 25_565
C1 O2 Cu1 125.3(3) . .
Cu2 O3 H3A 120.0 . .
Cu2 O3 H3B 120.0 . .
H3A O3 H3B 120.0 . .
C12 O4 Cu2 123.1(4) . .
C15A O5A C15A 63.3(19) 2_565 .
C15A O5A C14A 171.2(17) 2_565 .
C15A O5A C14A 107.9(15) . .
C15A O5A C14A 107.9(15) 2_565 2_565
C15A O5A C14A 171.2(17) . 2_565
C14A O5A C14A 81(3) . 2_565
C15B O5B C14B 129.9(11) . .
C15B O5B C14B 129.9(11) . 2_565
C14B O5B C14B 100(2) . 2_565
O6B C16B C15B 40(5) 2_565 .
O6B C16B H16G 68.9 2_565 .
C15B C16B H16G 109.1 . .
O6B C16B H16H 124.0 2_565 .
C15B C16B H16H 109.6 . .
H16G C16B H16H 109.5 . .
O6B C16B H16I 124.0 2_565 .
C15B C16B H16I 109.6 . .
H16G C16B H16I 109.5 . .
H16H C16B H16I 109.5 . .
C14C O5C C14C 32.8(6) . 19
C14C O5C C15C 100.1(13) . .
C14C O5C C15C 131.8(13) 19 .
C14C O5C C15C 131.8(13) . 19
C14C O5C C15C 100.1(13) 19 19
C15C O5C C15C 121(2) . 19
C13C N1 C13C 120.4(13) . 20_575
C13A N1 C13B 118.2(11) . .
C13C N1 Cu1 119.8(6) . .
C13C N1 Cu1 119.8(7) 20_575 .
C13A N1 Cu1 125.9(9) . .
C13B N1 Cu1 115.9(7) . .
O2 C1 O1 124.6(5) . .
O2 C1 C2 117.4(5) . .
O1 C1 C2 117.9(5) . .
C3 C2 C4 117.6(5) . .
C3 C2 C1 121.4(5) . .
C4 C2 C1 121.0(5) . .
C2 C3 C5 122.1(5) . .
C2 C3 H3 118.9 . .
C5 C3 H3 118.9 . .
C6 C4 C2 119.6(5) . .
C6 C4 H4 120.2 . .
C2 C4 H4 120.2 . .
C7 C5 C3 120.8(6) . .
C7 C5 H5 119.6 . .
C3 C5 H5 119.6 . .
C7 C6 C4 121.6(5) . .
C7 C6 H6 119.2 . .
C4 C6 H6 119.2 . .
C5 C7 C6 118.2(5) . .
C5 C7 C8 120.7(5) . .
C6 C7 C8 121.0(5) . .
C10 C8 C9 117.9(5) . .
C10 C8 C7 121.7(5) . .
C9 C8 C7 120.4(5) . .
C8 C9 C8 120.8(7) 14_445 .
C8 C9 H9 119.6 14_445 .
C8 C9 H9 119.6 . .
C11 C10 C8 122.2(5) . .
C11 C10 H10 118.9 . .
C8 C10 H10 118.9 . .
C10 C11 C10 118.9(7) 14_445 .
C10 C11 C12 120.6(3) 14_445 .
C10 C11 C12 120.6(3) . .
O4 C12 O4 125.8(6) 14_445 .
O4 C12 C11 117.1(3) 14_445 .
O4 C12 C11 117.1(3) . .
N1 C13A C13A 122.4(8) . 2_565
N1 C13A C14A 139.1(15) . .
C13A C13A C14A 98.5(12) 2_565 .
O5A C14A C13A 131(2) . .
O5A C14A C14A 49.6(13) . 2_565
C13A C14A C14A 81.5(12) . 2_565
O5A C14A H14A 104.4 . .
C13A C14A H14A 104.5 . .
C14A C14A H14A 125.4 2_565 .
O5A C14A H14B 104.4 . .
C13A C14A H14B 104.5 . .
C14A C14A H14B 125.4 2_565 .
H14A C14A H14B 105.8 . .
O6A C15A C16A 126.9(16) . .
O6A C15A O5A 117.1(18) . .
C16A C15A O5A 115.9(14) . .
O6A C15A C15A 175.4(11) . 2_565
C16A C15A C15A 57.6(8) . 2_565
O5A C15A C15A 58.3(9) . 2_565
C15A C16A C15A 64.8(15) . 2_565
C15A C16A H16A 109.4 . .
C15A C16A H16A 142.6 2_565 .
C15A C16A H16B 109.6 . .
C15A C16A H16B 48.9 2_565 .
H16A C16A H16B 109.5 . .
C15A C16A H16C 108.2 . .
C15A C16A H16C 108.2 2_565 .
H16A C16A H16C 108.5 . .
H16B C16A H16C 111.7 . .
C13B C13B N1 119.4(7) 2_565 .
C13B C13B C14B 106.0(9) 2_565 .
N1 C13B C14B 134.6(13) . .
O5B C14B C13B 113.8(18) . .
O5B C14B H14C 108.5 . .
C13B C14B H14C 108.9 . .
O5B C14B H14D 108.5 . .
C13B C14B H14D 108.9 . .
H14C C14B H14D 107.9 . .
O6B C15B O6B 116(2) . 2_565
O6B C15B O5B 121.8(10) . .
O6B C15B O5B 121.8(10) 2_565 .
O6B C15B C16B 122.4(11) . .
O6B C15B C16B 6.1(16) 2_565 .
O5B C15B C16B 115.8(9) . .
O6B C15B C16B 6.1(16) . 2_565
O6B C15B C16B 122.4(11) 2_565 2_565
O5B C15B C16B 115.8(9) . 2_565
C16B C15B C16B 128.5(19) . 2_565
C16B O6B C15B 134(7) 2_565 .
N1 C13C C14C 166.2(9) . .
N1 C13C C13C 119.7(6) . 19
C14C C13C C13C 73.9(3) . 19
N1 C13C C14C 169.0(11) . 19
C14C C13C C14C 24.6(3) . 19
C13C C13C C14C 49.4(5) 19 19
C14C C14C O5C 73.6(3) 19 .
C14C C14C C13C 106.1(3) 19 .
O5C C14C C13C 179.6(5) . .
C14C C14C C13C 49.4(5) 19 19
O5C C14C C13C 123.0(8) . 19
C13C C14C C13C 56.7(7) . 19
C14C C14C H14E 153.3 19 .
O5C C14C H14E 89.3 . .
C13C C14C H14E 90.9 . .
C13C C14C H14E 142.1 19 .
C14C C14C H14F 95.9 19 .
O5C C14C H14F 90.2 . .
C13C C14C H14F 90.1 . .
C13C C14C H14F 95.2 19 .
H14E C14C H14F 104.7 . .
O6C C15C O5C 112.9(17) . .
O6C C15C C16C 118.1(16) . .
O5C C15C C16C 105.6(13) . .
C15C C16C H16D 108.3 . .
C15C C16C H16E 128.7 . .
H16D C16C H16E 109.5 . .
C15C C16C H16F 88.8 . .
H16D C16C H16F 109.5 . .
H16E C16C H16F 109.5 . .
loop_
_geom_bond_atom_site_label_1
_geom_bond_atom_site_label_2
_geom_bond_distance
_geom_bond_site_symmetry_2
Cu1 O1 1.948(3) 12_545
Cu1 O1 1.948(3) 25_565
Cu1 O2 1.964(3) 20_575
Cu1 O2 1.964(3) .
Cu1 N1 2.202(7) .
Cu1 Cu1 2.6160(15) 25_565
Cu2 O4 1.967(3) .
Cu2 O4 1.967(3) 2
Cu2 O4 1.967(3) 20_565
Cu2 O4 1.967(3) 19
Cu2 O3 2.168(7) .
Cu2 Cu2 2.6305(19) 5
O1 C1 1.270(5) .
O1 Cu1 1.948(3) 25_565
O2 C1 1.242(5) .
O3 H3A 0.8499 .
O3 H3B 0.8499 .
O4 C12 1.246(4) .
O5A C15A 1.404(17) 2_565
O5A C15A 1.404(17) .
O5A C14A 1.436(10) .
O5A C14A 1.436(10) 2_565
O6A C15A 1.278(19) .
O5B C15B 1.327(13) .
O5B C14B 1.428(10) .
O5B C14B 1.429(10) 2_565
C16B O6B 0.21(3) 2_565
C16B C15B 1.431(9) .
C16B H16G 0.9598 .
C16B H16H 0.9602 .
C16B H16I 0.9602 .
O5C C14C 1.412(9) .
O5C C14C 1.412(9) 19
O5C C15C 1.439(18) .
O5C C15C 1.439(18) 19
O6C C15C 1.285(18) .
N1 C13C 1.230(12) .
N1 C13C 1.230(12) 20_575
N1 C13A 1.309(18) .
N1 C13B 1.486(18) .
C1 C2 1.468(7) .
C2 C3 1.370(7) .
C2 C4 1.407(7) .
C3 C5 1.382(7) .
C3 H3 0.9300 .
C4 C6 1.392(7) .
C4 H4 0.9300 .
C5 C7 1.369(7) .
C5 H5 0.9300 .
C6 C7 1.383(8) .
C6 H6 0.9300 .
C7 C8 1.488(7) .
C8 C10 1.382(7) .
C8 C9 1.408(6) .
C9 C8 1.408(6) 14_445
C9 H9 0.9300 .
C10 C11 1.375(6) .
C10 H10 0.9300 .
C11 C10 1.375(6) 14_445
C11 C12 1.483(9) .
C12 O4 1.246(4) 14_445
C13A C13A 1.42(3) 2_565
C13A C14A 1.495(10) .
C14A C14A 1.86(5) 2_565
C14A H14A 0.9700 .
C14A H14B 0.9700 .
C15A C16A 1.38(2) .
C15A C15A 1.47(4) 2_565
C16A C15A 1.38(2) 2_565
C16A H16A 0.9600 .
C16A H16B 0.9600 .
C16A H16C 0.9593 .
C13B C13B 1.37(3) 2_565
C13B C14B 1.494(10) .
C14B H14C 0.9700 .
C14B H14D 0.9700 .
C15B O6B 1.278(9) .
C15B O6B 1.278(9) 2_565
C15B C16B 1.431(9) 2_565
O6B C16B 0.21(3) 2_565
C13C C14C 1.456(9) .
C13C C13C 1.60(2) 19
C13C C14C 1.844(12) 19
C14C C14C 0.797(14) 19
C14C C13C 1.844(12) 19
C14C H14E 0.9700 .
C14C H14F 0.9700 .
C15C C16C 1.494(14) .
C16C H16D 0.9600 .
C16C H16E 0.9600 .
C16C H16F 0.9600 .
