#------------------------------------------------------------------------------
#$Date: 2017-08-03 05:20:19 +0300 (Thu, 03 Aug 2017) $
#$Revision: 199484 $
#$URL: file:///home/coder/svn-repositories/cod/cif/7/04/38/7043896.cif $
#------------------------------------------------------------------------------
#
# This file is available in the Crystallography Open Database (COD),
# http://www.crystallography.net/
#
# All data on this site have been placed in the public domain by the
# contributors.
#
data_7043896
loop_
_publ_author_name
'Wang, Peng'
'Chen, Kai'
'Liu, Qing'
'Wang, Huai-Wei'
'Azam, Mohammad'
'Al-Resayes, Saud I'
'Lu, Yi'
'Sun, Wei-Yin'
_publ_section_title
;
 Fine tuning catalytic and sorption properties of metal-organic frameworks
 via in situ ligand exchange
;
_journal_name_full               'Dalton Trans.'
_journal_paper_doi               10.1039/C7DT02231J
_journal_year                    2017
_chemical_formula_moiety         'C96 H64 Cu6 N4 O26, 24 (C3 H7 N O)'
_chemical_formula_sum            'C168 H232 Cu6 N28 O50'
_chemical_formula_weight         3825.04
_space_group_crystal_system      tetragonal
_space_group_IT_number           141
_space_group_name_Hall           '-I 4bd 2'
_space_group_name_H-M_alt        'I 41/a m d'
_symmetry_space_group_name_Hall  '-I 4bd 2'
_symmetry_space_group_name_H-M   'I 41/a m d :2'
_atom_sites_solution_hydrogens   mixed
_audit_creation_method           SHELXL-2014/7
_audit_update_record
;
2017-07-15 deposited with the CCDC.
2017-08-02 downloaded from the CCDC.
;
_cell_angle_alpha                90
_cell_angle_beta                 90
_cell_angle_gamma                90
_cell_formula_units_Z            4
_cell_length_a                   19.511(2)
_cell_length_b                   19.511(2)
_cell_length_c                   60.340(7)
_cell_measurement_reflns_used    4706
_cell_measurement_temperature    293(2)
_cell_measurement_theta_max      27.50
_cell_measurement_theta_min      2.19
_cell_volume                     22970(4)
_computing_cell_refinement       'Bruker SAINT'
_computing_data_collection       'Bruker APEX2'
_computing_data_reduction        'Bruker SAINT'
_computing_molecular_graphics    'Bruker SHELXTL'
_computing_publication_material  'Bruker SHELXTL'
_computing_structure_refinement  'SHELXL-2014/7 (Sheldrick, 2014)'
_computing_structure_solution    'SHELXS-97 (Sheldrick 2008)'
_diffrn_ambient_temperature      293(2)
_diffrn_measured_fraction_theta_full 0.999
_diffrn_measured_fraction_theta_max 0.999
_diffrn_measurement_device_type  'Bruker APEX-II CCD'
_diffrn_measurement_method       '\f and \w scans'
_diffrn_radiation_type           MoK\a
_diffrn_radiation_wavelength     0.71073
_diffrn_reflns_av_R_equivalents  0.2180
_diffrn_reflns_av_unetI/netI     0.0699
_diffrn_reflns_Laue_measured_fraction_full 0.999
_diffrn_reflns_Laue_measured_fraction_max 0.999
_diffrn_reflns_limit_h_max       23
_diffrn_reflns_limit_h_min       -17
_diffrn_reflns_limit_k_max       23
_diffrn_reflns_limit_k_min       -23
_diffrn_reflns_limit_l_max       73
_diffrn_reflns_limit_l_min       -73
_diffrn_reflns_number            89079
_diffrn_reflns_point_group_measured_fraction_full 0.999
_diffrn_reflns_point_group_measured_fraction_max 0.999
_diffrn_reflns_theta_full        25.242
_diffrn_reflns_theta_max         25.677
_diffrn_reflns_theta_min         1.097
_diffrn_standards_number         0
_exptl_absorpt_coefficient_mu    0.615
_exptl_absorpt_correction_T_max  0.7456
_exptl_absorpt_correction_T_min  0.6381
_exptl_absorpt_correction_type   multi-scan
_exptl_absorpt_process_details   sadabs
_exptl_crystal_colour            green
_exptl_crystal_density_diffrn    1.106
_exptl_crystal_description       block
_exptl_crystal_F_000             8040
_exptl_crystal_size_max          0.400
_exptl_crystal_size_mid          0.360
_exptl_crystal_size_min          0.340
_refine_diff_density_max         1.267
_refine_diff_density_min         -0.550
_refine_diff_density_rms         0.083
_refine_ls_extinction_method     none
_refine_ls_goodness_of_fit_ref   1.031
_refine_ls_hydrogen_treatment    constr
_refine_ls_matrix_type           full
_refine_ls_number_parameters     186
_refine_ls_number_reflns         5810
_refine_ls_number_restraints     72
_refine_ls_restrained_S_all      1.039
_refine_ls_R_factor_all          0.1168
_refine_ls_R_factor_gt           0.0737
_refine_ls_shift/su_max          0.000
_refine_ls_shift/su_mean         0.000
_refine_ls_structure_factor_coef Fsqd
_refine_ls_weighting_details
'w=1/[\s^2^(Fo^2^)+(0.1491P)^2^] where P=(Fo^2^+2Fc^2^)/3'
_refine_ls_weighting_scheme      calc
_refine_ls_wR_factor_gt          0.2229
_refine_ls_wR_factor_ref         0.2569
_reflns_Friedel_coverage         0.000
_reflns_number_gt                3170
_reflns_number_total             5810
_reflns_threshold_expression     'I > 2\s(I)'
_cod_data_source_file            c7dt02231j2.cif
_cod_data_source_block           swy2
_cod_original_cell_volume        22970(5)
_cod_database_code               7043896
_shelx_shelxl_version_number     2014/7
_shelx_space_group_comment
;
The symmetry employed for this shelxl refinement is uniquely defined
by the following loop, which should always be used as a source of
symmetry information in preference to the above space-group names.
They are only intended as comments.
;
_shelx_estimated_absorpt_t_min   0.791
_shelx_estimated_absorpt_t_max   0.818
_shelx_res_file
;

    swy2.res created by SHELXL-2014/7


TITL    swy2 in I4(1)/amd
CELL 0.71073  19.511  19.511  60.340  90.000  90.000  90.000
ZERR  4.00   0.002   0.002   0.007   0.000   0.000   0.000
LATT 2
SYMM -X, 0.50000-Y,Z
SYMM X,-Y,-Z
SYMM -X, 0.50000+Y,-Z
SYMM  0.25000-Y, 0.25000-X, 0.75000-Z
SYMM  0.25000+Y, 0.75000+X, 0.25000-Z
SYMM  0.25000+Y, 0.25000-X, 0.75000+Z
SYMM  0.25000-Y, 0.75000+X, 0.25000+Z
SFAC C  H  N  O  Cu
UNIT 672  928  112  200  24
MERG 2
L.S. 5 0   99
ACTA
FMAP 2
size .4 .36 .34
list 4
PLAN 25
DFIX 1.40 N1 C13A N1 C13B N1 C13C
DFIX 1.45 C13A C14A C13B C14B C13C C14C
SIMU 0.01 C13A C14A C13B C14B C13C C14C
ISOR 0.01 C13A C13B C13C C14A C14B C14C
ABIN
WGHT    0.149100
FVAR       0.03128
CU1   5    0.316756    0.250000    0.247290    10.50000    0.02329    0.09468 =
         0.04379    0.00000   -0.00184    0.00000
CU2   5    0.500000    0.750000    0.353184    10.25000    0.07268    0.07477 =
         0.02592    0.00000    0.00000    0.00000
O1    4    0.198765    0.319747    0.275263    11.00000    0.04971    0.11351 =
         0.05657   -0.01608   -0.00083   -0.00339
O2    4    0.312333    0.319791    0.270477    11.00000    0.05056    0.11057 =
         0.05794   -0.01973   -0.00031   -0.01057
O3    4    0.430249    0.679920    0.356576    11.00000    0.08794    0.09522 =
         0.05438   -0.00668    0.00309   -0.01988
O4    4    0.500000    0.750000    0.317769    10.25000    0.15579    0.18798 =
         0.05581    0.00000    0.00000    0.00000
AFIX   3
H4A   2    0.473420    0.723220    0.310718    10.25000   -1.20000
H4B   2    0.526580    0.776780    0.310718    10.25000   -1.20000
AFIX   0
N1    3    0.430661    0.250000    0.244922    10.50000    0.03308    0.10375 =
         0.05997    0.00000    0.00630    0.00000
C1    1    0.258090    0.338897    0.280127    11.00000    0.06672    0.09413 =
         0.04352    0.00304   -0.00029   -0.00302
C2    1    0.266866    0.386352    0.299252    11.00000    0.07796    0.09703 =
         0.04813   -0.01494    0.00379   -0.01296
C3    1    0.331548    0.409548    0.305458    11.00000    0.07349    0.14357 =
         0.08180   -0.03620    0.01528   -0.03118
AFIX  43
H3    2    0.369488    0.396622    0.297116    11.00000   -1.20000
AFIX   0
C4    1    0.211274    0.407308    0.311393    11.00000    0.06653    0.14603 =
         0.07599   -0.04466    0.01108   -0.01631
AFIX  43
H4    2    0.167339    0.393851    0.307295    11.00000   -1.20000
AFIX   0
C5    1    0.340682    0.450988    0.323570    11.00000    0.07914    0.15521 =
         0.07553   -0.04411    0.01374   -0.04062
AFIX  43
H5    2    0.384447    0.465330    0.327542    11.00000   -1.20000
AFIX   0
C6    1    0.220796    0.448080    0.329551    11.00000    0.07999    0.15307 =
         0.09784   -0.05581    0.02217   -0.02314
AFIX  43
H6    2    0.182808    0.460580    0.337937    11.00000   -1.20000
AFIX   0
C7    1    0.284475    0.471385    0.335916    11.00000    0.09101    0.11328 =
         0.07010   -0.02673    0.01373   -0.03268
C8    1    0.295701    0.514200    0.356248    11.00000    0.09811    0.11350 =
         0.06042   -0.02390    0.01029   -0.02831
C9    1    0.255100    0.505100    0.375000    10.50000    0.10819    0.10819 =
         0.05617   -0.01469    0.01469   -0.03512
AFIX  43
H9    2    0.221395    0.471395    0.375000    10.50000   -1.20000
AFIX   0
C10   1    0.344273    0.566625    0.356276    11.00000    0.09695    0.11270 =
         0.05999   -0.00943    0.01514   -0.03539
AFIX  43
H10   2    0.369268    0.575288    0.343455    11.00000   -1.20000
AFIX   0
C11   1    0.356156    0.606156    0.375000    10.50000    0.09760    0.09760 =
         0.04289   -0.01001    0.01001   -0.01498
C12   1    0.409737    0.659737    0.375000    10.50000    0.08185    0.08185 =
         0.04197   -0.00558    0.00558   -0.00942
part 1
C13A  1    0.464931    0.250000    0.266081    10.25000    0.06881    0.08809 =
         0.08160    0.00000    0.01604    0.00000
PART 2
AFIX   3
H13A  2    0.439341    0.250000    0.279671    10.12500   -1.20000
PART 1
AFIX   0
C14A  1    0.451346    0.250000    0.290960    10.12500    0.07911    0.09471 =
         0.08896    0.00000    0.01512    0.00000
AFIX   3
H14A  2    0.500000    0.250000    0.299190    10.12500   -1.50000
H14B  2    0.425307    0.290170    0.294630    10.12500   -1.50000
H14C  2    0.425307    0.209830    0.294630    10.12500   -1.50000
AFIX   0
C13B  1    0.465573    0.250000    0.226791    10.25000    0.06864    0.08621 =
         0.07286    0.00000   -0.01023    0.00000
PART 2
AFIX   3
H13B  2    0.441959    0.250000    0.212831    10.12500   -1.20000
PART 1
AFIX   0
C14B  1    0.445256    0.250000    0.202661    10.12500    0.08261    0.09892 =
         0.09307    0.00000   -0.03253    0.00000
AFIX   3
H14D  2    0.480317    0.250000    0.191501    10.12500   -1.50000
H14E  2    0.417305    0.209830    0.201041    10.12500   -1.50000
H14F  2    0.417305    0.290170    0.201041    10.12500   -1.50000
PART 3
AFIX   0
C13C  1    0.464996    0.308941    0.243836    10.50000    0.04526    0.06182 =
         0.04809    0.00859    0.00254    0.01140
PART 4
AFIX   3
H13C  2    0.440496    0.351561    0.243166    10.25000   -1.20000
PART 3
AFIX   0
C14C  1    0.441776    0.383675    0.244869    10.25000    0.04248    0.09585 =
         0.08013    0.01603    0.00445    0.01558
AFIX   3
H14G  2    0.479776    0.414805    0.243959    10.25000   -1.50000
H14H  2    0.411716    0.390945    0.232509    10.25000   -1.50000
H14I  2    0.417206    0.391575    0.258428    10.25000   -1.50000
PART 0
AFIX   0
HKLF      4

REM     swy2 in I4(1)/amd
REM R1 =  0.0737 for    3170 Fo > 4sig(Fo)  and  0.1168 for all    5810 data
REM    186 parameters refined using     72 restraints

END

WGHT      0.1636      0.0000

REM Highest difference peak  1.267,  deepest hole -0.550,  1-sigma level  0.083
Q1    1   0.5000  0.7500  0.3662  10.25000  0.05    1.27
Q2    1   0.5000  0.7500  0.3390  10.25000  0.05    0.92
Q3    1   0.3172  0.2500  0.2344  10.50000  0.05    0.74
Q4    1   0.3169  0.2500  0.2606  10.50000  0.05    0.69
Q5    1   0.5000  0.2725  0.1825  10.50000  0.05    0.62
Q6    1   0.5000  0.4509  0.2401  10.50000  0.05    0.61
Q7    1   0.5000  0.2500  0.1809  10.25000  0.05    0.60
Q8    1   0.5000  0.4325  0.2555  10.50000  0.05    0.58
Q9    1   0.2935  0.2500  0.2462  10.50000  0.05    0.47
Q10   1   0.5000  0.8161  0.3058  10.50000  0.05    0.45
Q11   1   0.4754  0.7299  0.2958  11.00000  0.05    0.39
Q12   1   0.2572  0.3846  0.3120  11.00000  0.05    0.34
Q13   1   0.2657  0.5089  0.3631  11.00000  0.05    0.31
Q14   1   0.3491  0.6032  0.3818  11.00000  0.05    0.30
Q15   1   0.2792  0.5300  0.3548  11.00000  0.05    0.28
Q16   1   0.3127  0.5577  0.3587  11.00000  0.05    0.25
Q17   1   0.4020  0.4422  0.2412  11.00000  0.05    0.25
Q18   1   0.2600  0.4835  0.3821  11.00000  0.05    0.24
Q19   1   0.4492  0.7500  0.3365  10.50000  0.05    0.23
Q20   1   0.4116  0.6600  0.3635  11.00000  0.05    0.22
Q21   1   0.4149  0.7161  0.3644  11.00000  0.05    0.22
Q22   1   0.2088  0.4689  0.3303  11.00000  0.05    0.21
Q23   1   0.4675  0.6667  0.3620  11.00000  0.05    0.20
Q24   1   0.2503  0.4167  0.3000  11.00000  0.05    0.20
Q25   1   0.2957  0.4113  0.3053  11.00000  0.05    0.20
;
_shelx_res_checksum              14944
_shelx_fab_file
;
    0    2    0   -291.97      0.00
    2    2    0    487.71      0.00
    0    4    0    322.84      0.00
    2    4    0   -161.69      0.00
    4    4    0     23.29      0.00
    0    6    0   -118.47      0.00
    2    6    0     85.80      0.00
    4    6    0     -3.36      0.00
    6    6    0      7.04      0.00
    0    8    0    109.00      0.00
    2    8    0    -14.44      0.00
    4    8    0      8.12      0.00
    6    8    0     -2.37      0.00
    8    8    0      0.10      0.00
    0   10    0    -33.75      0.00
    2   10    0      6.49      0.00
    4   10    0      0.46      0.00
    6   10    0     -2.60      0.00
    8   10    0     -3.83      0.00
   10   10    0      7.68      0.00
    0   12    0     23.22      0.00
    2   12    0     -0.55      0.00
    4   12    0      5.14      0.00
    6   12    0      1.90      0.00
    8   12    0      1.70      0.00
   10   12    0      3.34      0.00
   12   12    0      3.68      0.00
    0   14    0     -5.02      0.00
    2   14    0      8.79      0.00
    4   14    0      5.63      0.00
    6   14    0     -1.21      0.00
    8   14    0      5.47      0.00
   10   14    0      7.50      0.00
   12   14    0     11.03      0.00
   14   14    0      7.23      0.00
    0   16    0      8.27      0.00
    2   16    0     -2.11      0.00
    4   16    0     -0.68      0.00
    6   16    0     -5.18      0.00
    8   16    0     -4.20      0.00
   10   16    0      5.91      0.00
   12   16    0      1.33      0.00
   14   16    0      4.87      0.00
   16   16    0     -2.19      0.00
    0   18    0    -10.54      0.00
    2   18    0      1.48      0.00
    4   18    0     -3.42      0.00
    6   18    0      0.61      0.00
    8   18    0      1.40      0.00
   10   18    0     -7.32      0.00
   12   18    0      7.93      0.00
   14   18    0     -0.62      0.00
    0   20    0     17.89      0.00
    2   20    0     17.06      0.00
    4   20    0     -8.20      0.00
    6   20    0      6.47      0.00
    8   20    0     -8.56      0.00
   10   20    0      1.23      0.00
   12   20    0    -10.60      0.00
    0   22    0      6.40      0.00
    2   22    0      0.02      0.00
    4   22    0     10.43      0.00
    6   22    0      6.58      0.00
    8   22    0      8.98      0.00
    0    1    1    259.28      0.00
    1    2    1     78.76      0.00
    0    3    1    124.34      0.00
    2    3    1    -51.04      0.00
    1    4    1    -18.51      0.00
    3    4    1     15.54      0.00
    0    5    1     28.36      0.00
    2    5    1    -14.68      0.00
    4    5    1      8.77      0.00
    1    6    1     16.35      0.00
    3    6    1    -17.17      0.00
    5    6    1      3.95      0.00
    0    7    1     11.83      0.00
    2    7    1    -12.38      0.00
    4    7    1     -7.48      0.00
    6    7    1     -5.90      0.00
    1    8    1     -1.28      0.00
    3    8    1      0.77      0.00
    5    8    1     -3.70      0.00
    7    8    1      6.53      0.00
    0    9    1      8.07      0.00
    2    9    1     -8.80      0.00
    4    9    1      4.01      0.00
    6    9    1     -2.57      0.00
    8    9    1     -5.39      0.00
    1   10    1     -1.02      0.00
    3   10    1     -2.80      0.00
    5   10    1      5.75      0.00
    7   10    1     -4.71      0.00
    9   10    1     -2.25      0.00
    0   11    1     -4.22      0.00
    2   11    1      1.43      0.00
    4   11    1      1.29      0.00
    6   11    1      5.61      0.00
    8   11    1      1.15      0.00
   10   11    1     -2.55      0.00
    1   12    1     -6.42      0.00
    3   12    1      0.70      0.00
    5   12    1     -2.17      0.00
    7   12    1      5.15      0.00
    9   12    1      0.65      0.00
   11   12    1     -9.98      0.00
    0   13    1     10.17      0.00
    2   13    1     -9.62      0.00
    4   13    1      1.72      0.00
    6   13    1     11.37      0.00
    8   13    1     -0.29      0.00
   10   13    1      5.42      0.00
   12   13    1     -5.72      0.00
    1   14    1     -0.02      0.00
    3   14    1     -2.81      0.00
    5   14    1      3.44      0.00
    7   14    1      2.59      0.00
    9   14    1      0.83      0.00
   11   14    1     -1.25      0.00
   13   14    1      0.16      0.00
    0   15    1     -7.00      0.00
    2   15    1     -4.61      0.00
    4   15    1      6.69      0.00
    6   15    1     -9.22      0.00
    8   15    1     -1.73      0.00
   10   15    1      5.31      0.00
   12   15    1      1.87      0.00
   14   15    1     -4.35      0.00
    1   16    1      2.10      0.00
    3   16    1     -2.69      0.00
    5   16    1      1.44      0.00
    7   16    1     -8.91      0.00
    9   16    1     -1.16      0.00
   11   16    1      4.14      0.00
   13   16    1     -4.33      0.00
   15   16    1    -15.79      0.00
    0   17    1     -3.23      0.00
    2   17    1     -6.11      0.00
    4   17    1     -7.39      0.00
    6   17    1     -6.35      0.00
    8   17    1     -1.45      0.00
   10   17    1     -2.91      0.00
   12   17    1     -9.91      0.00
   14   17    1     -1.58      0.00
   16   17    1     -8.64      0.00
    1   18    1     -2.77      0.00
    3   18    1      3.11      0.00
    5   18    1     -4.35      0.00
    7   18    1      3.49      0.00
    9   18    1     -0.63      0.00
   11   18    1     -2.06      0.00
   13   18    1     -4.22      0.00
   15   18    1      8.63      0.00
    0   19    1     -6.47      0.00
    2   19    1     -0.11      0.00
    4   19    1     -3.83      0.00
    6   19    1     -7.83      0.00
    8   19    1    -11.26      0.00
   10   19    1     12.57      0.00
   12   19    1     -3.57      0.00
   14   19    1     -4.66      0.00
    1   20    1      5.13      0.00
    3   20    1     -1.08      0.00
    5   20    1     -5.08      0.00
    7   20    1     -9.76      0.00
    9   20    1    -10.58      0.00
   11   20    1     11.93      0.00
    0   21    1      7.10      0.00
    2   21    1     14.17      0.00
    4   21    1      7.84      0.00
    6   21    1      7.28      0.00
    8   21    1     22.61      0.00
   10   21    1     -3.49      0.00
    1   22    1      7.05      0.00
    3   22    1      7.98      0.00
    5   22    1     -4.77      0.00
    7   22    1     -5.22      0.00
    9   22    1     14.20      0.00
    0   23    1     -0.80      0.00
    2   23    1     -4.81      0.00
    4   23    1    -12.00      0.00
    6   23    1      7.29      0.00
    1    1    2   -281.50      0.00
    0    2    2    -54.47      0.00
    1    3    2    -33.63      0.00
    3    3    2    -13.69      0.00
    0    4    2     91.49      0.00
    2    4    2     14.52      0.00
    1    5    2    -24.19      0.00
    3    5    2    -19.95      0.00
    5    5    2     -8.96      0.00
    0    6    2    -36.74      0.00
    2    6    2      3.52      0.00
    4    6    2     10.08      0.00
    1    7    2      9.26      0.00
    3    7    2      0.79      0.00
    5    7    2    -11.79      0.00
    7    7    2     -6.30      0.00
    0    8    2     46.54      0.00
    2    8    2    -13.82      0.00
    4    8    2      8.54      0.00
    6    8    2      0.74      0.00
    1    9    2     -2.72      0.00
    3    9    2     -1.08      0.00
    5    9    2      1.14      0.00
    7    9    2     -0.78      0.00
    9    9    2     -5.77      0.00
    0   10    2     -7.79      0.00
    2   10    2      7.94      0.00
    4   10    2     -0.30      0.00
    6   10    2      1.45      0.00
    8   10    2      0.59      0.00
    1   11    2      2.95      0.00
    3   11    2     -1.32      0.00
    5   11    2      1.00      0.00
    7   11    2     -3.43      0.00
    9   11    2      0.17      0.00
   11   11    2     -3.35      0.00
    0   12    2     -7.55      0.00
    2   12    2     -4.34      0.00
    4   12    2    -14.00      0.00
    6   12    2     -2.30      0.00
    8   12    2     -0.94      0.00
   10   12    2    -17.53      0.00
    1   13    2     -2.13      0.00
    3   13    2     -0.81      0.00
    5   13    2     -4.06      0.00
    7   13    2     -4.35      0.00
    9   13    2     -3.62      0.00
   11   13    2     -3.30      0.00
   13   13    2      8.53      0.00
    0   14    2      4.55      0.00
    2   14    2     -0.61      0.00
    4   14    2     -2.64      0.00
    6   14    2      3.56      0.00
    8   14    2      3.49      0.00
   10   14    2     -1.14      0.00
   12   14    2     -0.52      0.00
    1   15    2     -0.07      0.00
    3   15    2     -1.22      0.00
    5   15    2     -2.46      0.00
    7   15    2      0.73      0.00
    9   15    2     -8.97      0.00
   11   15    2     -4.61      0.00
   13   15    2     -4.64      0.00
   15   15    2    -16.04      0.00
    0   16    2     -2.13      0.00
    2   16    2     -3.57      0.00
    4   16    2      0.89      0.00
    6   16    2      3.62      0.00
    8   16    2     -3.78      0.00
   10   16    2      5.46      0.00
   12   16    2      5.51      0.00
   14   16    2     -4.38      0.00
    1   17    2      0.96      0.00
    3   17    2     -2.39      0.00
    5   17    2     -3.44      0.00
    7   17    2     -4.77      0.00
    9   17    2      5.39      0.00
   11   17    2     -5.79      0.00
   13   17    2     -4.77      0.00
   15   17    2      8.54      0.00
    0   18    2      0.91      0.00
    2   18    2     -2.75      0.00
    4   18    2      1.08      0.00
    6   18    2     -3.15      0.00
    8   18    2      3.23      0.00
   10   18    2      7.35      0.00
   12   18    2      4.09      0.00
   14   18    2      3.35      0.00
    1   19    2      5.53      0.00
    3   19    2      2.36      0.00
    5   19    2     -3.85      0.00
    7   19    2      2.19      0.00
    9   19    2     -5.00      0.00
   11   19    2      5.65      0.00
   13   19    2      2.96      0.00
    0   20    2     -0.70      0.00
    2   20    2     -3.60      0.00
    4   20    2     -7.23      0.00
    6   20    2     -4.79      0.00
    8   20    2     -6.11      0.00
   10   20    2     16.73      0.00
   12   20    2      3.12      0.00
    1   21    2    -10.46      0.00
    3   21    2      0.33      0.00
    5   21    2      1.25      0.00
    7   21    2      1.55      0.00
    9   21    2      8.26      0.00
   11   21    2     -6.69      0.00
    0   22    2     -7.04      0.00
    2   22    2      5.71      0.00
    4   22    2     -2.09      0.00
    6   22    2    -12.68      0.00
    8   22    2     -1.32      0.00
    1   23    2    -14.33      0.00
    3   23    2     -8.64      0.00
    5   23    2      4.12      0.00
    0    1    3   -501.80      0.00
    1    2    3     56.47      0.00
    0    3    3   -158.95      0.00
    2    3    3    -32.94      0.00
    1    4    3     45.96      0.00
    3    4    3      4.59      0.00
    0    5    3    -39.91      0.00
    2    5    3     12.36      0.00
    4    5    3    -18.48      0.00
    1    6    3     12.88      0.00
    3    6    3      8.13      0.00
    5    6    3      5.43      0.00
    2    7    3     26.82      0.00
    4    7    3     -5.28      0.00
    6    7    3      1.02      0.00
    1    8    3      6.68      0.00
    3    8    3      2.02      0.00
    5    8    3      4.59      0.00
    7    8    3      0.00      0.00
    0    9    3     23.12      0.00
    2    9    3      3.92      0.00
    4    9    3      2.64      0.00
    6    9    3     -2.31      0.00
    8    9    3     -1.32      0.00
    1   10    3      6.57      0.00
    3   10    3      0.96      0.00
    5   10    3     -1.37      0.00
    7   10    3     -0.95      0.00
    9   10    3      0.82      0.00
    0   11    3     -2.90      0.00
    2   11    3     16.55      0.00
    4   11    3      1.47      0.00
    6   11    3     -4.15      0.00
    8   11    3      1.37      0.00
   10   11    3     -3.71      0.00
    1   12    3      2.83      0.00
    3   12    3     -2.50      0.00
    5   12    3      0.42      0.00
    7   12    3     -1.58      0.00
    9   12    3     -7.39      0.00
   11   12    3     -7.47      0.00
    0   13    3     14.89      0.00
    2   13    3      5.13      0.00
    4   13    3     -2.39      0.00
    6   13    3      2.28      0.00
    8   13    3      7.53      0.00
   10   13    3     -5.96      0.00
   12   13    3      1.71      0.00
    1   14    3      4.99      0.00
    3   14    3      2.42      0.00
    5   14    3      3.01      0.00
    7   14    3     -5.21      0.00
    9   14    3      9.86      0.00
   11   14    3      0.09      0.00
   13   14    3      5.41      0.00
    0   15    3      3.13      0.00
    2   15    3      8.81      0.00
    4   15    3     -0.66      0.00
    6   15    3     -6.82      0.00
    8   15    3     -4.14      0.00
   10   15    3      4.27      0.00
   12   15    3     -4.16      0.00
   14   15    3      1.20      0.00
    1   16    3     -4.61      0.00
    3   16    3      0.38      0.00
    5   16    3      2.61      0.00
    7   16    3      8.30      0.00
    9   16    3     -1.16      0.00
   11   16    3     -0.05      0.00
   13   16    3     -8.21      0.00
   15   16    3      4.07      0.00
    0   17    3      1.21      0.00
    2   17    3      1.63      0.00
    4   17    3     -1.85      0.00
    6   17    3      2.32      0.00
    8   17    3     -4.80      0.00
   10   17    3    -12.69      0.00
   12   17    3      1.39      0.00
   14   17    3      0.18      0.00
   16   17    3      5.57      0.00
    1   18    3      3.71      0.00
    3   18    3      0.23      0.00
    5   18    3      3.50      0.00
    7   18    3     -5.05      0.00
    9   18    3      2.24      0.00
   11   18    3      1.17      0.00
   13   18    3      7.07      0.00
   15   18    3    -15.58      0.00
    0   19    3     10.06      0.00
    2   19    3      4.17      0.00
    4   19    3     -1.30      0.00
    6   19    3     -7.15      0.00
    8   19    3     -8.51      0.00
   10   19    3      1.14      0.00
   12   19    3     -9.36      0.00
   14   19    3     -6.14      0.00
    1   20    3     10.40      0.00
    3   20    3     -3.08      0.00
    5   20    3     -0.61      0.00
    7   20    3      9.55      0.00
    9   20    3      2.62      0.00
   11   20    3     -3.41      0.00
    0   21    3      7.29      0.00
    2   21    3     -0.31      0.00
    4   21    3     14.56      0.00
    6   21    3     -6.29      0.00
    8   21    3     19.43      0.00
   10   21    3      4.88      0.00
    1   22    3     -7.68      0.00
    3   22    3      0.04      0.00
    5   22    3    -11.19      0.00
    7   22    3     -1.14      0.00
    9   22    3    -12.89      0.00
    0   23    3     -5.42      0.00
    2   23    3     -8.32      0.00
    4   23    3     -7.89      0.00
    6   23    3    -14.24      0.00
    0    0    4    -66.96      0.00
    0    2    4    320.13      0.00
    2    2    4   -295.66      0.00
    1    3    4     -2.49      0.00
    0    4    4    -97.05      0.00
    2    4    4     98.08      0.00
    4    4    4    -35.30      0.00
    1    5    4     -2.80      0.00
    3    5    4    -10.93      0.00
    0    6    4     78.48      0.00
    2    6    4    -20.11      0.00
    4    6    4     14.57      0.00
    6    6    4     -5.02      0.00
    1    7    4      4.62      0.00
    3    7    4      6.63      0.00
    5    7    4      7.86      0.00
    0    8    4    -19.48      0.00
    2    8    4     -6.17      0.00
    4    8    4     -3.03      0.00
    6    8    4     -0.34      0.00
    8    8    4     -6.85      0.00
    1    9    4     -1.32      0.00
    3    9    4     -7.50      0.00
    5    9    4      0.51      0.00
    7    9    4     -1.08      0.00
    0   10    4     10.53      0.00
    2   10    4     -1.84      0.00
    4   10    4     -0.17      0.00
    6   10    4      3.86      0.00
    8   10    4     -4.59      0.00
   10   10    4      0.81      0.00
    1   11    4     -3.68      0.00
    3   11    4     -3.39      0.00
    5   11    4     -1.74      0.00
    7   11    4     -3.09      0.00
    9   11    4     -6.95      0.00
    0   12    4     -5.82      0.00
    2   12    4      4.25      0.00
    4   12    4      6.14      0.00
    6   12    4      5.23      0.00
    8   12    4      1.16      0.00
   10   12    4     -6.22      0.00
   12   12    4     -5.45      0.00
    1   13    4     17.83      0.00
    3   13    4     -3.90      0.00
    5   13    4     -0.28      0.00
    7   13    4      0.90      0.00
    9   13    4      2.25      0.00
   11   13    4     -0.27      0.00
    0   14    4      0.18      0.00
    2   14    4     -1.06      0.00
    4   14    4      9.52      0.00
    6   14    4     -5.97      0.00
    8   14    4      4.22      0.00
   10   14    4     -4.04      0.00
   12   14    4     -1.08      0.00
   14   14    4     -7.50      0.00
    1   15    4      7.61      0.00
    3   15    4      0.82      0.00
    5   15    4     -2.91      0.00
    7   15    4     -9.73      0.00
    9   15    4      3.69      0.00
   11   15    4      2.86      0.00
   13   15    4    -12.56      0.00
    0   16    4     -0.26      0.00
    2   16    4      3.34      0.00
    4   16    4     -5.76      0.00
    6   16    4      1.14      0.00
    8   16    4     -7.60      0.00
   10   16    4     -0.43      0.00
   12   16    4    -15.50      0.00
   14   16    4     -9.19      0.00
   16   16    4     -8.36      0.00
    1   17    4      2.59      0.00
    3   17    4      5.13      0.00
    5   17    4      3.30      0.00
    7   17    4      3.70      0.00
    9   17    4      8.85      0.00
   11   17    4     -1.51      0.00
   13   17    4     -4.92      0.00
   15   17    4     11.03      0.00
    0   18    4      0.22      0.00
    2   18    4      5.10      0.00
    4   18    4      4.61      0.00
    6   18    4     -1.49      0.00
    8   18    4     -5.31      0.00
   10   18    4      0.10      0.00
   12   18    4      7.49      0.00
   14   18    4      2.33      0.00
    1   19    4      9.78      0.00
    3   19    4     -4.73      0.00
    5   19    4    -12.68      0.00
    7   19    4      0.61      0.00
    9   19    4     13.03      0.00
   11   19    4     -6.49      0.00
   13   19    4     -0.10      0.00
    0   20    4     11.73      0.00
    2   20    4      2.76      0.00
    4   20    4     -2.69      0.00
    6   20    4     12.60      0.00
    8   20    4      3.76      0.00
   10   20    4     -4.46      0.00
   12   20    4      7.85      0.00
    1   21    4      1.66      0.00
    3   21    4     -3.55      0.00
    5   21    4      6.16      0.00
    7   21    4    -13.28      0.00
    9   21    4     18.90      0.00
   11   21    4      0.64      0.00
    0   22    4     -3.91      0.00
    2   22    4     -2.46      0.00
    4   22    4     -7.44      0.00
    6   22    4     -7.25      0.00
    8   22    4     -1.06      0.00
    1   23    4      0.68      0.00
    3   23    4     -0.87      0.00
    5   23    4    -15.32      0.00
    0    1    5    208.13      0.00
    1    2    5    -74.68      0.00
    0    3    5     68.16      0.00
    2    3    5     15.82      0.00
    1    4    5     31.16      0.00
    3    4    5    -74.47      0.00
    0    5    5     19.80      0.00
    2    5    5    -32.21      0.00
    4    5    5    -16.00      0.00
    1    6    5    -23.56      0.00
    3    6    5     11.48      0.00
    5    6    5     -9.29      0.00
    0    7    5     12.34      0.00
    2    7    5      2.09      0.00
    4    7    5      6.25      0.00
    6    7    5      0.12      0.00
    1    8    5     14.11      0.00
    3    8    5     -6.52      0.00
    5    8    5     -0.46      0.00
    7    8    5     -3.54      0.00
    0    9    5     12.55      0.00
    2    9    5     -7.48      0.00
    4    9    5      5.05      0.00
    6    9    5      6.19      0.00
    8    9    5      3.54      0.00
    1   10    5     -4.62      0.00
    3   10    5     -0.76      0.00
    5   10    5     -3.29      0.00
    7   10    5     -0.86      0.00
    9   10    5     -3.56      0.00
    0   11    5    -11.85      0.00
    2   11    5    -13.45      0.00
    4   11    5     -6.00      0.00
    6   11    5      5.30      0.00
    8   11    5     -7.70      0.00
   10   11    5     -2.49      0.00
    1   12    5     -1.01      0.00
    3   12    5     -0.29      0.00
    5   12    5     -3.63      0.00
    7   12    5      2.70      0.00
    9   12    5     -1.08      0.00
   11   12    5     -6.10      0.00
    0   13    5      0.50      0.00
    2   13    5    -10.54      0.00
    4   13    5     -0.78      0.00
    6   13    5      0.75      0.00
    8   13    5      3.28      0.00
   10   13    5      2.01      0.00
   12   13    5      6.80      0.00
    1   14    5      2.61      0.00
    3   14    5     -4.96      0.00
    5   14    5      1.44      0.00
    7   14    5     -0.15      0.00
    9   14    5     -4.63      0.00
   11   14    5      5.73      0.00
   13   14    5     -1.02      0.00
    0   15    5    -13.88      0.00
    2   15    5    -13.75      0.00
    4   15    5     -3.03      0.00
    6   15    5     -0.34      0.00
    8   15    5      0.96      0.00
   10   15    5      5.97      0.00
   12   15    5     -5.49      0.00
   14   15    5    -10.54      0.00
    1   16    5      1.23      0.00
    3   16    5     -0.95      0.00
    5   16    5     -1.39      0.00
    7   16    5     -3.72      0.00
    9   16    5     -2.02      0.00
   11   16    5     -2.24      0.00
   13   16    5     -1.48      0.00
   15   16    5      6.27      0.00
    0   17    5      3.26      0.00
    2   17    5     -2.29      0.00
    4   17    5     -1.32      0.00
    6   17    5     -1.90      0.00
    8   17    5     -0.94      0.00
   10   17    5      7.87      0.00
   12   17    5      1.45      0.00
   14   17    5     11.71      0.00
   16   17    5      4.18      0.00
    1   18    5     -2.26      0.00
    3   18    5      2.36      0.00
    5   18    5     -2.11      0.00
    7   18    5     -1.73      0.00
    9   18    5     -8.13      0.00
   11   18    5     18.29      0.00
   13   18    5     10.43      0.00
   15   18    5      3.71      0.00
    0   19    5     -5.54      0.00
    2   19    5      2.68      0.00
    4   19    5     -6.39      0.00
    6   19    5     -3.63      0.00
    8   19    5     15.62      0.00
   10   19    5      2.24      0.00
   12   19    5     -8.16      0.00
   14   19    5      5.13      0.00
    1   20    5     -5.75      0.00
    3   20    5      4.40      0.00
    5   20    5      2.13      0.00
    7   20    5      2.00      0.00
    9   20    5     13.57      0.00
   11   20    5     -0.90      0.00
    0   21    5     -5.47      0.00
    2   21    5     -0.77      0.00
    4   21    5      1.38      0.00
    6   21    5      1.09      0.00
    8   21    5     -4.38      0.00
   10   21    5      7.77      0.00
    1   22    5     -4.50      0.00
    3   22    5     -6.40      0.00
    5   22    5     -5.23      0.00
    7   22    5      1.49      0.00
    0   23    5      2.30      0.00
    2   23    5     -0.11      0.00
    4   23    5     12.43      0.00
    1    1    6    136.50      0.00
    0    2    6   -134.55      0.00
    1    3    6     51.52      0.00
    3    3    6    186.85      0.00
    0    4    6    -84.06      0.00
    2    4    6   -103.27      0.00
    1    5    6     24.57      0.00
    3    5    6      4.03      0.00
    5    5    6     25.74      0.00
    0    6    6    -28.58      0.00
    2    6    6     -7.88      0.00
    4    6    6    -15.24      0.00
    1    7    6      3.33      0.00
    3    7    6      9.81      0.00
    5    7    6     -4.64      0.00
    7    7    6      9.75      0.00
    0    8    6    -13.06      0.00
    2    8    6    -18.56      0.00
    4    8    6     -0.32      0.00
    6    8    6     -2.57      0.00
    1    9    6     16.47      0.00
    3    9    6     -1.35      0.00
    5    9    6      1.57      0.00
    7    9    6     -0.74      0.00
    9    9    6     -0.19      0.00
    0   10    6     -1.95      0.00
    2   10    6     -4.73      0.00
    4   10    6     -1.79      0.00
    6   10    6     -4.82      0.00
    8   10    6     -2.25      0.00
    1   11    6     -1.80      0.00
    3   11    6      2.66      0.00
    5   11    6     -3.19      0.00
    7   11    6     -0.53      0.00
    9   11    6     -1.17      0.00
   11   11    6    -14.47      0.00
    0   12    6     -5.70      0.00
    2   12    6     -1.17      0.00
    4   12    6     -5.00      0.00
    6   12    6      3.71      0.00
    8   12    6      2.81      0.00
   10   12    6     -4.76      0.00
    1   13    6      1.86      0.00
    3   13    6      4.15      0.00
    5   13    6      9.52      0.00
    7   13    6     10.94      0.00
    9   13    6     15.08      0.00
   11   13    6      3.03      0.00
   13   13    6      8.24      0.00
    0   14    6     -1.80      0.00
    2   14    6     -3.83      0.00
    4   14    6     -5.50      0.00
    6   14    6      0.14      0.00
    8   14    6     -2.11      0.00
   10   14    6      4.77      0.00
   12   14    6     -1.80      0.00
    1   15    6     -2.35      0.00
    3   15    6      0.26      0.00
    5   15    6     -1.51      0.00
    7   15    6      1.28      0.00
    9   15    6      0.43      0.00
   11   15    6     -3.08      0.00
   13   15    6     -5.07      0.00
   15   15    6     -2.61      0.00
    0   16    6     -1.97      0.00
    2   16    6      2.04      0.00
    4   16    6     -2.04      0.00
    6   16    6      1.74      0.00
    8   16    6      2.96      0.00
   10   16    6     -1.07      0.00
   12   16    6     -4.14      0.00
   14   16    6     -2.09      0.00
    1   17    6      0.64      0.00
    3   17    6     -0.64      0.00
    5   17    6     -9.21      0.00
    7   17    6    -13.11      0.00
    9   17    6     -2.61      0.00
   11   17    6      3.89      0.00
   13   17    6      6.24      0.00
   15   17    6     -5.29      0.00
    0   18    6      1.74      0.00
    2   18    6     -6.08      0.00
    4   18    6      3.81      0.00
    6   18    6     -2.72      0.00
    8   18    6     -3.23      0.00
   10   18    6     -9.13      0.00
   12   18    6      7.70      0.00
   14   18    6     -4.38      0.00
    1   19    6      4.49      0.00
    3   19    6     -3.79      0.00
    5   19    6      0.29      0.00
    7   19    6      2.38      0.00
    9   19    6     -5.64      0.00
   11   19    6     -2.41      0.00
   13   19    6     -4.04      0.00
    0   20    6      1.26      0.00
    2   20    6      6.09      0.00
    4   20    6      0.02      0.00
    6   20    6     -3.18      0.00
    8   20    6     -7.64      0.00
   10   20    6      9.79      0.00
   12   20    6     -6.70      0.00
    1   21    6      1.04      0.00
    3   21    6     21.77      0.00
    5   21    6     -6.24      0.00
    7   21    6    -11.72      0.00
    9   21    6      4.23      0.00
   11   21    6     -1.17      0.00
    0   22    6     -2.01      0.00
    2   22    6     -0.56      0.00
    4   22    6      6.40      0.00
    6   22    6     -6.74      0.00
    8   22    6    -11.61      0.00
    1   23    6     19.68      0.00
    3   23    6      9.75      0.00
    5   23    6     12.57      0.00
    0    1    7      0.93      0.00
    1    2    7    -40.21      0.00
    0    3    7     17.04      0.00
    2    3    7    169.48      0.00
    1    4    7    -11.73      0.00
    3    4    7     -2.57      0.00
    0    5    7    -30.16      0.00
    2    5    7     33.64      0.00
    4    5    7     28.47      0.00
    1    6    7    -11.75      0.00
    3    6    7      5.32      0.00
    5    6    7     16.69      0.00
    0    7    7     -7.15      0.00
    2    7    7     -6.32      0.00
    4    7    7    -12.67      0.00
    6    7    7      0.12      0.00
    1    8    7      1.83      0.00
    3    8    7     -5.25      0.00
    5    8    7     -2.59      0.00
    7    8    7     -3.07      0.00
    0    9    7      1.55      0.00
    2    9    7     11.00      0.00
    4    9    7     -2.03      0.00
    6    9    7     -1.42      0.00
    8    9    7      4.60      0.00
    1   10    7      4.15      0.00
    3   10    7     -4.35      0.00
    5   10    7     -1.89      0.00
    7   10    7     -1.13      0.00
    9   10    7     -3.45      0.00
    0   11    7      3.86      0.00
    2   11    7      0.80      0.00
    4   11    7     -1.50      0.00
    6   11    7      3.96      0.00
    8   11    7      5.33      0.00
   10   11    7     -4.51      0.00
    1   12    7      2.26      0.00
    3   12    7      5.56      0.00
    5   12    7      5.40      0.00
    7   12    7      1.15      0.00
    9   12    7      4.76      0.00
   11   12    7     -0.03      0.00
    0   13    7      2.37      0.00
    2   13    7      0.99      0.00
    4   13    7     -3.02      0.00
    6   13    7     -9.08      0.00
    8   13    7      0.95      0.00
   10   13    7     -1.84      0.00
   12   13    7      1.32      0.00
    1   14    7     -0.07      0.00
    3   14    7     -1.32      0.00
    5   14    7      2.20      0.00
    7   14    7      1.05      0.00
    9   14    7      3.37      0.00
   11   14    7     -2.47      0.00
   13   14    7     -8.15      0.00
    0   15    7      6.99      0.00
    2   15    7      2.60      0.00
    4   15    7     -5.39      0.00
    6   15    7     -1.26      0.00
    8   15    7     -3.76      0.00
   10   15    7      1.47      0.00
   12   15    7    -12.25      0.00
   14   15    7    -13.35      0.00
    1   16    7      0.40      0.00
    3   16    7      3.62      0.00
    5   16    7      2.01      0.00
    7   16    7     -5.32      0.00
    9   16    7     -0.59      0.00
   11   16    7     -2.17      0.00
   13   16    7      6.52      0.00
   15   16    7      2.41      0.00
    0   17    7     10.91      0.00
    2   17    7      4.71      0.00
    4   17    7      1.26      0.00
    6   17    7     -8.90      0.00
    8   17    7      2.77      0.00
   10   17    7     12.47      0.00
   12   17    7      8.48      0.00
   14   17    7      5.47      0.00
   16   17    7     -7.77      0.00
    1   18    7     -0.04      0.00
    3   18    7     -4.93      0.00
    5   18    7     -4.59      0.00
    7   18    7      3.85      0.00
    9   18    7      1.19      0.00
   11   18    7      0.97      0.00
   13   18    7      3.51      0.00
   15   18    7     -1.30      0.00
    0   19    7      2.73      0.00
    2   19    7      6.56      0.00
    4   19    7      1.68      0.00
    6   19    7      7.37      0.00
    8   19    7     14.73      0.00
   10   19    7      0.94      0.00
   12   19    7     -8.01      0.00
   14   19    7     -7.33      0.00
    1   20    7      1.69      0.00
    3   20    7      3.74      0.00
    5   20    7      3.27      0.00
    7   20    7     -3.27      0.00
    9   20    7      0.51      0.00
   11   20    7      9.35      0.00
    0   21    7      7.18      0.00
    2   21    7     -5.17      0.00
    4   21    7      8.80      0.00
    6   21    7    -10.96      0.00
    8   21    7      3.91      0.00
   10   21    7      3.17      0.00
    1   22    7      2.93      0.00
    3   22    7      6.30      0.00
    5   22    7     -0.95      0.00
    7   22    7     -2.81      0.00
    0   23    7      1.73      0.00
    2   23    7     -2.72      0.00
    4   23    7      8.04      0.00
    0    2    8    124.67      0.00
    2    2    8    -32.10      0.00
    1    3    8    -18.17      0.00
    0    4    8      1.68      0.00
    2    4    8    -16.15      0.00
    4    4    8     11.29      0.00
    1    5    8      2.34      0.00
    3    5    8      0.91      0.00
    0    6    8     11.78      0.00
    2    6    8     -8.16      0.00
    4    6    8    -21.24      0.00
    6    6    8      0.59      0.00
    1    7    8      6.17      0.00
    3    7    8     -0.47      0.00
    5    7    8    -10.50      0.00
    0    8    8     -0.77      0.00
    2    8    8     -3.57      0.00
    4    8    8      6.65      0.00
    6    8    8     -7.24      0.00
    8    8    8      5.77      0.00
    1    9    8      0.37      0.00
    3    9    8     -1.54      0.00
    5    9    8      8.65      0.00
    7    9    8     -5.38      0.00
    0   10    8     16.49      0.00
    2   10    8      4.11      0.00
    4   10    8     -3.41      0.00
    6   10    8      3.37      0.00
    8   10    8    -11.55      0.00
   10   10    8      2.20      0.00
    1   11    8     -0.04      0.00
    3   11    8     -7.09      0.00
    5   11    8     -1.18      0.00
    7   11    8      4.02      0.00
    9   11    8     -0.09      0.00
    0   12    8     -1.55      0.00
    2   12    8      5.01      0.00
    4   12    8      4.18      0.00
    6   12    8      5.79      0.00
    8   12    8      9.83      0.00
   10   12    8      0.05      0.00
   12   12    8      9.42      0.00
    1   13    8     -3.32      0.00
    3   13    8    -12.73      0.00
    5   13    8      0.80      0.00
    7   13    8     -2.70      0.00
    9   13    8      1.78      0.00
   11   13    8      3.70      0.00
    0   14    8      1.75      0.00
    2   14    8     -4.23      0.00
    4   14    8      1.90      0.00
    6   14    8     -2.91      0.00
    8   14    8     -1.61      0.00
   10   14    8     -0.55      0.00
   12   14    8     -0.71      0.00
   14   14    8      1.66      0.00
    1   15    8     -2.99      0.00
    3   15    8     -3.30      0.00
    5   15    8     -4.72      0.00
    7   15    8     -1.05      0.00
    9   15    8      3.28      0.00
   11   15    8     -2.14      0.00
   13   15    8     -5.71      0.00
    0   16    8     -3.72      0.00
    2   16    8     10.02      0.00
    4   16    8     -0.27      0.00
    6   16    8      4.01      0.00
    8   16    8     -0.82      0.00
   10   16    8      1.32      0.00
   12   16    8      4.21      0.00
   14   16    8      8.72      0.00
   16   16    8     -6.68      0.00
    1   17    8     -0.24      0.00
    3   17    8     -1.78      0.00
    5   17    8     -0.36      0.00
    7   17    8     -6.45      0.00
    9   17    8     -1.26      0.00
   11   17    8      7.05      0.00
   13   17    8      4.52      0.00
   15   17    8      1.49      0.00
    0   18    8      5.80      0.00
    2   18    8     -8.22      0.00
    4   18    8      7.87      0.00
    6   18    8      2.49      0.00
    8   18    8      0.46      0.00
   10   18    8      0.13      0.00
   12   18    8     13.95      0.00
   14   18    8    -12.38      0.00
    1   19    8      5.39      0.00
    3   19    8      7.58      0.00
    5   19    8      7.94      0.00
    7   19    8     -9.07      0.00
    9   19    8     10.63      0.00
   11   19    8    -10.34      0.00
   13   19    8     -0.58      0.00
    0   20    8    -17.93      0.00
    2   20    8      1.50      0.00
    4   20    8     -4.79      0.00
    6   20    8      3.03      0.00
    8   20    8     -7.32      0.00
   10   20    8      7.19      0.00
   12   20    8      2.02      0.00
    1   21    8      1.75      0.00
    3   21    8     -2.39      0.00
    5   21    8      0.25      0.00
    7   21    8     16.72      0.00
    9   21    8     21.15      0.00
    0   22    8     11.24      0.00
    2   22    8     -8.85      0.00
    4   22    8     -1.87      0.00
    6   22    8     -0.25      0.00
    8   22    8      5.50      0.00
    1   23    8      6.02      0.00
    3   23    8     -8.79      0.00
    5   23    8     12.94      0.00
    0    1    9   -101.71      0.00
    1    2    9     41.68      0.00
    0    3    9      2.98      0.00
    2    3    9    -22.87      0.00
    1    4    9    -50.89      0.00
    3    4    9     15.12      0.00
    0    5    9     26.51      0.00
    2    5    9     14.69      0.00
    4    5    9      2.34      0.00
    1    6    9    -12.22      0.00
    3    6    9    -33.12      0.00
    5    6    9     19.01      0.00
    0    7    9     29.77      0.00
    2    7    9      3.08      0.00
    4    7    9      0.00      0.00
    6    7    9      7.30      0.00
    1    8    9     -9.09      0.00
    3    8    9      4.21      0.00
    5    8    9    -12.55      0.00
    7    8    9      8.93      0.00
    0    9    9      3.17      0.00
    2    9    9    -10.61      0.00
    4    9    9      0.23      0.00
    6    9    9    -12.24      0.00
    8    9    9      0.24      0.00
    1   10    9     -2.48      0.00
    3   10    9     -2.40      0.00
    5   10    9      0.85      0.00
    7   10    9     -1.07      0.00
    9   10    9      3.37      0.00
    0   11    9     -6.38      0.00
    2   11    9     -7.51      0.00
    4   11    9     -2.97      0.00
    6   11    9      4.69      0.00
    8   11    9     -5.19      0.00
   10   11    9     -1.32      0.00
    1   12    9    -12.79      0.00
    3   12    9      2.89      0.00
    5   12    9      7.40      0.00
    7   12    9      7.18      0.00
    9   12    9     -2.62      0.00
   11   12    9      9.69      0.00
    0   13    9     11.33      0.00
    2   13    9      3.90      0.00
    4   13    9      0.76      0.00
    6   13    9      7.01      0.00
    8   13    9      5.91      0.00
   10   13    9      8.14      0.00
   12   13    9     14.65      0.00
    1   14    9     -0.25      0.00
    3   14    9     -7.49      0.00
    5   14    9     -3.38      0.00
    7   14    9     -3.87      0.00
    9   14    9      4.01      0.00
   11   14    9      1.62      0.00
   13   14    9      1.48      0.00
    0   15    9      6.97      0.00
    2   15    9      0.23      0.00
    4   15    9      2.83      0.00
    6   15    9     -4.86      0.00
    8   15    9      2.52      0.00
   10   15    9     -1.21      0.00
   12   15    9     -0.83      0.00
   14   15    9      3.59      0.00
    1   16    9      0.07      0.00
    3   16    9     -0.92      0.00
    5   16    9     -7.21      0.00
    7   16    9     -1.57      0.00
    9   16    9      1.54      0.00
   11   16    9      8.00      0.00
   13   16    9      0.52      0.00
   15   16    9      5.12      0.00
    0   17    9     -2.46      0.00
    2   17    9     -0.67      0.00
    4   17    9     -5.51      0.00
    6   17    9     -8.54      0.00
    8   17    9      6.78      0.00
   10   17    9      1.88      0.00
   12   17    9     -1.39      0.00
   14   17    9     -4.39      0.00
   16   17    9    -14.01      0.00
    1   18    9     -6.82      0.00
    3   18    9      0.96      0.00
    5   18    9     10.75      0.00
    7   18    9      5.57      0.00
    9   18    9    -10.04      0.00
   11   18    9      1.19      0.00
   13   18    9      5.28      0.00
   15   18    9    -15.14      0.00
    0   19    9      5.54      0.00
    2   19    9      2.46      0.00
    4   19    9      0.96      0.00
    6   19    9      1.63      0.00
    8   19    9     -8.61      0.00
   10   19    9      8.81      0.00
   12   19    9      1.84      0.00
   14   19    9     -0.07      0.00
    1   20    9      2.79      0.00
    3   20    9      1.58      0.00
    5   20    9     -7.26      0.00
    7   20    9     -8.76      0.00
    9   20    9     -4.61      0.00
   11   20    9      7.85      0.00
    0   21    9      4.99      0.00
    2   21    9      1.62      0.00
    4   21    9      3.44      0.00
    6   21    9    -10.01      0.00
    8   21    9     -1.15      0.00
   10   21    9     -8.51      0.00
    1   22    9     -3.26      0.00
    3   22    9      2.40      0.00
    5   22    9      7.87      0.00
    7   22    9      0.17      0.00
    0   23    9     17.55      0.00
    2   23    9     -3.13      0.00
    4   23    9    -21.84      0.00
    1    1   10    -62.45      0.00
    0    2   10    114.78      0.00
    1    3   10     -8.06      0.00
    3    3   10    -34.45      0.00
    0    4   10   -118.44      0.00
    2    4   10     47.41      0.00
    1    5   10    -16.85      0.00
    3    5   10     31.94      0.00
    5    5   10    -32.03      0.00
    0    6   10     17.64      0.00
    2    6   10    -24.14      0.00
    4    6   10     17.11      0.00
    1    7   10      9.86      0.00
    3    7   10    -11.67      0.00
    5    7   10      4.93      0.00
    7    7   10     -6.04      0.00
    0    8   10    -17.30      0.00
    2    8   10      5.36      0.00
    4    8   10      0.00      0.00
    6    8   10      7.58      0.00
    1    9   10      2.94      0.00
    3    9   10      7.84      0.00
    5    9   10     -3.65      0.00
    7    9   10      4.17      0.00
    9    9   10     13.64      0.00
    0   10   10      0.76      0.00
    2   10   10     -9.06      0.00
    4   10   10     -6.97      0.00
    6   10   10     -1.74      0.00
    8   10   10     -1.56      0.00
    1   11   10     -4.03      0.00
    3   11   10     -6.79      0.00
    5   11   10      5.84      0.00
    7   11   10      4.70      0.00
    9   11   10      4.74      0.00
   11   11   10      2.61      0.00
    0   12   10     -7.50      0.00
    2   12   10      0.73      0.00
    4   12   10      5.96      0.00
    6   12   10      2.59      0.00
    8   12   10      1.27      0.00
   10   12   10      1.89      0.00
    1   13   10     -9.57      0.00
    3   13   10      1.49      0.00
    5   13   10     -8.55      0.00
    7   13   10     -7.14      0.00
    9   13   10     -1.19      0.00
   11   13   10     -8.19      0.00
   13   13   10      1.54      0.00
    0   14   10      1.85      0.00
    2   14   10      3.86      0.00
    4   14   10     -2.31      0.00
    6   14   10      1.52      0.00
    8   14   10      0.78      0.00
   10   14   10      2.01      0.00
   12   14   10     -6.26      0.00
    1   15   10     -5.32      0.00
    3   15   10     -4.91      0.00
    5   15   10     -3.46      0.00
    7   15   10     -5.58      0.00
    9   15   10     -3.28      0.00
   11   15   10      1.09      0.00
   13   15   10      5.35      0.00
   15   15   10    -17.18      0.00
    0   16   10     -1.96      0.00
    2   16   10     -2.08      0.00
    4   16   10     -3.04      0.00
    6   16   10     -5.97      0.00
    8   16   10     -3.93      0.00
   10   16   10     -2.77      0.00
   12   16   10     -2.60      0.00
   14   16   10      1.86      0.00
    1   17   10      6.14      0.00
    3   17   10     -1.40      0.00
    5   17   10     -3.58      0.00
    7   17   10      5.92      0.00
    9   17   10      8.54      0.00
   11   17   10      7.06      0.00
   13   17   10     -5.85      0.00
   15   17   10     -0.01      0.00
    0   18   10     -2.32      0.00
    2   18   10      3.18      0.00
    4   18   10      7.56      0.00
    6   18   10      6.80      0.00
    8   18   10      3.20      0.00
   10   18   10     -4.63      0.00
   12   18   10     -2.67      0.00
   14   18   10    -12.58      0.00
    1   19   10     -7.92      0.00
    3   19   10     11.92      0.00
    5   19   10      2.10      0.00
    7   19   10      2.58      0.00
    9   19   10      7.66      0.00
   11   19   10    -11.05      0.00
   13   19   10     11.42      0.00
    0   20   10      0.02      0.00
    2   20   10     -2.97      0.00
    4   20   10      1.47      0.00
    6   20   10     -2.18      0.00
    8   20   10      8.42      0.00
   10   20   10     -3.95      0.00
   12   20   10     -5.33      0.00
    1   21   10      3.77      0.00
    3   21   10    -12.95      0.00
    5   21   10     13.79      0.00
    7   21   10     -5.27      0.00
    9   21   10    -15.92      0.00
    0   22   10     -4.40      0.00
    2   22   10      2.42      0.00
    4   22   10      7.46      0.00
    6   22   10      3.17      0.00
    8   22   10    -10.53      0.00
    1   23   10    -12.65      0.00
    3   23   10    -12.27      0.00
    5   23   10    -13.26      0.00
    0    1   11    156.35      0.00
    1    2   11     -0.17      0.00
    0    3   11   -108.09      0.00
    2    3   11     21.29      0.00
    1    4   11      9.02      0.00
    3    4   11      2.56      0.00
    0    5   11    -11.56      0.00
    2    5   11    -16.93      0.00
    4    5   11    -24.12      0.00
    1    6   11     -2.40      0.00
    3    6   11     -3.76      0.00
    5    6   11     -1.72      0.00
    0    7   11    -26.15      0.00
    2    7   11     20.23      0.00
    4    7   11     -8.04      0.00
    6    7   11     -4.88      0.00
    1    8   11      4.07      0.00
    3    8   11      7.10      0.00
    5    8   11      0.06      0.00
    7    8   11      1.66      0.00
    0    9   11      6.57      0.00
    2    9   11     -5.39      0.00
    4    9   11      5.76      0.00
    6    9   11      0.21      0.00
    8    9   11     -3.81      0.00
    1   10   11      1.81      0.00
    3   10   11     -1.29      0.00
    5   10   11      3.65      0.00
    7   10   11      0.48      0.00
    9   10   11     -2.62      0.00
    0   11   11     -1.23      0.00
    2   11   11      5.43      0.00
    4   11   11     -4.27      0.00
    6   11   11     -3.77      0.00
    8   11   11      6.27      0.00
   10   11   11      1.43      0.00
    1   12   11      1.43      0.00
    3   12   11     -4.57      0.00
    5   12   11      0.93      0.00
    7   12   11     -1.44      0.00
    9   12   11      0.69      0.00
   11   12   11      4.91      0.00
    0   13   11      1.11      0.00
    2   13   11     -1.25      0.00
    4   13   11     -0.94      0.00
    6   13   11     -7.78      0.00
    8   13   11     -1.02      0.00
   10   13   11      0.66      0.00
   12   13   11      0.82      0.00
    1   14   11     -2.79      0.00
    3   14   11      7.32      0.00
    5   14   11     -3.53      0.00
    7   14   11      0.23      0.00
    9   14   11      3.64      0.00
   11   14   11     -3.11      0.00
   13   14   11     -3.27      0.00
    0   15   11      1.60      0.00
    2   15   11      2.13      0.00
    4   15   11     -1.54      0.00
    6   15   11     -2.92      0.00
    8   15   11     -3.07      0.00
   10   15   11      1.43      0.00
   12   15   11      1.30      0.00
   14   15   11     -8.52      0.00
    1   16   11      5.26      0.00
    3   16   11      1.03      0.00
    5   16   11      2.94      0.00
    7   16   11      2.80      0.00
    9   16   11      1.26      0.00
   11   16   11     -2.68      0.00
   13   16   11     -0.01      0.00
   15   16   11     -7.38      0.00
    0   17   11      5.69      0.00
    2   17   11     -1.41      0.00
    4   17   11      1.35      0.00
    6   17   11     -5.28      0.00
    8   17   11     -5.69      0.00
   10   17   11     -1.99      0.00
   12   17   11      3.76      0.00
   14   17   11     -5.25      0.00
   16   17   11      5.48      0.00
    1   18   11     -0.46      0.00
    3   18   11      9.29      0.00
    5   18   11     12.60      0.00
    7   18   11      2.70      0.00
    9   18   11      1.47      0.00
   11   18   11      6.17      0.00
   13   18   11     -3.90      0.00
   15   18   11     -8.31      0.00
    0   19   11     -2.82      0.00
    2   19   11      1.39      0.00
    4   19   11      0.71      0.00
    6   19   11     -2.34      0.00
    8   19   11    -12.42      0.00
   10   19   11     -3.33      0.00
   12   19   11     -2.37      0.00
    1   20   11     -8.31      0.00
    3   20   11     -5.75      0.00
    5   20   11     -4.76      0.00
    7   20   11     13.55      0.00
    9   20   11      8.20      0.00
   11   20   11     -2.15      0.00
    0   21   11     -5.18      0.00
    2   21   11    -10.66      0.00
    4   21   11      2.10      0.00
    6   21   11    -13.10      0.00
    8   21   11      5.97      0.00
   10   21   11     -7.88      0.00
    1   22   11     -4.08      0.00
    3   22   11     -6.30      0.00
    5   22   11      1.80      0.00
    7   22   11     -1.68      0.00
    0   23   11     12.73      0.00
    2   23   11      8.74      0.00
    4   23   11     11.79      0.00
    0    2   12     75.16      0.00
    2    2   12      8.38      0.00
    1    3   12     27.78      0.00
    0    4   12     94.52      0.00
    2    4   12     27.27      0.00
    4    4   12     24.75      0.00
    1    5   12    -14.27      0.00
    3    5   12     -1.73      0.00
    0    6   12     18.59      0.00
    2    6   12     -0.58      0.00
    4    6   12     13.90      0.00
    6    6   12     -3.38      0.00
    1    7   12      1.98      0.00
    3    7   12    -15.48      0.00
    5    7   12      0.07      0.00
    0    8   12     18.14      0.00
    2    8   12     11.48      0.00
    4    8   12     -5.80      0.00
    6    8   12      6.91      0.00
    8    8   12      1.26      0.00
    1    9   12     -5.87      0.00
    3    9   12      9.34      0.00
    5    9   12     -9.50      0.00
    7    9   12     -7.28      0.00
    0   10   12      8.39      0.00
    2   10   12      6.15      0.00
    4   10   12      4.02      0.00
    6   10   12     -0.13      0.00
    8   10   12     -1.62      0.00
   10   10   12     -4.41      0.00
    1   11   12     -2.82      0.00
    3   11   12     -9.19      0.00
    5   11   12      5.86      0.00
    7   11   12      4.93      0.00
    9   11   12     -1.68      0.00
    0   12   12     -4.63      0.00
    2   12   12     -4.13      0.00
    4   12   12     -2.21      0.00
    6   12   12      0.75      0.00
    8   12   12     -1.65      0.00
   10   12   12     -0.10      0.00
   12   12   12     17.90      0.00
    1   13   12      3.01      0.00
    3   13   12     -1.81      0.00
    5   13   12     -0.70      0.00
    7   13   12     -9.09      0.00
    9   13   12      7.13      0.00
   11   13   12      9.11      0.00
    0   14   12     -3.61      0.00
    2   14   12     -1.82      0.00
    4   14   12      1.01      0.00
    6   14   12     -5.17      0.00
    8   14   12      2.48      0.00
   10   14   12     -0.08      0.00
   12   14   12      0.96      0.00
   14   14   12      6.15      0.00
    1   15   12      1.96      0.00
    3   15   12     -3.90      0.00
    5   15   12     -4.48      0.00
    7   15   12      6.82      0.00
    9   15   12      3.89      0.00
   11   15   12      2.63      0.00
   13   15   12      1.80      0.00
    0   16   12      3.70      0.00
    2   16   12      0.70      0.00
    4   16   12      2.57      0.00
    6   16   12      2.77      0.00
    8   16   12      0.89      0.00
   10   16   12      4.82      0.00
   12   16   12      0.19      0.00
   14   16   12      1.61      0.00
   16   16   12     -0.21      0.00
    1   17   12      7.04      0.00
    3   17   12     -1.83      0.00
    5   17   12     -5.51      0.00
    7   17   12     -1.02      0.00
    9   17   12      8.38      0.00
   11   17   12      5.39      0.00
   13   17   12      8.53      0.00
   15   17   12    -16.18      0.00
    0   18   12     -4.71      0.00
    2   18   12     -3.91      0.00
    4   18   12      6.75      0.00
    6   18   12      9.37      0.00
    8   18   12     -3.40      0.00
   10   18   12     -1.42      0.00
   12   18   12     12.96      0.00
   14   18   12      0.39      0.00
    1   19   12     -6.62      0.00
    3   19   12     -9.50      0.00
    5   19   12     -5.88      0.00
    7   19   12      5.67      0.00
    9   19   12      3.98      0.00
   11   19   12     -1.68      0.00
   13   19   12      5.23      0.00
    0   20   12      7.29      0.00
    2   20   12     -1.10      0.00
    4   20   12     -1.53      0.00
    6   20   12     12.20      0.00
    8   20   12     -1.03      0.00
   10   20   12      2.78      0.00
   12   20   12      7.68      0.00
    1   21   12     -0.37      0.00
    3   21   12     -0.28      0.00
    5   21   12     11.15      0.00
    7   21   12    -20.04      0.00
    9   21   12     -2.95      0.00
    0   22   12     -0.08      0.00
    2   22   12     -8.42      0.00
    4   22   12     -3.61      0.00
    6   22   12      6.22      0.00
    8   22   12     13.35      0.00
    1   23   12     11.10      0.00
    3   23   12    -15.19      0.00
    0    1   13    -64.19      0.00
    1    2   13     86.82      0.00
    0    3   13    -30.91      0.00
    2    3   13     40.09      0.00
    1    4   13     19.37      0.00
    3    4   13     32.41      0.00
    0    5   13     17.73      0.00
    2    5   13    -10.11      0.00
    4    5   13     15.44      0.00
    1    6   13      4.83      0.00
    3    6   13     21.53      0.00
    5    6   13     -0.09      0.00
    0    7   13      1.73      0.00
    2    7   13     -8.06      0.00
    4    7   13      2.06      0.00
    6    7   13     -0.58      0.00
    1    8   13     -1.78      0.00
    3    8   13    -11.08      0.00
    5    8   13      6.04      0.00
    7    8   13     -0.09      0.00
    0    9   13     -1.11      0.00
    2    9   13     -2.70      0.00
    4    9   13      0.34      0.00
    6    9   13      3.23      0.00
    8    9   13      0.58      0.00
    1   10   13     -4.68      0.00
    3   10   13      3.07      0.00
    5   10   13     -3.17      0.00
    7   10   13     -3.61      0.00
    9   10   13     -6.63      0.00
    0   11   13      1.45      0.00
    2   11   13     -4.49      0.00
    4   11   13      8.11      0.00
    6   11   13     -0.71      0.00
    8   11   13      4.19      0.00
   10   11   13      0.35      0.00
    1   12   13     -0.53      0.00
    3   12   13      1.47      0.00
    5   12   13      1.05      0.00
    7   12   13      4.17      0.00
    9   12   13     -1.75      0.00
   11   12   13      8.08      0.00
    0   13   13     -4.86      0.00
    2   13   13     -5.30      0.00
    4   13   13     -0.76      0.00
    6   13   13      6.23      0.00
    8   13   13      5.31      0.00
   10   13   13     -4.32      0.00
   12   13   13     -2.65      0.00
    1   14   13     -2.07      0.00
    3   14   13     -4.86      0.00
    5   14   13      5.49      0.00
    7   14   13     -0.36      0.00
    9   14   13     -0.21      0.00
   11   14   13     -3.37      0.00
   13   14   13      2.76      0.00
    0   15   13     -4.46      0.00
    2   15   13     -5.64      0.00
    4   15   13     -0.50      0.00
    6   15   13     -6.80      0.00
    8   15   13     -1.53      0.00
   10   15   13     -7.97      0.00
   12   15   13      3.15      0.00
   14   15   13     -6.52      0.00
    1   16   13     -1.65      0.00
    3   16   13     -2.97      0.00
    5   16   13     -3.36      0.00
    7   16   13      3.83      0.00
    9   16   13     -3.34      0.00
   11   16   13     -4.19      0.00
   13   16   13     -7.88      0.00
   15   16   13     -4.06      0.00
    0   17   13      7.73      0.00
    2   17   13      0.00      0.00
    4   17   13      5.61      0.00
    6   17   13      5.48      0.00
    8   17   13      8.10      0.00
   10   17   13     -2.63      0.00
   12   17   13      6.15      0.00
   14   17   13     -0.11      0.00
   16   17   13    -10.32      0.00
    1   18   13     -8.53      0.00
    3   18   13      3.29      0.00
    5   18   13     12.76      0.00
    7   18   13      2.32      0.00
    9   18   13     -1.65      0.00
   11   18   13     -7.74      0.00
   13   18   13     -7.73      0.00
    0   19   13     -4.29      0.00
    2   19   13      7.10      0.00
    4   19   13      0.66      0.00
    6   19   13     -2.43      0.00
    8   19   13     -0.60      0.00
   10   19   13     -1.49      0.00
   12   19   13     -0.72      0.00
    1   20   13      1.59      0.00
    3   20   13     -3.19      0.00
    5   20   13     -0.66      0.00
    7   20   13      4.22      0.00
    9   20   13    -12.78      0.00
   11   20   13     -8.11      0.00
    0   21   13      6.84      0.00
    2   21   13    -12.26      0.00
    4   21   13      5.91      0.00
    6   21   13     19.30      0.00
    8   21   13      3.22      0.00
   10   21   13     -1.23      0.00
    1   22   13      6.87      0.00
    3   22   13      2.16      0.00
    5   22   13      4.86      0.00
    7   22   13      3.21      0.00
    0   23   13      8.75      0.00
    2   23   13    -15.12      0.00
    4   23   13    -21.52      0.00
    1    1   14    -38.00      0.00
    0    2   14    -65.10      0.00
    1    3   14     -6.50      0.00
    3    3   14    -22.13      0.00
    0    4   14    -23.74      0.00
    2    4   14      1.19      0.00
    1    5   14      0.15      0.00
    3    5   14      6.42      0.00
    5    5   14     -6.33      0.00
    0    6   14    -30.59      0.00
    2    6   14     11.17      0.00
    4    6   14     -1.65      0.00
    1    7   14     -1.76      0.00
    3    7   14      2.31      0.00
    5    7   14      1.71      0.00
    7    7   14     14.61      0.00
    0    8   14     -3.64      0.00
    2    8   14     -4.54      0.00
    4    8   14      5.31      0.00
    6    8   14     -4.66      0.00
    1    9   14     -2.73      0.00
    3    9   14      2.73      0.00
    5    9   14      0.62      0.00
    7    9   14     -1.60      0.00
    9    9   14      5.53      0.00
    0   10   14     -8.26      0.00
    2   10   14     -4.35      0.00
    4   10   14     -2.99      0.00
    6   10   14      0.73      0.00
    8   10   14     -3.24      0.00
    1   11   14      5.35      0.00
    3   11   14      9.17      0.00
    5   11   14      4.31      0.00
    7   11   14      0.20      0.00
    9   11   14      8.01      0.00
   11   11   14     -4.96      0.00
    0   12   14    -10.03      0.00
    2   12   14      0.33      0.00
    4   12   14      2.51      0.00
    6   12   14      2.31      0.00
    8   12   14      4.58      0.00
   10   12   14      6.31      0.00
    1   13   14      5.98      0.00
    3   13   14      7.82      0.00
    5   13   14      5.40      0.00
    7   13   14      0.50      0.00
    9   13   14      0.09      0.00
   11   13   14     -2.00      0.00
   13   13   14     -4.30      0.00
    0   14   14     -0.52      0.00
    2   14   14     -1.36      0.00
    4   14   14     -5.03      0.00
    6   14   14      1.86      0.00
    8   14   14      8.58      0.00
   10   14   14     10.77      0.00
   12   14   14     -0.18      0.00
    1   15   14      4.93      0.00
    3   15   14      3.69      0.00
    5   15   14      3.16      0.00
    7   15   14     -1.69      0.00
    9   15   14     -2.52      0.00
   11   15   14     -9.84      0.00
   13   15   14      1.52      0.00
   15   15   14     -8.42      0.00
    0   16   14     -2.84      0.00
    2   16   14     -2.52      0.00
    4   16   14     -7.11      0.00
    6   16   14     -3.99      0.00
    8   16   14      0.16      0.00
   10   16   14     -1.24      0.00
   12   16   14      0.06      0.00
   14   16   14      6.47      0.00
    1   17   14     -3.34      0.00
    3   17   14      4.35      0.00
    5   17   14      2.17      0.00
    7   17   14     -2.15      0.00
    9   17   14     -4.45      0.00
   11   17   14      1.37      0.00
   13   17   14      4.91      0.00
   15   17   14     -7.86      0.00
    0   18   14     -6.87      0.00
    2   18   14     -8.31      0.00
    4   18   14      0.69      0.00
    6   18   14     -2.59      0.00
    8   18   14     12.41      0.00
   10   18   14     -0.01      0.00
   12   18   14     -6.02      0.00
   14   18   14     -9.11      0.00
    1   19   14      7.55      0.00
    3   19   14      2.31      0.00
    5   19   14     -0.98      0.00
    7   19   14      7.10      0.00
    9   19   14     -2.33      0.00
   11   19   14     -1.55      0.00
   13   19   14      0.61      0.00
    0   20   14    -17.16      0.00
    2   20   14      3.01      0.00
    4   20   14     -1.01      0.00
    6   20   14     -5.14      0.00
    8   20   14    -11.56      0.00
   10   20   14      8.36      0.00
   12   20   14      6.85      0.00
    1   21   14     -5.89      0.00
    3   21   14     -0.01      0.00
    5   21   14      8.82      0.00
    7   21   14    -10.38      0.00
    9   21   14     -7.02      0.00
    0   22   14     18.34      0.00
    2   22   14      7.24      0.00
    4   22   14      6.72      0.00
    6   22   14      1.39      0.00
    1   23   14     10.78      0.00
    3   23   14     -8.25      0.00
    0    1   15    -23.64      0.00
    1    2   15     58.01      0.00
    0    3   15     41.76      0.00
    2    3   15    -27.28      0.00
    1    4   15    -28.36      0.00
    3    4   15    -21.40      0.00
    0    5   15    -32.38      0.00
    2    5   15     17.29      0.00
    4    5   15     -3.53      0.00
    1    6   15      5.92      0.00
    3    6   15      0.21      0.00
    5    6   15    -12.31      0.00
    0    7   15     11.98      0.00
    2    7   15      2.82      0.00
    4    7   15      4.62      0.00
    6    7   15     15.89      0.00
    1    8   15      4.07      0.00
    3    8   15     -2.26      0.00
    5    8   15     -0.94      0.00
    7    8   15      1.73      0.00
    0    9   15     -7.24      0.00
    2    9   15     14.10      0.00
    4    9   15     -6.52      0.00
    6    9   15      0.90      0.00
    8    9   15      7.30      0.00
    1   10   15      3.44      0.00
    3   10   15      5.34      0.00
    5   10   15     -4.61      0.00
    7   10   15     -0.41      0.00
    9   10   15     -0.86      0.00
    0   11   15     -1.80      0.00
    2   11   15     -4.39      0.00
    4   11   15      8.56      0.00
    6   11   15     -0.25      0.00
    8   11   15      3.11      0.00
   10   11   15      6.41      0.00
    1   12   15      1.95      0.00
    3   12   15     -1.22      0.00
    5   12   15      0.90      0.00
    7   12   15     -2.29      0.00
    9   12   15      6.22      0.00
   11   12   15      9.62      0.00
    0   13   15     -6.10      0.00
    2   13   15     -1.01      0.00
    4   13   15     -1.78      0.00
    6   13   15     -4.44      0.00
    8   13   15     -2.94      0.00
   10   13   15     -2.87      0.00
   12   13   15     -2.49      0.00
    1   14   15     -1.21      0.00
    3   14   15      2.46      0.00
    5   14   15     -1.25      0.00
    7   14   15      2.21      0.00
    9   14   15      0.97      0.00
   11   14   15      0.04      0.00
   13   14   15     -0.16      0.00
    0   15   15      0.98      0.00
    2   15   15     -2.74      0.00
    4   15   15      2.26      0.00
    6   15   15     -1.39      0.00
    8   15   15     -5.02      0.00
   10   15   15      0.50      0.00
   12   15   15      7.62      0.00
   14   15   15      5.34      0.00
    1   16   15      1.86      0.00
    3   16   15     -0.85      0.00
    5   16   15     -2.29      0.00
    7   16   15      0.69      0.00
    9   16   15     -5.45      0.00
   11   16   15     -1.56      0.00
   13   16   15     -0.28      0.00
   15   16   15      0.40      0.00
    0   17   15      3.16      0.00
    2   17   15      3.55      0.00
    4   17   15     -2.95      0.00
    6   17   15      4.78      0.00
    8   17   15      6.59      0.00
   10   17   15     -1.95      0.00
   12   17   15      2.16      0.00
   14   17   15      1.60      0.00
    1   18   15     -7.87      0.00
    3   18   15      3.56      0.00
    5   18   15      2.72      0.00
    7   18   15     -4.39      0.00
    9   18   15      2.36      0.00
   11   18   15     -0.67      0.00
   13   18   15      1.65      0.00
    0   19   15     -1.01      0.00
    2   19   15      3.97      0.00
    4   19   15      4.85      0.00
    6   19   15      2.73      0.00
    8   19   15     12.06      0.00
   10   19   15      2.08      0.00
   12   19   15     -0.15      0.00
    1   20   15      2.46      0.00
    3   20   15      2.97      0.00
    5   20   15      4.78      0.00
    7   20   15      9.55      0.00
    9   20   15      5.49      0.00
   11   20   15      2.28      0.00
    0   21   15      7.99      0.00
    2   21   15     -0.63      0.00
    4   21   15      9.95      0.00
    6   21   15      4.58      0.00
    8   21   15     -6.44      0.00
   10   21   15      1.26      0.00
    1   22   15      0.63      0.00
    3   22   15     -3.26      0.00
    5   22   15     -5.21      0.00
    7   22   15      4.54      0.00
    0   23   15     -3.24      0.00
    2   23   15      9.50      0.00
    0    0   16    -56.04      0.00
    0    2   16     64.29      0.00
    2    2   16      4.74      0.00
    1    3   16      7.66      0.00
    0    4   16     -0.54      0.00
    2    4   16     -6.56      0.00
    4    4   16    -13.21      0.00
    1    5   16      2.82      0.00
    3    5   16     18.98      0.00
    0    6   16     18.15      0.00
    2    6   16    -14.06      0.00
    4    6   16      8.00      0.00
    6    6   16     -7.07      0.00
    1    7   16     -3.20      0.00
    3    7   16     -3.64      0.00
    5    7   16     14.05      0.00
    0    8   16      6.93      0.00
    2    8   16      6.70      0.00
    4    8   16     -4.08      0.00
    6    8   16     -6.97      0.00
    8    8   16     -4.03      0.00
    1    9   16     -1.45      0.00
    3    9   16     -2.82      0.00
    5    9   16      2.04      0.00
    7    9   16      4.01      0.00
    0   10   16      6.22      0.00
    2   10   16     -2.94      0.00
    4   10   16      3.99      0.00
    6   10   16      0.38      0.00
    8   10   16     -1.28      0.00
   10   10   16      0.19      0.00
    1   11   16     -9.29      0.00
    3   11   16      0.89      0.00
    5   11   16     -3.37      0.00
    7   11   16      4.99      0.00
    9   11   16      4.03      0.00
    0   12   16      7.62      0.00
    2   12   16      5.54      0.00
    4   12   16      4.86      0.00
    6   12   16      1.62      0.00
    8   12   16     -3.75      0.00
   10   12   16     -1.39      0.00
   12   12   16     21.01      0.00
    1   13   16     -1.61      0.00
    3   13   16    -13.17      0.00
    5   13   16      1.99      0.00
    7   13   16     -1.07      0.00
    9   13   16      1.79      0.00
   11   13   16     -0.77      0.00
    0   14   16     -0.42      0.00
    2   14   16      1.36      0.00
    4   14   16      0.43      0.00
    6   14   16     -3.06      0.00
    8   14   16     -1.29      0.00
   10   14   16     -4.70      0.00
   12   14   16     -2.77      0.00
   14   14   16     -3.63      0.00
    1   15   16     -6.32      0.00
    3   15   16     -0.48      0.00
    5   15   16     -7.19      0.00
    7   15   16     -7.94      0.00
    9   15   16     -1.86      0.00
   11   15   16     -6.56      0.00
   13   15   16      0.67      0.00
    0   16   16     -2.16      0.00
    2   16   16     -6.85      0.00
    4   16   16      5.89      0.00
    6   16   16      6.38      0.00
    8   16   16     -5.91      0.00
   10   16   16     -7.99      0.00
   12   16   16      0.44      0.00
   14   16   16     -1.24      0.00
   16   16   16    -11.33      0.00
    1   17   16     -3.05      0.00
    3   17   16      2.62      0.00
    5   17   16      5.30      0.00
    7   17   16      6.48      0.00
    9   17   16    -12.87      0.00
   11   17   16     -4.63      0.00
   13   17   16      3.85      0.00
   15   17   16     -1.50      0.00
    0   18   16      1.48      0.00
    2   18   16      4.50      0.00
    4   18   16      4.72      0.00
    6   18   16      8.47      0.00
    8   18   16      1.70      0.00
   10   18   16      5.78      0.00
   12   18   16     -6.42      0.00
   14   18   16      2.03      0.00
    1   19   16     10.03      0.00
    3   19   16      4.30      0.00
    5   19   16     -1.82      0.00
    7   19   16    -12.41      0.00
    9   19   16      0.23      0.00
   11   19   16     -3.63      0.00
   13   19   16     16.76      0.00
    0   20   16     -1.06      0.00
    2   20   16     -8.33      0.00
    4   20   16     -0.34      0.00
    6   20   16     15.35      0.00
    8   20   16      4.75      0.00
   10   20   16    -11.51      0.00
    1   21   16      0.36      0.00
    3   21   16     -6.97      0.00
    5   21   16      5.71      0.00
    7   21   16     13.85      0.00
    9   21   16     -0.54      0.00
    0   22   16     13.50      0.00
    2   22   16     -9.04      0.00
    4   22   16     -8.35      0.00
    6   22   16     -2.71      0.00
    1   23   16     -5.51      0.00
    3   23   16     -5.31      0.00
    0    1   17    -47.39      0.00
    1    2   17     -3.13      0.00
    0    3   17     -2.20      0.00
    2    3   17      1.08      0.00
    1    4   17      7.71      0.00
    3    4   17     -3.18      0.00
    0    5   17     16.64      0.00
    2    5   17     20.57      0.00
    4    5   17      5.46      0.00
    1    6   17     -8.47      0.00
    3    6   17      2.84      0.00
    5    6   17    -16.51      0.00
    0    7   17     -4.28      0.00
    2    7   17    -15.22      0.00
    4    7   17      6.44      0.00
    6    7   17     -2.41      0.00
    1    8   17     -1.75      0.00
    3    8   17     -0.72      0.00
    5    8   17     -0.46      0.00
    7    8   17     -0.89      0.00
    0    9   17      6.22      0.00
    2    9   17     -2.32      0.00
    4    9   17      1.89      0.00
    6    9   17     -1.15      0.00
    8    9   17     -1.30      0.00
    1   10   17     -2.24      0.00
    3   10   17      4.60      0.00
    5   10   17      1.62      0.00
    7   10   17     -2.53      0.00
    9   10   17      0.58      0.00
    0   11   17     -4.30      0.00
    2   11   17     -8.94      0.00
    4   11   17      4.29      0.00
    6   11   17      4.18      0.00
    8   11   17      9.50      0.00
   10   11   17      5.55      0.00
    1   12   17     -2.42      0.00
    3   12   17     -3.82      0.00
    5   12   17     -0.23      0.00
    7   12   17      0.70      0.00
    9   12   17      4.05      0.00
   11   12   17     -1.33      0.00
    0   13   17     -7.36      0.00
    2   13   17    -10.04      0.00
    4   13   17     -6.06      0.00
    6   13   17     -0.86      0.00
    8   13   17     -2.76      0.00
   10   13   17     -4.23      0.00
   12   13   17      2.33      0.00
    1   14   17     -3.16      0.00
    3   14   17      0.54      0.00
    5   14   17      0.93      0.00
    7   14   17      3.19      0.00
    9   14   17     -1.39      0.00
   11   14   17      9.31      0.00
   13   14   17     -0.37      0.00
    0   15   17      0.32      0.00
    2   15   17    -12.12      0.00
    4   15   17      2.85      0.00
    6   15   17     -5.22      0.00
    8   15   17      3.81      0.00
   10   15   17     -8.14      0.00
   12   15   17      2.25      0.00
   14   15   17     -1.76      0.00
    1   16   17     -3.38      0.00
    3   16   17     -6.24      0.00
    5   16   17     -0.38      0.00
    7   16   17      0.95      0.00
    9   16   17      3.90      0.00
   11   16   17     -0.22      0.00
   13   16   17     -0.86      0.00
   15   16   17     -3.18      0.00
    0   17   17     -2.46      0.00
    2   17   17      3.27      0.00
    4   17   17     -2.19      0.00
    6   17   17     -4.48      0.00
    8   17   17      7.64      0.00
   10   17   17      1.70      0.00
   12   17   17      7.21      0.00
   14   17   17      1.62      0.00
    1   18   17      4.95      0.00
    3   18   17      8.41      0.00
    5   18   17     -7.93      0.00
    7   18   17      4.37      0.00
    9   18   17      6.80      0.00
   11   18   17      0.32      0.00
   13   18   17     -2.56      0.00
    0   19   17      1.72      0.00
    2   19   17     -1.04      0.00
    4   19   17      0.26      0.00
    6   19   17      5.55      0.00
    8   19   17     -3.42      0.00
   10   19   17     -2.99      0.00
   12   19   17      6.32      0.00
    1   20   17     -5.85      0.00
    3   20   17    -14.95      0.00
    5   20   17     11.26      0.00
    7   20   17    -10.75      0.00
    9   20   17     -5.63      0.00
   11   20   17      0.01      0.00
    0   21   17     11.75      0.00
    2   21   17      0.37      0.00
    4   21   17      5.67      0.00
    6   21   17     -2.75      0.00
    8   21   17     -9.41      0.00
    1   22   17      6.79      0.00
    3   22   17      4.78      0.00
    5   22   17     -6.65      0.00
    7   22   17      4.55      0.00
    0   23   17      4.43      0.00
    2   23   17    -18.02      0.00
    1    1   18    -57.10      0.00
    0    2   18     10.77      0.00
    1    3   18     -3.87      0.00
    3    3   18    -14.70      0.00
    0    4   18     -5.02      0.00
    2    4   18     23.94      0.00
    1    5   18     11.73      0.00
    3    5   18      5.50      0.00
    5    5   18     -3.00      0.00
    0    6   18    -25.03      0.00
    2    6   18     -5.12      0.00
    4    6   18     -0.77      0.00
    1    7   18      1.70      0.00
    3    7   18      6.23      0.00
    5    7   18      1.40      0.00
    7    7   18     -8.01      0.00
    0    8   18     -7.71      0.00
    2    8   18      0.06      0.00
    4    8   18    -10.14      0.00
    6    8   18      4.15      0.00
    1    9   18      1.70      0.00
    3    9   18     -0.09      0.00
    5    9   18     -1.23      0.00
    7    9   18      1.44      0.00
    9    9   18     -6.72      0.00
    0   10   18    -10.24      0.00
    2   10   18      4.24      0.00
    4   10   18      0.53      0.00
    6   10   18     -4.06      0.00
    8   10   18      0.20      0.00
    1   11   18      3.35      0.00
    3   11   18      7.96      0.00
    5   11   18      3.35      0.00
    7   11   18     -2.69      0.00
    9   11   18      4.73      0.00
   11   11   18     -2.72      0.00
    0   12   18     -0.02      0.00
    2   12   18     -4.66      0.00
    4   12   18     -6.03      0.00
    6   12   18     -8.71      0.00
    8   12   18      1.59      0.00
   10   12   18      2.66      0.00
    1   13   18     -2.56      0.00
    3   13   18     -2.57      0.00
    5   13   18      1.90      0.00
    7   13   18      3.41      0.00
    9   13   18      1.70      0.00
   11   13   18     -4.78      0.00
   13   13   18      3.61      0.00
    0   14   18     -4.43      0.00
    2   14   18      3.84      0.00
    4   14   18      0.94      0.00
    6   14   18      6.03      0.00
    8   14   18      0.01      0.00
   10   14   18     -1.06      0.00
   12   14   18      5.73      0.00
    1   15   18      4.64      0.00
    3   15   18     -1.61      0.00
    5   15   18      3.41      0.00
    7   15   18     -5.39      0.00
    9   15   18     -4.26      0.00
   11   15   18     -3.52      0.00
   13   15   18      6.96      0.00
   15   15   18     13.39      0.00
    0   16   18      5.01      0.00
    2   16   18     -0.34      0.00
    4   16   18      1.40      0.00
    6   16   18     -3.93      0.00
    8   16   18     -0.47      0.00
   10   16   18     -1.75      0.00
   12   16   18    -12.56      0.00
   14   16   18     -7.97      0.00
    1   17   18      4.49      0.00
    3   17   18     11.40      0.00
    5   17   18     -2.25      0.00
    7   17   18     11.52      0.00
    9   17   18      1.75      0.00
   11   17   18      0.04      0.00
   13   17   18     10.29      0.00
   15   17   18     -2.64      0.00
    0   18   18     -1.38      0.00
    2   18   18     10.97      0.00
    4   18   18      1.33      0.00
    6   18   18     -6.51      0.00
    8   18   18      5.16      0.00
   10   18   18      4.39      0.00
   12   18   18     -1.88      0.00
   14   18   18      6.89      0.00
    1   19   18      4.53      0.00
    3   19   18      2.40      0.00
    5   19   18      6.65      0.00
    7   19   18      8.36      0.00
    9   19   18      5.17      0.00
   11   19   18     -2.13      0.00
   13   19   18      1.60      0.00
    0   20   18      3.09      0.00
    2   20   18      3.30      0.00
    4   20   18     -9.22      0.00
    6   20   18      2.38      0.00
    8   20   18     -0.62      0.00
   10   20   18      0.44      0.00
    1   21   18      3.21      0.00
    3   21   18     -4.08      0.00
    5   21   18      5.76      0.00
    7   21   18     -4.36      0.00
    9   21   18     -9.61      0.00
    0   22   18     -9.23      0.00
    2   22   18      1.01      0.00
    4   22   18      5.03      0.00
    6   22   18     -7.40      0.00
    1   23   18      3.15      0.00
    0    1   19    -51.38      0.00
    1    2   19    -10.95      0.00
    0    3   19     -9.59      0.00
    2    3   19     -1.46      0.00
    1    4   19      0.38      0.00
    3    4   19     -9.36      0.00
    0    5   19     10.20      0.00
    2    5   19     -0.58      0.00
    4    5   19     -4.48      0.00
    1    6   19      8.05      0.00
    3    6   19      7.20      0.00
    5    6   19      5.33      0.00
    0    7   19     -7.28      0.00
    2    7   19      7.95      0.00
    4    7   19      1.63      0.00
    6    7   19     -7.16      0.00
    1    8   19      7.02      0.00
    3    8   19     -2.50      0.00
    5    8   19      0.89      0.00
    7    8   19      4.08      0.00
    0    9   19     -0.93      0.00
    2    9   19      5.03      0.00
    4    9   19     -1.31      0.00
    6    9   19      2.21      0.00
    8    9   19     -6.56      0.00
    1   10   19      1.66      0.00
    3   10   19      4.01      0.00
    5   10   19     -0.74      0.00
    7   10   19     -1.16      0.00
    9   10   19     -0.57      0.00
    0   11   19     -0.92      0.00
    2   11   19      5.25      0.00
    4   11   19      2.54      0.00
    6   11   19     -0.60      0.00
    8   11   19     -2.87      0.00
   10   11   19     -5.10      0.00
    1   12   19     10.13      0.00
    3   12   19      9.01      0.00
    5   12   19      1.64      0.00
    7   12   19     -7.34      0.00
    9   12   19      0.79      0.00
   11   12   19      1.43      0.00
    0   13   19     13.58      0.00
    2   13   19      5.68      0.00
    4   13   19      2.90      0.00
    6   13   19      1.45      0.00
    8   13   19      1.81      0.00
   10   13   19      2.30      0.00
   12   13   19     -2.81      0.00
    1   14   19     -0.05      0.00
    3   14   19      1.03      0.00
    5   14   19     -4.17      0.00
    7   14   19     -0.12      0.00
    9   14   19     -3.73      0.00
   11   14   19     -1.40      0.00
   13   14   19     -3.71      0.00
    0   15   19     -1.34      0.00
    2   15   19     -1.95      0.00
    4   15   19     -2.03      0.00
    6   15   19     -2.90      0.00
    8   15   19      3.35      0.00
   10   15   19     -1.95      0.00
   12   15   19     -3.67      0.00
   14   15   19      2.72      0.00
    1   16   19      0.27      0.00
    3   16   19     -1.74      0.00
    5   16   19      4.79      0.00
    7   16   19     -3.91      0.00
    9   16   19     -4.74      0.00
   11   16   19     -0.49      0.00
   13   16   19      2.04      0.00
   15   16   19      2.84      0.00
    0   17   19      1.72      0.00
    2   17   19     -3.47      0.00
    4   17   19      3.43      0.00
    6   17   19     -6.57      0.00
    8   17   19     -4.58      0.00
   10   17   19      1.85      0.00
   12   17   19      7.56      0.00
   14   17   19      6.86      0.00
    1   18   19      3.19      0.00
    3   18   19      6.86      0.00
    5   18   19     -2.42      0.00
    7   18   19     12.15      0.00
    9   18   19      5.63      0.00
   11   18   19     -1.83      0.00
   13   18   19     -1.92      0.00
    0   19   19      0.97      0.00
    2   19   19      0.06      0.00
    4   19   19    -13.34      0.00
    6   19   19      1.56      0.00
    8   19   19     -0.18      0.00
   10   19   19     -8.70      0.00
   12   19   19     -1.75      0.00
    1   20   19      3.47      0.00
    3   20   19      0.01      0.00
    5   20   19      1.26      0.00
    7   20   19      3.63      0.00
    9   20   19     -4.14      0.00
   11   20   19     -6.04      0.00
    0   21   19     -7.49      0.00
    2   21   19     -0.39      0.00
    4   21   19      5.82      0.00
    6   21   19     -7.42      0.00
    8   21   19      1.46      0.00
    1   22   19      0.49      0.00
    3   22   19     -0.58      0.00
    5   22   19      2.85      0.00
    0    0   20     94.44      0.00
    0    2   20      8.13      0.00
    2    2   20      8.48      0.00
    1    3   20      6.03      0.00
    0    4   20    -18.17      0.00
    2    4   20    -34.35      0.00
    4    4   20    -19.00      0.00
    1    5   20      7.19      0.00
    3    5   20      4.56      0.00
    0    6   20     20.73      0.00
    2    6   20      3.13      0.00
    4    6   20      1.66      0.00
    6    6   20     -5.46      0.00
    1    7   20      1.14      0.00
    3    7   20      6.14      0.00
    5    7   20      4.08      0.00
    0    8   20     20.91      0.00
    2    8   20     -4.55      0.00
    4    8   20     12.04      0.00
    6    8   20      3.02      0.00
    8    8   20      6.17      0.00
    1    9   20      3.91      0.00
    3    9   20     -1.75      0.00
    5    9   20     -2.96      0.00
    7    9   20     -1.82      0.00
    0   10   20     -0.25      0.00
    2   10   20      3.93      0.00
    4   10   20     -1.33      0.00
    6   10   20      5.58      0.00
    8   10   20      3.01      0.00
   10   10   20      2.11      0.00
    1   11   20     -6.63      0.00
    3   11   20     -2.12      0.00
    5   11   20      2.54      0.00
    7   11   20     -0.10      0.00
    9   11   20      3.81      0.00
    0   12   20      3.04      0.00
    2   12   20      5.45      0.00
    4   12   20     -1.11      0.00
    6   12   20     -5.53      0.00
    8   12   20      8.63      0.00
   10   12   20      2.29      0.00
   12   12   20     -3.69      0.00
    1   13   20     -7.78      0.00
    3   13   20     -4.98      0.00
    5   13   20      1.79      0.00
    7   13   20      0.21      0.00
    9   13   20     -5.24      0.00
   11   13   20      0.36      0.00
    0   14   20      5.35      0.00
    2   14   20     -6.82      0.00
    4   14   20      2.10      0.00
    6   14   20      1.59      0.00
    8   14   20     -8.97      0.00
   10   14   20     -1.60      0.00
   12   14   20      8.93      0.00
   14   14   20     -8.35      0.00
    1   15   20     -4.15      0.00
    3   15   20     -6.68      0.00
    5   15   20     -2.78      0.00
    7   15   20     -7.97      0.00
    9   15   20      4.47      0.00
   11   15   20     -3.18      0.00
   13   15   20      2.21      0.00
    0   16   20      1.88      0.00
    2   16   20      2.19      0.00
    4   16   20     -1.46      0.00
    6   16   20      0.45      0.00
    8   16   20      0.56      0.00
   10   16   20      8.43      0.00
   12   16   20      0.96      0.00
   14   16   20      3.12      0.00
   16   16   20     -8.03      0.00
    1   17   20      2.90      0.00
    3   17   20     -2.35      0.00
    5   17   20     -8.38      0.00
    7   17   20     -0.69      0.00
    9   17   20      5.63      0.00
   11   17   20      1.08      0.00
   13   17   20      9.08      0.00
   15   17   20     -3.31      0.00
    0   18   20     -3.45      0.00
    2   18   20     -1.22      0.00
    4   18   20      9.28      0.00
    6   18   20      4.13      0.00
    8   18   20     -9.12      0.00
   10   18   20     -8.47      0.00
   12   18   20      2.57      0.00
   14   18   20      2.43      0.00
    1   19   20     -8.84      0.00
    3   19   20    -16.40      0.00
    5   19   20     -0.97      0.00
    7   19   20     -2.07      0.00
    9   19   20    -12.74      0.00
   11   19   20     -1.99      0.00
    0   20   20     13.89      0.00
    2   20   20      2.71      0.00
    4   20   20     -0.86      0.00
    6   20   20      0.04      0.00
    8   20   20     -7.01      0.00
   10   20   20     -6.64      0.00
    1   21   20     -1.11      0.00
    3   21   20      7.95      0.00
    5   21   20     -5.28      0.00
    7   21   20     -7.40      0.00
    9   21   20     -7.40      0.00
    0   22   20      3.13      0.00
    2   22   20     -2.62      0.00
    4   22   20      1.54      0.00
    6   22   20      0.86      0.00
    0    1   21     34.86      0.00
    1    2   21    -25.79      0.00
    0    3   21     14.11      0.00
    2    3   21      7.08      0.00
    1    4   21     -0.81      0.00
    3    4   21    -10.64      0.00
    0    5   21    -14.84      0.00
    2    5   21      4.29      0.00
    4    5   21     -4.79      0.00
    1    6   21    -11.14      0.00
    3    6   21      3.23      0.00
    5    6   21     -6.26      0.00
    0    7   21      5.12      0.00
    2    7   21     -7.20      0.00
    4    7   21      5.39      0.00
    6    7   21     -5.81      0.00
    1    8   21      1.76      0.00
    3    8   21      4.27      0.00
    5    8   21      1.75      0.00
    7    8   21     -0.96      0.00
    0    9   21     -1.40      0.00
    2    9   21     -1.54      0.00
    4    9   21     -0.74      0.00
    6    9   21      4.57      0.00
    8    9   21     -4.04      0.00
    1   10   21     -7.66      0.00
    3   10   21      0.38      0.00
    5   10   21     -4.77      0.00
    7   10   21      8.97      0.00
    9   10   21      5.52      0.00
    0   11   21      8.37      0.00
    2   11   21     -2.35      0.00
    4   11   21      8.46      0.00
    6   11   21     -1.14      0.00
    8   11   21      5.17      0.00
   10   11   21     -4.16      0.00
    1   12   21     -2.85      0.00
    3   12   21     -7.94      0.00
    5   12   21     -4.83      0.00
    7   12   21      1.98      0.00
    9   12   21      5.68      0.00
   11   12   21      7.06      0.00
    0   13   21      3.82      0.00
    2   13   21     -3.44      0.00
    4   13   21      1.10      0.00
    6   13   21     -1.77      0.00
    8   13   21      1.54      0.00
   10   13   21      4.18      0.00
   12   13   21      9.48      0.00
    1   14   21      2.12      0.00
    3   14   21     -0.83      0.00
    5   14   21     -0.86      0.00
    7   14   21     -0.56      0.00
    9   14   21      0.41      0.00
   11   14   21      7.00      0.00
   13   14   21      1.05      0.00
    0   15   21     12.34      0.00
    2   15   21      2.71      0.00
    4   15   21     -0.72      0.00
    6   15   21      1.84      0.00
    8   15   21      1.68      0.00
   10   15   21     -1.68      0.00
   12   15   21     -3.34      0.00
   14   15   21      1.83      0.00
    1   16   21     -2.76      0.00
    3   16   21      4.60      0.00
    5   16   21     -0.29      0.00
    7   16   21     -1.87      0.00
    9   16   21     -2.68      0.00
   11   16   21      2.00      0.00
   13   16   21      4.84      0.00
   15   16   21      3.65      0.00
    0   17   21      5.93      0.00
    2   17   21      1.73      0.00
    4   17   21     10.46      0.00
    6   17   21      1.55      0.00
    8   17   21      3.04      0.00
   10   17   21    -13.00      0.00
   12   17   21     -8.08      0.00
   14   17   21     -0.79      0.00
    1   18   21      3.10      0.00
    3   18   21      1.37      0.00
    5   18   21      2.82      0.00
    7   18   21     -1.70      0.00
    9   18   21     -0.76      0.00
   11   18   21      1.54      0.00
   13   18   21      1.05      0.00
    0   19   21     -4.57      0.00
    2   19   21     -0.44      0.00
    4   19   21     -7.75      0.00
    6   19   21      4.98      0.00
    8   19   21     -1.48      0.00
   10   19   21     -8.44      0.00
   12   19   21      8.67      0.00
    1   20   21     -0.80      0.00
    3   20   21     -0.82      0.00
    5   20   21     -2.90      0.00
    7   20   21     -3.15      0.00
    9   20   21      2.83      0.00
    0   21   21     -4.81      0.00
    2   21   21    -12.68      0.00
    4   21   21      5.94      0.00
    6   21   21    -12.43      0.00
    8   21   21     -2.41      0.00
    1   22   21     -0.97      0.00
    3   22   21     -2.38      0.00
    5   22   21      2.09      0.00
    0    2   22     15.09      0.00
    1    3   22     -5.10      0.00
    3    3   22     -2.60      0.00
    0    4   22     -4.33      0.00
    2    4   22      1.51      0.00
    1    5   22     -3.12      0.00
    3    5   22     -6.91      0.00
    5    5   22     -2.87      0.00
    0    6   22     -2.11      0.00
    2    6   22      8.39      0.00
    4    6   22     -7.59      0.00
    1    7   22     -6.47      0.00
    3    7   22    -10.52      0.00
    5    7   22     -5.44      0.00
    7    7   22      0.93      0.00
    0    8   22    -16.87      0.00
    2    8   22      0.95      0.00
    4    8   22     -1.97      0.00
    6    8   22     -7.23      0.00
    1    9   22      2.81      0.00
    3    9   22      6.83      0.00
    5    9   22     -2.56      0.00
    7    9   22     -4.54      0.00
    9    9   22     -0.69      0.00
    0   10   22     -2.97      0.00
    2   10   22      1.36      0.00
    4   10   22     -2.18      0.00
    6   10   22      8.48      0.00
    8   10   22     -1.92      0.00
    1   11   22     -0.03      0.00
    3   11   22      2.20      0.00
    5   11   22      1.43      0.00
    7   11   22      2.32      0.00
    9   11   22      0.32      0.00
   11   11   22     -1.27      0.00
    0   12   22      0.45      0.00
    2   12   22      4.90      0.00
    4   12   22     -1.10      0.00
    6   12   22     -6.09      0.00
    8   12   22      3.89      0.00
   10   12   22     -2.59      0.00
    1   13   22      7.37      0.00
    3   13   22     -4.81      0.00
    5   13   22     -1.17      0.00
    7   13   22     -2.12      0.00
    9   13   22     -1.44      0.00
   11   13   22      0.26      0.00
   13   13   22     12.84      0.00
    0   14   22     -5.19      0.00
    2   14   22     -1.60      0.00
    4   14   22     -1.42      0.00
    6   14   22     -0.06      0.00
    8   14   22      1.63      0.00
   10   14   22      2.41      0.00
   12   14   22     -3.90      0.00
    1   15   22     -0.67      0.00
    3   15   22      1.20      0.00
    5   15   22      2.11      0.00
    7   15   22      0.72      0.00
    9   15   22     10.40      0.00
   11   15   22      2.93      0.00
   13   15   22      1.00      0.00
   15   15   22    -11.97      0.00
    0   16   22      0.96      0.00
    2   16   22     -4.46      0.00
    4   16   22     -0.01      0.00
    6   16   22      0.96      0.00
    8   16   22     -0.22      0.00
   10   16   22      7.50      0.00
   12   16   22      3.17      0.00
   14   16   22     -1.34      0.00
    1   17   22      0.29      0.00
    3   17   22      1.74      0.00
    5   17   22     -4.00      0.00
    7   17   22      7.23      0.00
    9   17   22     -3.66      0.00
   11   17   22     -4.42      0.00
   13   17   22     -6.28      0.00
   15   17   22      2.75      0.00
    0   18   22     -7.98      0.00
    2   18   22      3.83      0.00
    4   18   22     -6.54      0.00
    6   18   22      5.59      0.00
    8   18   22      5.37      0.00
   10   18   22     -6.92      0.00
   12   18   22     -7.44      0.00
    1   19   22      9.62      0.00
    3   19   22      6.91      0.00
    5   19   22     -4.91      0.00
    7   19   22     -5.32      0.00
    9   19   22     -3.01      0.00
   11   19   22      0.68      0.00
    0   20   22    -10.53      0.00
    2   20   22      8.76      0.00
    4   20   22     -2.99      0.00
    6   20   22      2.09      0.00
    8   20   22      1.12      0.00
   10   20   22     -1.28      0.00
    1   21   22     -7.72      0.00
    3   21   22     -4.13      0.00
    5   21   22      4.39      0.00
    7   21   22      3.11      0.00
    0   22   22     13.14      0.00
    2   22   22      0.37      0.00
    4   22   22      9.73      0.00
    0    1   23   -139.63      0.00
    1    2   23    -38.91      0.00
    0    3   23     -9.53      0.00
    2    3   23    -13.01      0.00
    1    4   23      7.49      0.00
    3    4   23    -14.26      0.00
    0    5   23      7.77      0.00
    2    5   23      5.38      0.00
    4    5   23     -1.73      0.00
    1    6   23      1.74      0.00
    3    6   23      1.57      0.00
    5    6   23      1.04      0.00
    0    7   23     -9.36      0.00
    2    7   23     -3.89      0.00
    4    7   23     -3.07      0.00
    6    7   23     -3.94      0.00
    1    8   23      4.99      0.00
    3    8   23     -0.95      0.00
    5    8   23      5.68      0.00
    7    8   23     -0.52      0.00
    0    9   23      1.74      0.00
    2    9   23      1.73      0.00
    4    9   23     -1.35      0.00
    6    9   23      1.62      0.00
    8    9   23      1.17      0.00
    1   10   23     -3.81      0.00
    3   10   23      1.64      0.00
    5   10   23     -2.17      0.00
    7   10   23     -1.29      0.00
    9   10   23      1.45      0.00
    0   11   23      3.25      0.00
    2   11   23      7.86      0.00
    4   11   23     -3.20      0.00
    6   11   23     -3.61      0.00
    8   11   23      2.03      0.00
   10   11   23      9.97      0.00
    1   12   23      1.66      0.00
    3   12   23     -3.02      0.00
    5   12   23      0.66      0.00
    7   12   23      1.34      0.00
    9   12   23      4.12      0.00
   11   12   23     -0.98      0.00
    0   13   23      4.17      0.00
    2   13   23     -7.82      0.00
    4   13   23      0.48      0.00
    6   13   23     -0.75      0.00
    8   13   23     -6.74      0.00
   10   13   23      0.87      0.00
   12   13   23      3.99      0.00
    1   14   23      5.07      0.00
    3   14   23      4.63      0.00
    5   14   23      7.18      0.00
    7   14   23     -2.20      0.00
    9   14   23     -1.32      0.00
   11   14   23      9.90      0.00
   13   14   23      7.59      0.00
    0   15   23      4.42      0.00
    2   15   23      3.16      0.00
    4   15   23      5.51      0.00
    6   15   23     -4.54      0.00
    8   15   23     -0.55      0.00
   10   15   23     -0.38      0.00
   12   15   23      2.72      0.00
   14   15   23      4.62      0.00
    1   16   23     -1.05      0.00
    3   16   23     -0.43      0.00
    5   16   23      2.14      0.00
    7   16   23      3.67      0.00
    9   16   23     -3.00      0.00
   11   16   23      3.00      0.00
   13   16   23     -6.52      0.00
   15   16   23      0.01      0.00
    0   17   23      3.86      0.00
    2   17   23      3.23      0.00
    4   17   23      7.44      0.00
    6   17   23     -4.85      0.00
    8   17   23      0.10      0.00
   10   17   23     -0.08      0.00
   12   17   23     -2.17      0.00
   14   17   23      1.00      0.00
    1   18   23    -16.84      0.00
    3   18   23     -7.27      0.00
    5   18   23     -1.49      0.00
    7   18   23      0.05      0.00
    9   18   23     -7.85      0.00
   11   18   23     -4.91      0.00
   13   18   23      6.67      0.00
    0   19   23      8.96      0.00
    2   19   23      1.24      0.00
    4   19   23     -1.54      0.00
    6   19   23     -1.54      0.00
    8   19   23      8.88      0.00
   10   19   23     -5.51      0.00
   12   19   23      2.07      0.00
    1   20   23      1.14      0.00
    3   20   23     13.24      0.00
    5   20   23    -10.99      0.00
    7   20   23     -4.68      0.00
    9   20   23     -1.44      0.00
    0   21   23    -11.78      0.00
    2   21   23      1.63      0.00
    4   21   23     -4.46      0.00
    6   21   23     -0.75      0.00
    8   21   23     -8.98      0.00
    1   22   23      7.12      0.00
    3   22   23     -1.54      0.00
    5   22   23      9.10      0.00
    0    0   24    187.35      0.00
    0    2   24    -40.27      0.00
    2    2   24    -15.53      0.00
    1    3   24     -0.18      0.00
    0    4   24     -2.53      0.00
    2    4   24     -7.82      0.00
    4    4   24      8.94      0.00
    1    5   24      0.85      0.00
    3    5   24     -3.57      0.00
    0    6   24     11.45      0.00
    2    6   24     -4.37      0.00
    4    6   24      3.26      0.00
    6    6   24      8.85      0.00
    1    7   24      2.10      0.00
    3    7   24     11.66      0.00
    5    7   24      0.23      0.00
    0    8   24      7.41      0.00
    2    8   24      2.52      0.00
    4    8   24      6.71      0.00
    6    8   24     -4.12      0.00
    8    8   24      1.95      0.00
    1    9   24     -4.18      0.00
    3    9   24     -2.55      0.00
    5    9   24      1.35      0.00
    7    9   24      8.46      0.00
    0   10   24     -1.51      0.00
    2   10   24     -2.86      0.00
    4   10   24      1.14      0.00
    6   10   24      0.85      0.00
    8   10   24      1.68      0.00
   10   10   24     -4.32      0.00
    1   11   24     11.18      0.00
    3   11   24     -0.50      0.00
    5   11   24      2.28      0.00
    7   11   24     -6.54      0.00
    9   11   24     -2.46      0.00
    0   12   24     -0.24      0.00
    2   12   24      0.29      0.00
    4   12   24      0.31      0.00
    6   12   24     -2.21      0.00
    8   12   24     -1.43      0.00
   10   12   24     12.52      0.00
   12   12   24      5.70      0.00
    1   13   24      5.17      0.00
    3   13   24      5.42      0.00
    5   13   24     -1.10      0.00
    7   13   24     -8.99      0.00
    9   13   24      6.09      0.00
   11   13   24     -2.13      0.00
    0   14   24      4.45      0.00
    2   14   24      4.37      0.00
    4   14   24      2.41      0.00
    6   14   24      7.72      0.00
    8   14   24     -1.50      0.00
   10   14   24      2.61      0.00
   12   14   24      3.04      0.00
   14   14   24      0.71      0.00
    1   15   24     -1.19      0.00
    3   15   24     -3.47      0.00
    5   15   24      6.26      0.00
    7   15   24     -0.63      0.00
    9   15   24      2.58      0.00
   11   15   24     -1.39      0.00
   13   15   24      2.61      0.00
    0   16   24     -1.27      0.00
    2   16   24     -6.25      0.00
    4   16   24      6.96      0.00
    6   16   24     -3.13      0.00
    8   16   24     -1.24      0.00
   10   16   24     -5.95      0.00
   12   16   24     -4.72      0.00
   14   16   24      3.22      0.00
    1   17   24     -0.70      0.00
    3   17   24     -1.23      0.00
    5   17   24      1.51      0.00
    7   17   24      1.84      0.00
    9   17   24     -3.19      0.00
   11   17   24     -6.80      0.00
   13   17   24     -8.39      0.00
    0   18   24     -7.36      0.00
    2   18   24      5.28      0.00
    4   18   24      1.48      0.00
    6   18   24      9.46      0.00
    8   18   24      8.96      0.00
   10   18   24      9.67      0.00
   12   18   24     17.53      0.00
    1   19   24     -8.18      0.00
    3   19   24     -3.81      0.00
    5   19   24      0.04      0.00
    7   19   24      4.56      0.00
    9   19   24      5.64      0.00
   11   19   24     -5.19      0.00
    0   20   24    -13.12      0.00
    2   20   24     -7.27      0.00
    4   20   24     -4.70      0.00
    6   20   24     -2.17      0.00
    8   20   24     -8.24      0.00
   10   20   24      3.76      0.00
    1   21   24      2.25      0.00
    3   21   24     -1.34      0.00
    5   21   24      1.93      0.00
    7   21   24     -4.03      0.00
    0   22   24      7.21      0.00
    2   22   24    -16.02      0.00
    4   22   24      5.82      0.00
    0    1   25     11.38      0.00
    1    2   25     16.05      0.00
    0    3   25     12.69      0.00
    2    3   25     29.48      0.00
    1    4   25     -7.99      0.00
    3    4   25     -9.75      0.00
    0    5   25     -5.96      0.00
    2    5   25    -10.00      0.00
    4    5   25     -5.60      0.00
    1    6   25      9.88      0.00
    3    6   25      3.15      0.00
    5    6   25      2.92      0.00
    0    7   25      3.91      0.00
    2    7   25     13.39      0.00
    4    7   25      5.78      0.00
    6    7   25      6.54      0.00
    1    8   25     -8.06      0.00
    3    8   25      4.09      0.00
    5    8   25     -8.97      0.00
    7    8   25     -0.30      0.00
    0    9   25      3.39      0.00
    2    9   25     -4.17      0.00
    4    9   25      0.08      0.00
    6    9   25     -1.58      0.00
    8    9   25      0.60      0.00
    1   10   25     -4.80      0.00
    3   10   25     -1.93      0.00
    5   10   25     -5.81      0.00
    7   10   25     -0.05      0.00
    9   10   25     -0.66      0.00
    0   11   25     -2.04      0.00
    2   11   25     -3.14      0.00
    4   11   25      1.70      0.00
    6   11   25      2.46      0.00
    8   11   25     -2.55      0.00
   10   11   25     -5.81      0.00
    1   12   25      0.98      0.00
    3   12   25     -3.53      0.00
    5   12   25    -10.05      0.00
    7   12   25     -2.89      0.00
    9   12   25     -2.93      0.00
   11   12   25     -2.06      0.00
    0   13   25      2.25      0.00
    2   13   25      3.09      0.00
    4   13   25      9.20      0.00
    6   13   25      3.56      0.00
    8   13   25      0.01      0.00
   10   13   25      0.40      0.00
   12   13   25     -4.42      0.00
    1   14   25     -6.11      0.00
    3   14   25      2.32      0.00
    5   14   25     -0.69      0.00
    7   14   25     -1.94      0.00
    9   14   25     -3.41      0.00
   11   14   25     -8.56      0.00
   13   14   25     -9.42      0.00
    0   15   25     -2.82      0.00
    2   15   25    -11.74      0.00
    4   15   25     -4.04      0.00
    6   15   25     -1.78      0.00
    8   15   25     -2.02      0.00
   10   15   25      0.48      0.00
   12   15   25      2.73      0.00
   14   15   25     -2.82      0.00
    1   16   25     -1.58      0.00
    3   16   25      1.16      0.00
    5   16   25      0.21      0.00
    7   16   25      0.20      0.00
    9   16   25      2.20      0.00
   11   16   25      0.83      0.00
   13   16   25     -6.99      0.00
   15   16   25      1.16      0.00
    0   17   25     -2.83      0.00
    2   17   25     -5.13      0.00
    4   17   25     -1.72      0.00
    6   17   25     -5.20      0.00
    8   17   25      6.00      0.00
   10   17   25      1.07      0.00
   12   17   25     -3.78      0.00
   14   17   25      0.86      0.00
    1   18   25     -5.67      0.00
    3   18   25     -1.22      0.00
    5   18   25      2.63      0.00
    7   18   25      9.47      0.00
    9   18   25      6.13      0.00
   11   18   25      4.21      0.00
   13   18   25      7.63      0.00
    0   19   25      3.27      0.00
    2   19   25      8.31      0.00
    4   19   25      1.25      0.00
    6   19   25     -7.09      0.00
    8   19   25      4.83      0.00
   10   19   25     -2.43      0.00
    1   20   25     -5.07      0.00
    3   20   25     -1.99      0.00
    5   20   25      1.15      0.00
    7   20   25      3.94      0.00
    9   20   25     -2.48      0.00
    0   21   25      0.37      0.00
    2   21   25     -5.82      0.00
    4   21   25      7.64      0.00
    6   21   25     10.37      0.00
    1   22   25      0.62      0.00
    3   22   25     -4.31      0.00
    1    1   26    -38.39      0.00
    0    2   26     10.55      0.00
    1    3   26      9.03      0.00
    3    3   26     11.57      0.00
    0    4   26      0.67      0.00
    2    4   26     -0.79      0.00
    1    5   26     -4.89      0.00
    3    5   26     -8.07      0.00
    5    5   26     -3.02      0.00
    0    6   26      5.15      0.00
    2    6   26     11.38      0.00
    4    6   26      0.65      0.00
    1    7   26     -5.27      0.00
    3    7   26     -2.37      0.00
    5    7   26     -2.25      0.00
    7    7   26     -6.09      0.00
    0    8   26     -3.26      0.00
    2    8   26     -2.37      0.00
    4    8   26     -0.38      0.00
    6    8   26     -2.65      0.00
    1    9   26      3.01      0.00
    3    9   26      1.13      0.00
    5    9   26      1.08      0.00
    7    9   26      0.14      0.00
    9    9   26     -6.04      0.00
    0   10   26    -11.12      0.00
    2   10   26     -1.18      0.00
    4   10   26     -9.86      0.00
    6   10   26     -5.29      0.00
    8   10   26     -0.66      0.00
    1   11   26     -1.26      0.00
    3   11   26      0.61      0.00
    5   11   26      2.85      0.00
    7   11   26      2.46      0.00
    9   11   26      3.66      0.00
   11   11   26     -2.48      0.00
    0   12   26     -4.30      0.00
    2   12   26     -2.33      0.00
    4   12   26    -10.11      0.00
    6   12   26      5.43      0.00
    8   12   26     -3.08      0.00
   10   12   26     -5.99      0.00
    1   13   26      1.22      0.00
    3   13   26      0.04      0.00
    5   13   26     -2.08      0.00
    7   13   26     -2.77      0.00
    9   13   26     -0.64      0.00
   11   13   26      6.58      0.00
   13   13   26      0.25      0.00
    0   14   26     -3.41      0.00
    2   14   26      1.69      0.00
    4   14   26      5.66      0.00
    6   14   26     -8.94      0.00
    8   14   26     -6.15      0.00
   10   14   26     -2.49      0.00
   12   14   26     -4.94      0.00
    1   15   26      2.48      0.00
    3   15   26     -0.41      0.00
    5   15   26     -0.93      0.00
    7   15   26      8.60      0.00
    9   15   26     -4.10      0.00
   11   15   26     -8.54      0.00
   13   15   26     -2.11      0.00
   15   15   26      1.43      0.00
    0   16   26      2.64      0.00
    2   16   26      1.18      0.00
    4   16   26      3.26      0.00
    6   16   26      2.75      0.00
    8   16   26      3.53      0.00
   10   16   26     -1.76      0.00
   12   16   26      6.71      0.00
   14   16   26      6.59      0.00
    1   17   26      2.50      0.00
    3   17   26      2.65      0.00
    5   17   26     -2.56      0.00
    7   17   26     -7.87      0.00
    9   17   26      7.09      0.00
   11   17   26     -1.00      0.00
   13   17   26      5.90      0.00
    0   18   26     -9.52      0.00
    2   18   26     -2.37      0.00
    4   18   26     -4.62      0.00
    6   18   26      2.36      0.00
    8   18   26     -5.06      0.00
   10   18   26     -3.59      0.00
   12   18   26     -1.37      0.00
    1   19   26     -0.86      0.00
    3   19   26      3.05      0.00
    5   19   26     -4.94      0.00
    7   19   26     -1.00      0.00
    9   19   26     -8.66      0.00
   11   19   26      4.95      0.00
    0   20   26    -12.37      0.00
    2   20   26      8.23      0.00
    4   20   26     -1.46      0.00
    6   20   26     -4.34      0.00
    8   20   26     -3.77      0.00
    1   21   26     -0.07      0.00
    3   21   26     -6.96      0.00
    5   21   26      7.66      0.00
    7   21   26      0.93      0.00
    0   22   26     15.84      0.00
    2   22   26      1.47      0.00
    0    1   27    -10.67      0.00
    1    2   27      1.62      0.00
    0    3   27    -12.56      0.00
    2    3   27      3.79      0.00
    1    4   27      2.06      0.00
    3    4   27      0.18      0.00
    0    5   27     -0.22      0.00
    2    5   27     -1.42      0.00
    4    5   27     -2.92      0.00
    1    6   27     -2.72      0.00
    3    6   27     -1.51      0.00
    5    6   27      4.16      0.00
    0    7   27     -2.53      0.00
    2    7   27     -4.22      0.00
    4    7   27     -7.10      0.00
    6    7   27     -5.18      0.00
    1    8   27     -2.23      0.00
    3    8   27     -4.53      0.00
    5    8   27     -4.30      0.00
    7    8   27     -2.69      0.00
    0    9   27      1.51      0.00
    2    9   27      3.88      0.00
    4    9   27     -1.09      0.00
    6    9   27     -2.12      0.00
    8    9   27      0.62      0.00
    1   10   27      6.53      0.00
    3   10   27      1.95      0.00
    5   10   27      7.42      0.00
    7   10   27     -6.15      0.00
    9   10   27      0.16      0.00
    0   11   27      9.24      0.00
    2   11   27     -0.47      0.00
    4   11   27      6.29      0.00
    6   11   27      6.52      0.00
    8   11   27     -1.20      0.00
   10   11   27      5.54      0.00
    1   12   27     -2.12      0.00
    3   12   27      7.12      0.00
    5   12   27      0.46      0.00
    7   12   27     -6.84      0.00
    9   12   27      2.93      0.00
   11   12   27     -8.66      0.00
    0   13   27      2.89      0.00
    2   13   27      1.52      0.00
    4   13   27     -1.45      0.00
    6   13   27     -8.44      0.00
    8   13   27     -3.75      0.00
   10   13   27     -3.54      0.00
   12   13   27     -0.03      0.00
    1   14   27      1.64      0.00
    3   14   27     -3.62      0.00
    5   14   27     -0.96      0.00
    7   14   27     -2.97      0.00
    9   14   27     -4.74      0.00
   11   14   27      2.26      0.00
   13   14   27     -6.90      0.00
    0   15   27      5.29      0.00
    2   15   27     -1.05      0.00
    4   15   27     -2.12      0.00
    6   15   27      1.87      0.00
    8   15   27      9.38      0.00
   10   15   27      1.69      0.00
   12   15   27    -10.15      0.00
   14   15   27    -10.15      0.00
    1   16   27      0.04      0.00
    3   16   27      6.38      0.00
    5   16   27     -2.36      0.00
    7   16   27      1.48      0.00
    9   16   27      1.53      0.00
   11   16   27      2.32      0.00
   13   16   27      3.93      0.00
   15   16   27      0.62      0.00
    0   17   27      7.83      0.00
    2   17   27     -4.98      0.00
    4   17   27      1.94      0.00
    6   17   27      1.21      0.00
    8   17   27      8.57      0.00
   10   17   27      5.71      0.00
   12   17   27     -2.15      0.00
   14   17   27     -1.62      0.00
    1   18   27      7.15      0.00
    3   18   27     13.20      0.00
    5   18   27      0.32      0.00
    7   18   27      4.67      0.00
    9   18   27     -1.94      0.00
   11   18   27      4.74      0.00
    0   19   27     -2.83      0.00
    2   19   27      0.83      0.00
    4   19   27      1.02      0.00
    6   19   27     -7.38      0.00
    8   19   27    -12.46      0.00
   10   19   27    -12.46      0.00
    1   20   27      5.98      0.00
    3   20   27      6.66      0.00
    5   20   27      5.63      0.00
    7   20   27     -7.39      0.00
    9   20   27    -10.64      0.00
    0   21   27     10.38      0.00
    2   21   27     -4.09      0.00
    4   21   27      4.19      0.00
    6   21   27      1.12      0.00
    1   22   27     -1.49      0.00
    0    0   28     63.89      0.00
    0    2   28    -24.06      0.00
    2    2   28    -25.54      0.00
    1    3   28     -1.29      0.00
    0    4   28      5.39      0.00
    2    4   28      2.91      0.00
    4    4   28      0.54      0.00
    1    5   28      5.93      0.00
    3    5   28      2.58      0.00
    0    6   28      5.04      0.00
    2    6   28     -7.04      0.00
    4    6   28      3.78      0.00
    6    6   28      7.12      0.00
    1    7   28      2.70      0.00
    3    7   28      2.57      0.00
    5    7   28      0.90      0.00
    0    8   28    -12.64      0.00
    2    8   28     -9.44      0.00
    4    8   28     -1.99      0.00
    6    8   28     -3.55      0.00
    8    8   28      0.23      0.00
    1    9   28      4.82      0.00
    3    9   28      5.10      0.00
    5    9   28     -3.58      0.00
    7    9   28      4.16      0.00
    0   10   28      5.21      0.00
    2   10   28      3.26      0.00
    4   10   28      3.31      0.00
    6   10   28     -0.99      0.00
    8   10   28     -1.37      0.00
   10   10   28      0.57      0.00
    1   11   28      2.96      0.00
    3   11   28     -0.15      0.00
    5   11   28      5.67      0.00
    7   11   28      0.14      0.00
    9   11   28      4.00      0.00
    0   12   28      1.51      0.00
    2   12   28      2.98      0.00
    4   12   28      1.18      0.00
    6   12   28     -1.06      0.00
    8   12   28     -7.84      0.00
   10   12   28      0.60      0.00
   12   12   28     -3.01      0.00
    1   13   28      1.36      0.00
    3   13   28      7.67      0.00
    5   13   28      6.78      0.00
    7   13   28     -4.46      0.00
    9   13   28      0.87      0.00
   11   13   28    -12.24      0.00
    0   14   28     -0.91      0.00
    2   14   28     -0.76      0.00
    4   14   28     -3.07      0.00
    6   14   28    -10.94      0.00
    8   14   28     -3.17      0.00
   10   14   28     -1.26      0.00
   12   14   28     -8.02      0.00
   14   14   28      9.19      0.00
    1   15   28      1.47      0.00
    3   15   28     -1.13      0.00
    5   15   28      4.57      0.00
    7   15   28     -4.64      0.00
    9   15   28      4.77      0.00
   11   15   28      1.89      0.00
   13   15   28      5.52      0.00
    0   16   28     -2.63      0.00
    2   16   28      1.94      0.00
    4   16   28      0.60      0.00
    6   16   28     -6.51      0.00
    8   16   28     -2.37      0.00
   10   16   28      1.47      0.00
   12   16   28     13.89      0.00
   14   16   28    -10.61      0.00
    1   17   28      4.85      0.00
    3   17   28      3.32      0.00
    5   17   28     -6.45      0.00
    7   17   28      1.56      0.00
    9   17   28      2.54      0.00
   11   17   28      2.87      0.00
   13   17   28     -7.45      0.00
    0   18   28    -13.03      0.00
    2   18   28     -0.45      0.00
    4   18   28     -7.40      0.00
    6   18   28      3.76      0.00
    8   18   28     -2.17      0.00
   10   18   28      8.09      0.00
   12   18   28      5.23      0.00
    1   19   28      1.91      0.00
    3   19   28     -0.09      0.00
    5   19   28      7.65      0.00
    7   19   28     -2.31      0.00
    9   19   28     -2.03      0.00
   11   19   28     -1.68      0.00
    0   20   28      4.16      0.00
    2   20   28      2.95      0.00
    4   20   28     10.44      0.00
    6   20   28      5.71      0.00
    8   20   28      2.19      0.00
    1   21   28     -2.40      0.00
    3   21   28     -5.29      0.00
    5   21   28      0.87      0.00
    0   22   28      7.39      0.00
    0    1   29     16.62      0.00
    1    2   29     -3.46      0.00
    0    3   29     -6.74      0.00
    2    3   29     -0.36      0.00
    1    4   29     -4.34      0.00
    3    4   29      1.98      0.00
    0    5   29     -0.02      0.00
    2    5   29      6.54      0.00
    4    5   29      4.77      0.00
    1    6   29      2.77      0.00
    3    6   29      5.38      0.00
    5    6   29      0.41      0.00
    0    7   29     -0.13      0.00
    2    7   29      6.05      0.00
    4    7   29      1.96      0.00
    6    7   29     10.91      0.00
    1    8   29     -2.54      0.00
    3    8   29     -0.23      0.00
    5    8   29      1.44      0.00
    7    8   29     -0.83      0.00
    0    9   29      0.00      0.00
    2    9   29      1.31      0.00
    4    9   29      2.45      0.00
    6    9   29     -3.85      0.00
    8    9   29     -0.75      0.00
    1   10   29     -9.70      0.00
    3   10   29      0.14      0.00
    5   10   29     -3.94      0.00
    7   10   29     11.51      0.00
    9   10   29      4.05      0.00
    0   11   29     -4.90      0.00
    2   11   29     -0.72      0.00
    4   11   29    -10.37      0.00
    6   11   29     -0.83      0.00
    8   11   29     -6.80      0.00
   10   11   29     -1.78      0.00
    1   12   29     -2.19      0.00
    3   12   29     -2.50      0.00
    5   12   29     -4.85      0.00
    7   12   29      0.31      0.00
    9   12   29     -3.12      0.00
   11   12   29      6.34      0.00
    0   13   29      1.15      0.00
    2   13   29     -2.80      0.00
    4   13   29      4.19      0.00
    6   13   29    -10.06      0.00
    8   13   29     -1.03      0.00
   10   13   29      2.72      0.00
   12   13   29     -0.96      0.00
    1   14   29     -2.10      0.00
    3   14   29     -6.62      0.00
    5   14   29     -4.73      0.00
    7   14   29     -1.05      0.00
    9   14   29     -2.47      0.00
   11   14   29    -11.15      0.00
   13   14   29     -6.01      0.00
    0   15   29      0.72      0.00
    2   15   29      0.91      0.00
    4   15   29      2.51      0.00
    6   15   29      2.67      0.00
    8   15   29      6.59      0.00
   10   15   29     -6.41      0.00
   12   15   29      9.87      0.00
   14   15   29      6.22      0.00
    1   16   29     -2.67      0.00
    3   16   29     -0.38      0.00
    5   16   29     -0.69      0.00
    7   16   29     -7.73      0.00
    9   16   29      5.60      0.00
   11   16   29      4.27      0.00
   13   16   29     19.66      0.00
    0   17   29      3.72      0.00
    2   17   29     -7.27      0.00
    4   17   29     -2.74      0.00
    6   17   29    -10.36      0.00
    8   17   29    -10.40      0.00
   10   17   29      1.36      0.00
   12   17   29     -7.19      0.00
    1   18   29     -5.58      0.00
    3   18   29      9.36      0.00
    5   18   29      3.32      0.00
    7   18   29      4.83      0.00
    9   18   29     -7.47      0.00
   11   18   29      4.88      0.00
    0   19   29    -13.98      0.00
    2   19   29     -8.31      0.00
    4   19   29      0.32      0.00
    6   19   29      1.74      0.00
    8   19   29     13.20      0.00
   10   19   29      3.76      0.00
    1   20   29     -3.93      0.00
    3   20   29     -2.09      0.00
    5   20   29      3.16      0.00
    7   20   29      0.00      0.00
    0   21   29      5.71      0.00
    2   21   29     -5.57      0.00
    4   21   29     -4.50      0.00
    6   21   29      8.59      0.00
    1    1   30      3.42      0.00
    0    2   30      4.07      0.00
    1    3   30      9.27      0.00
    3    3   30      5.88      0.00
    0    4   30      0.94      0.00
    2    4   30      7.88      0.00
    1    5   30     -7.84      0.00
    3    5   30     -5.91      0.00
    5    5   30      2.82      0.00
    0    6   30      5.18      0.00
    2    6   30     -2.37      0.00
    4    6   30     -0.78      0.00
    1    7   30      4.96      0.00
    3    7   30      4.91      0.00
    5    7   30      3.72      0.00
    7    7   30      0.18      0.00
    0    8   30      3.93      0.00
    2    8   30      8.96      0.00
    4    8   30      3.25      0.00
    6    8   30      2.64      0.00
    1    9   30     -0.72      0.00
    3    9   30     -3.30      0.00
    5    9   30     -3.72      0.00
    7    9   30      0.83      0.00
    9    9   30     -1.45      0.00
    0   10   30     -2.44      0.00
    2   10   30     -4.79      0.00
    4   10   30     -2.45      0.00
    6   10   30      7.79      0.00
    8   10   30      0.29      0.00
    1   11   30     -2.65      0.00
    3   11   30     -2.69      0.00
    5   11   30      1.22      0.00
    7   11   30     -2.77      0.00
    9   11   30     -3.77      0.00
   11   11   30     -9.59      0.00
    0   12   30     -2.96      0.00
    2   12   30      0.53      0.00
    4   12   30     -0.81      0.00
    6   12   30     -6.46      0.00
    8   12   30     -2.25      0.00
   10   12   30     -0.49      0.00
    1   13   30     -2.20      0.00
    3   13   30     -0.74      0.00
    5   13   30     -8.10      0.00
    7   13   30      2.75      0.00
    9   13   30     -0.73      0.00
   11   13   30      2.55      0.00
   13   13   30     -5.70      0.00
    0   14   30      2.47      0.00
    2   14   30      0.73      0.00
    4   14   30     -6.22      0.00
    6   14   30      0.81      0.00
    8   14   30     -0.15      0.00
   10   14   30     -1.13      0.00
   12   14   30    -13.98      0.00
    1   15   30      6.41      0.00
    3   15   30     -4.17      0.00
    5   15   30      1.70      0.00
    7   15   30      1.23      0.00
    9   15   30      1.56      0.00
   11   15   30     -2.04      0.00
   13   15   30      1.54      0.00
   15   15   30     -6.83      0.00
    0   16   30      2.17      0.00
    2   16   30     -2.62      0.00
    4   16   30      2.34      0.00
    6   16   30     -8.77      0.00
    8   16   30     -2.06      0.00
   10   16   30    -10.26      0.00
   12   16   30      0.87      0.00
   14   16   30      1.22      0.00
    1   17   30      1.02      0.00
    3   17   30     -0.23      0.00
    5   17   30     -3.31      0.00
    7   17   30      6.46      0.00
    9   17   30      0.32      0.00
   11   17   30      2.13      0.00
   13   17   30     -9.53      0.00
    0   18   30     -8.85      0.00
    2   18   30      4.91      0.00
    4   18   30      5.02      0.00
    6   18   30     -0.73      0.00
    8   18   30     -4.91      0.00
   10   18   30     -7.94      0.00
   12   18   30      1.21      0.00
    1   19   30     -4.97      0.00
    3   19   30     -8.93      0.00
    5   19   30     11.04      0.00
    7   19   30      0.34      0.00
    9   19   30      5.12      0.00
    0   20   30     12.80      0.00
    2   20   30      9.74      0.00
    4   20   30      5.65      0.00
    6   20   30     -1.41      0.00
    8   20   30     -4.36      0.00
    1   21   30     -2.29      0.00
    3   21   30     -4.28      0.00
    5   21   30     -7.85      0.00
    0    1   31      4.34      0.00
    1    2   31     -6.46      0.00
    0    3   31      7.33      0.00
    2    3   31     13.48      0.00
    1    4   31      3.44      0.00
    3    4   31      0.77      0.00
    0    5   31    -11.49      0.00
    2    5   31    -11.53      0.00
    4    5   31     -6.79      0.00
    1    6   31      0.36      0.00
    3    6   31     -4.98      0.00
    5    6   31     -1.43      0.00
    0    7   31      8.28      0.00
    2    7   31      7.19      0.00
    4    7   31     -1.65      0.00
    6    7   31      3.55      0.00
    1    8   31     -1.65      0.00
    3    8   31      1.32      0.00
    5    8   31     -0.83      0.00
    7    8   31     -1.92      0.00
    0    9   31      5.15      0.00
    2    9   31      0.83      0.00
    4    9   31      2.45      0.00
    6    9   31     -1.06      0.00
    8    9   31     -0.38      0.00
    1   10   31      5.81      0.00
    3   10   31      5.49      0.00
    5   10   31      6.10      0.00
    7   10   31     -1.11      0.00
    9   10   31      3.66      0.00
    0   11   31      0.44      0.00
    2   11   31     -0.54      0.00
    4   11   31      3.36      0.00
    6   11   31      1.89      0.00
    8   11   31     -3.63      0.00
   10   11   31     -1.30      0.00
    1   12   31      3.52      0.00
    3   12   31      5.37      0.00
    5   12   31      7.51      0.00
    7   12   31     -2.29      0.00
    9   12   31     -4.34      0.00
   11   12   31     -9.12      0.00
    0   13   31      0.39      0.00
    2   13   31      0.08      0.00
    4   13   31     -2.42      0.00
    6   13   31     -1.78      0.00
    8   13   31      0.93      0.00
   10   13   31     -4.33      0.00
   12   13   31    -11.08      0.00
    1   14   31     -0.98      0.00
    3   14   31     10.11      0.00
    5   14   31     -3.47      0.00
    7   14   31     -7.97      0.00
    9   14   31      2.42      0.00
   11   14   31     -1.45      0.00
   13   14   31     -5.70      0.00
    0   15   31     -3.35      0.00
    2   15   31      0.25      0.00
    4   15   31     -3.17      0.00
    6   15   31      0.91      0.00
    8   15   31     -3.08      0.00
   10   15   31      7.15      0.00
   12   15   31      2.49      0.00
   14   15   31     -3.40      0.00
    1   16   31      3.27      0.00
    3   16   31     -0.59      0.00
    5   16   31     -2.22      0.00
    7   16   31      0.73      0.00
    9   16   31     -7.73      0.00
   11   16   31     -0.94      0.00
   13   16   31     -7.30      0.00
    0   17   31     11.13      0.00
    2   17   31      4.38      0.00
    4   17   31      3.99      0.00
    6   17   31      0.38      0.00
    8   17   31      4.64      0.00
   10   17   31     -0.26      0.00
   12   17   31     -6.88      0.00
    1   18   31    -13.59      0.00
    3   18   31     -3.35      0.00
    5   18   31      3.72      0.00
    7   18   31      0.78      0.00
    9   18   31     -2.00      0.00
   11   18   31      0.59      0.00
    0   19   31     -4.04      0.00
    2   19   31    -14.17      0.00
    4   19   31      6.79      0.00
    6   19   31     -5.41      0.00
    8   19   31     -0.12      0.00
   10   19   31     -5.92      0.00
    1   20   31     -6.75      0.00
    3   20   31      8.22      0.00
    5   20   31     -6.68      0.00
    7   20   31     -1.78      0.00
    0   21   31     -6.86      0.00
    2   21   31     -6.19      0.00
    4   21   31    -11.54      0.00
    0    0   32    -29.36      0.00
    0    2   32     18.37      0.00
    2    2   32      1.77      0.00
    1    3   32     -6.04      0.00
    0    4   32      3.28      0.00
    2    4   32     -0.29      0.00
    4    4   32      2.58      0.00
    1    5   32     -1.33      0.00
    3    5   32     -1.90      0.00
    0    6   32     -0.85      0.00
    2    6   32      0.19      0.00
    4    6   32      5.64      0.00
    6    6   32      1.10      0.00
    1    7   32     -2.70      0.00
    3    7   32      1.02      0.00
    5    7   32     -0.34      0.00
    0    8   32      0.05      0.00
    2    8   32     -3.50      0.00
    4    8   32     -5.92      0.00
    6    8   32     -4.19      0.00
    8    8   32     -6.86      0.00
    1    9   32      2.43      0.00
    3    9   32     -1.74      0.00
    5    9   32     -2.25      0.00
    7    9   32      2.26      0.00
    0   10   32      4.34      0.00
    2   10   32      0.83      0.00
    4   10   32      4.05      0.00
    6   10   32      1.06      0.00
    8   10   32     -4.39      0.00
   10   10   32      1.04      0.00
    1   11   32     -1.78      0.00
    3   11   32      3.82      0.00
    5   11   32      2.16      0.00
    7   11   32    -10.24      0.00
    9   11   32      0.04      0.00
    0   12   32     -6.17      0.00
    2   12   32      0.20      0.00
    4   12   32      6.84      0.00
    6   12   32      2.60      0.00
    8   12   32      2.00      0.00
   10   12   32     -1.51      0.00
   12   12   32     -1.45      0.00
    1   13   32     -0.86      0.00
    3   13   32     -5.18      0.00
    5   13   32     -3.18      0.00
    7   13   32     -6.30      0.00
    9   13   32      1.69      0.00
   11   13   32     -2.99      0.00
    0   14   32     -4.80      0.00
    2   14   32     -0.58      0.00
    4   14   32      7.58      0.00
    6   14   32     -2.74      0.00
    8   14   32     -0.73      0.00
   10   14   32     -3.49      0.00
   12   14   32     -5.17      0.00
   14   14   32     -3.74      0.00
    1   15   32     -6.36      0.00
    3   15   32      1.91      0.00
    5   15   32     -9.71      0.00
    7   15   32      1.89      0.00
    9   15   32     -1.06      0.00
   11   15   32     -3.51      0.00
   13   15   32      4.17      0.00
    0   16   32     -8.10      0.00
    2   16   32      2.41      0.00
    4   16   32     -6.17      0.00
    6   16   32      7.44      0.00
    8   16   32      1.53      0.00
   10   16   32      5.54      0.00
   12   16   32      0.22      0.00
   14   16   32     -4.06      0.00
    1   17   32    -15.96      0.00
    3   17   32     -4.04      0.00
    5   17   32     -3.41      0.00
    7   17   32     -3.15      0.00
    9   17   32      2.81      0.00
   11   17   32     10.34      0.00
   13   17   32     -7.45      0.00
    0   18   32     -6.42      0.00
    2   18   32     -1.65      0.00
    4   18   32      1.97      0.00
    6   18   32      0.72      0.00
    8   18   32      8.68      0.00
   10   18   32     -2.43      0.00
    1   19   32      1.93      0.00
    3   19   32    -12.14      0.00
    5   19   32      4.58      0.00
    7   19   32     -1.58      0.00
    9   19   32      2.20      0.00
    0   20   32     -4.56      0.00
    2   20   32      9.43      0.00
    4   20   32     -0.87      0.00
    6   20   32      0.22      0.00
    1   21   32     -1.03      0.00
    3   21   32      6.16      0.00
    0    1   33      8.21      0.00
    1    2   33     -1.18      0.00
    0    3   33    -18.93      0.00
    2    3   33    -11.42      0.00
    1    4   33      9.15      0.00
    3    4   33      7.30      0.00
    0    5   33      5.62      0.00
    2    5   33      9.52      0.00
    4    5   33      0.64      0.00
    1    6   33      2.75      0.00
    3    6   33      8.64      0.00
    5    6   33      3.64      0.00
    0    7   33     -5.24      0.00
    2    7   33     -2.88      0.00
    4    7   33      0.85      0.00
    6    7   33     -0.28      0.00
    1    8   33      3.51      0.00
    3    8   33      2.12      0.00
    5    8   33     -2.55      0.00
    7    8   33      4.43      0.00
    0    9   33     -6.12      0.00
    2    9   33      3.79      0.00
    4    9   33     -3.64      0.00
    6    9   33      3.42      0.00
    8    9   33     -3.63      0.00
    1   10   33     -1.33      0.00
    3   10   33     -1.94      0.00
    5   10   33     -2.28      0.00
    7   10   33      1.48      0.00
    9   10   33     -7.28      0.00
    0   11   33      6.86      0.00
    2   11   33      1.08      0.00
    4   11   33      2.83      0.00
    6   11   33      0.85      0.00
    8   11   33      0.17      0.00
   10   11   33     -1.17      0.00
    1   12   33     -5.32      0.00
    3   12   33     -6.80      0.00
    5   12   33      3.00      0.00
    7   12   33      4.27      0.00
    9   12   33     -3.53      0.00
   11   12   33     -6.22      0.00
    0   13   33     -6.26      0.00
    2   13   33     -4.24      0.00
    4   13   33      1.90      0.00
    6   13   33     -5.68      0.00
    8   13   33      1.34      0.00
   10   13   33     -1.62      0.00
   12   13   33     -2.94      0.00
    1   14   33      0.21      0.00
    3   14   33      1.41      0.00
    5   14   33     -0.40      0.00
    7   14   33     -7.89      0.00
    9   14   33     -0.64      0.00
   11   14   33     -6.93      0.00
   13   14   33     -4.01      0.00
    0   15   33     -6.11      0.00
    2   15   33     -4.66      0.00
    4   15   33     -3.52      0.00
    6   15   33      3.08      0.00
    8   15   33      6.74      0.00
   10   15   33     -4.93      0.00
   12   15   33     -2.00      0.00
   14   15   33      5.42      0.00
    1   16   33     -1.85      0.00
    3   16   33     -6.65      0.00
    5   16   33     -2.68      0.00
    7   16   33      6.17      0.00
    9   16   33     -3.17      0.00
   11   16   33    -14.34      0.00
   13   16   33      1.41      0.00
    0   17   33    -11.18      0.00
    2   17   33     -9.17      0.00
    4   17   33     -3.92      0.00
    6   17   33      1.98      0.00
    8   17   33     10.69      0.00
   10   17   33     -0.45      0.00
   12   17   33      9.77      0.00
    1   18   33    -10.32      0.00
    3   18   33     -5.57      0.00
    5   18   33     -6.52      0.00
    7   18   33     -3.34      0.00
    9   18   33      1.57      0.00
   11   18   33      1.37      0.00
    0   19   33      7.51      0.00
    2   19   33     -7.81      0.00
    4   19   33      4.89      0.00
    6   19   33      1.81      0.00
    8   19   33      1.92      0.00
    1   20   33     14.37      0.00
    3   20   33      7.80      0.00
    5   20   33      0.59      0.00
    7   20   33     -1.57      0.00
    0   21   33     -2.63      0.00
    2   21   33      0.94      0.00
    1    1   34      8.30      0.00
    0    2   34     -1.17      0.00
    1    3   34     -1.89      0.00
    3    3   34     -2.87      0.00
    0    4   34     -0.80      0.00
    2    4   34     -2.73      0.00
    1    5   34      4.30      0.00
    3    5   34     -4.40      0.00
    5    5   34     -1.79      0.00
    0    6   34     -0.27      0.00
    2    6   34      2.08      0.00
    4    6   34      1.61      0.00
    1    7   34      5.53      0.00
    3    7   34      6.11      0.00
    5    7   34      2.22      0.00
    7    7   34     -0.93      0.00
    0    8   34      3.99      0.00
    2    8   34      2.02      0.00
    4    8   34     -0.48      0.00
    6    8   34      2.36      0.00
    1    9   34     -7.32      0.00
    3    9   34     -4.07      0.00
    5    9   34     -1.56      0.00
    7    9   34      2.08      0.00
    9    9   34     -4.66      0.00
    0   10   34      4.73      0.00
    2   10   34      3.19      0.00
    4   10   34      7.27      0.00
    6   10   34     -0.52      0.00
    8   10   34      0.89      0.00
    1   11   34     -4.74      0.00
    3   11   34     -0.77      0.00
    5   11   34     -0.45      0.00
    7   11   34     -5.14      0.00
    9   11   34      1.02      0.00
   11   11   34     -2.21      0.00
    0   12   34     -0.18      0.00
    2   12   34     -5.80      0.00
    4   12   34     -8.26      0.00
    6   12   34      8.15      0.00
    8   12   34     -2.37      0.00
   10   12   34     -7.86      0.00
    1   13   34      3.87      0.00
    3   13   34     -1.59      0.00
    5   13   34     -0.38      0.00
    7   13   34      2.27      0.00
    9   13   34      3.72      0.00
   11   13   34      0.00      0.00
   13   13   34     -2.26      0.00
    0   14   34      2.38      0.00
    2   14   34     -1.17      0.00
    4   14   34      4.78      0.00
    6   14   34     -4.02      0.00
    8   14   34      2.28      0.00
   10   14   34     -0.87      0.00
   12   14   34     -9.52      0.00
    1   15   34     -5.94      0.00
    3   15   34     -6.88      0.00
    5   15   34      2.27      0.00
    7   15   34     13.00      0.00
    9   15   34     -3.64      0.00
   11   15   34      0.04      0.00
   13   15   34     -6.80      0.00
    0   16   34      2.33      0.00
    2   16   34     -3.55      0.00
    4   16   34      1.18      0.00
    6   16   34      7.05      0.00
    8   16   34      5.25      0.00
   10   16   34     -9.81      0.00
   12   16   34     -2.05      0.00
    1   17   34      2.40      0.00
    3   17   34      0.51      0.00
    5   17   34      0.20      0.00
    7   17   34      0.81      0.00
    9   17   34      1.80      0.00
   11   17   34     -7.35      0.00
    0   18   34     -2.49      0.00
    2   18   34     -5.98      0.00
    4   18   34     12.25      0.00
    6   18   34      0.09      0.00
    8   18   34      5.00      0.00
   10   18   34     -2.69      0.00
    1   19   34     -7.81      0.00
    3   19   34     -3.68      0.00
    5   19   34      9.13      0.00
    7   19   34     -4.90      0.00
    9   19   34     -0.52      0.00
    0   20   34     -5.88      0.00
    2   20   34      3.88      0.00
    4   20   34     -5.76      0.00
    6   20   34      3.53      0.00
    1   21   34     -4.25      0.00
    0    1   35      1.11      0.00
    1    2   35      4.54      0.00
    0    3   35      7.38      0.00
    2    3   35      1.99      0.00
    1    4   35     -1.65      0.00
    3    4   35     -2.86      0.00
    0    5   35     -2.95      0.00
    2    5   35     -0.24      0.00
    4    5   35     -1.94      0.00
    1    6   35     -1.42      0.00
    3    6   35     -5.26      0.00
    5    6   35     -5.39      0.00
    0    7   35      2.05      0.00
    2    7   35      8.14      0.00
    4    7   35     -2.44      0.00
    6    7   35      5.29      0.00
    1    8   35      2.88      0.00
    3    8   35      1.96      0.00
    5    8   35     -0.32      0.00
    7    8   35     -5.98      0.00
    0    9   35      0.67      0.00
    2    9   35     -4.03      0.00
    4    9   35      2.55      0.00
    6    9   35      2.64      0.00
    8    9   35      1.51      0.00
    1   10   35     -2.36      0.00
    3   10   35      0.09      0.00
    5   10   35     -0.35      0.00
    7   10   35      0.82      0.00
    9   10   35      0.18      0.00
    0   11   35     -5.44      0.00
    2   11   35     -3.51      0.00
    4   11   35     -3.59      0.00
    6   11   35      0.50      0.00
    8   11   35     -3.52      0.00
   10   11   35     -3.71      0.00
    1   12   35      0.25      0.00
    3   12   35      2.12      0.00
    5   12   35     -0.36      0.00
    7   12   35      0.06      0.00
    9   12   35     -0.80      0.00
   11   12   35     -2.75      0.00
    0   13   35      1.73      0.00
    2   13   35      7.12      0.00
    4   13   35      3.64      0.00
    6   13   35     -5.19      0.00
    8   13   35     -0.95      0.00
   10   13   35      7.61      0.00
   12   13   35     -5.93      0.00
    1   14   35     -3.09      0.00
    3   14   35      9.17      0.00
    5   14   35      0.63      0.00
    7   14   35      0.47      0.00
    9   14   35      3.64      0.00
   11   14   35    -12.64      0.00
   13   14   35     -5.26      0.00
    0   15   35      0.99      0.00
    2   15   35     10.10      0.00
    4   15   35    -10.15      0.00
    6   15   35      5.06      0.00
    8   15   35      0.19      0.00
   10   15   35     -6.29      0.00
   12   15   35     -1.62      0.00
   14   15   35     -1.92      0.00
    1   16   35     10.02      0.00
    3   16   35      1.19      0.00
    5   16   35      4.96      0.00
    7   16   35     -2.99      0.00
    9   16   35     -4.50      0.00
   11   16   35      1.00      0.00
   13   16   35      3.26      0.00
    0   17   35      2.79      0.00
    2   17   35     -4.26      0.00
    4   17   35     -2.20      0.00
    6   17   35     -1.42      0.00
    8   17   35     -4.94      0.00
   10   17   35      0.92      0.00
   12   17   35      1.98      0.00
    1   18   35     12.26      0.00
    3   18   35      7.68      0.00
    5   18   35      3.82      0.00
    7   18   35     -3.86      0.00
    9   18   35      2.20      0.00
    0   19   35     -7.26      0.00
    2   19   35     -1.67      0.00
    4   19   35     16.29      0.00
    6   19   35      6.82      0.00
    8   19   35     -1.73      0.00
    1   20   35      1.67      0.00
    3   20   35     17.04      0.00
    5   20   35      0.31      0.00
    0    0   36    -15.02      0.00
    0    2   36     12.15      0.00
    2    2   36     -0.38      0.00
    1    3   36     -0.65      0.00
    0    4   36      3.82      0.00
    2    4   36     -2.36      0.00
    4    4   36     -2.75      0.00
    1    5   36     -3.08      0.00
    3    5   36      1.36      0.00
    0    6   36    -12.97      0.00
    2    6   36     -9.10      0.00
    4    6   36     -1.94      0.00
    6    6   36     -5.67      0.00
    1    7   36      6.10      0.00
    3    7   36      3.07      0.00
    5    7   36     -0.13      0.00
    0    8   36      6.62      0.00
    2    8   36      3.41      0.00
    4    8   36      5.45      0.00
    6    8   36      4.06      0.00
    8    8   36      4.07      0.00
    1    9   36      5.35      0.00
    3    9   36      9.80      0.00
    5    9   36      1.57      0.00
    7    9   36      3.38      0.00
    0   10   36     -5.14      0.00
    2   10   36     -5.53      0.00
    4   10   36      1.55      0.00
    6   10   36      8.23      0.00
    8   10   36     -2.00      0.00
   10   10   36      5.27      0.00
    1   11   36      5.67      0.00
    3   11   36     -1.27      0.00
    5   11   36      4.76      0.00
    7   11   36     -1.76      0.00
    9   11   36      0.04      0.00
    0   12   36      1.32      0.00
    2   12   36     -2.36      0.00
    4   12   36     14.74      0.00
    6   12   36      6.27      0.00
    8   12   36      2.69      0.00
   10   12   36     -9.70      0.00
   12   12   36     -1.94      0.00
    1   13   36      1.64      0.00
    3   13   36      2.40      0.00
    5   13   36     -5.01      0.00
    7   13   36    -11.00      0.00
    9   13   36     -6.26      0.00
   11   13   36     -6.70      0.00
    0   14   36    -13.48      0.00
    2   14   36      5.95      0.00
    4   14   36      1.31      0.00
    6   14   36      5.81      0.00
    8   14   36     -2.16      0.00
   10   14   36     -5.12      0.00
   12   14   36     -6.40      0.00
   14   14   36      0.70      0.00
    1   15   36    -10.78      0.00
    3   15   36     -0.60      0.00
    5   15   36    -12.04      0.00
    7   15   36      6.04      0.00
    9   15   36     -0.64      0.00
   11   15   36     -5.43      0.00
   13   15   36      1.11      0.00
    0   16   36      9.40      0.00
    2   16   36      5.28      0.00
    4   16   36     -7.31      0.00
    6   16   36     -8.22      0.00
    8   16   36     -1.79      0.00
   10   16   36     -2.70      0.00
   12   16   36     -0.78      0.00
    1   17   36      5.98      0.00
    3   17   36     -0.22      0.00
    5   17   36     -6.51      0.00
    7   17   36      0.49      0.00
    9   17   36     -9.60      0.00
   11   17   36      2.55      0.00
    0   18   36     14.35      0.00
    2   18   36      2.63      0.00
    4   18   36      4.59      0.00
    6   18   36      3.35      0.00
    8   18   36     -9.06      0.00
   10   18   36      2.35      0.00
    1   19   36      6.48      0.00
    3   19   36     -0.65      0.00
    5   19   36      3.41      0.00
    7   19   36     -6.07      0.00
    0   20   36     -9.00      0.00
    2   20   36      8.42      0.00
    4   20   36     -7.78      0.00
    0    1   37     -6.89      0.00
    1    2   37      5.22      0.00
    0    3   37      2.93      0.00
    2    3   37      5.59      0.00
    1    4   37      3.25      0.00
    3    4   37     -3.02      0.00
    0    5   37     -0.79      0.00
    2    5   37     -1.80      0.00
    4    5   37      1.49      0.00
    1    6   37     -2.44      0.00
    3    6   37      2.49      0.00
    5    6   37      1.61      0.00
    0    7   37     -3.89      0.00
    2    7   37     10.05      0.00
    4    7   37     -2.09      0.00
    6    7   37      1.15      0.00
    1    8   37     -6.47      0.00
    3    8   37      3.67      0.00
    5    8   37     -1.36      0.00
    7    8   37      4.80      0.00
    0    9   37      0.24      0.00
    2    9   37     -0.25      0.00
    4    9   37      3.23      0.00
    6    9   37     -0.01      0.00
    8    9   37      7.25      0.00
    1   10   37      6.85      0.00
    3   10   37     -1.86      0.00
    5   10   37      2.47      0.00
    7   10   37     -2.29      0.00
    9   10   37     -0.74      0.00
    0   11   37      3.65      0.00
    2   11   37      1.75      0.00
    4   11   37      2.84      0.00
    6   11   37     -4.51      0.00
    8   11   37    -10.53      0.00
   10   11   37     -1.14      0.00
    1   12   37     -0.73      0.00
    3   12   37      5.02      0.00
    5   12   37      3.71      0.00
    7   12   37     14.93      0.00
    9   12   37     -2.98      0.00
   11   12   37      3.43      0.00
    0   13   37     11.27      0.00
    2   13   37      1.22      0.00
    4   13   37     -3.28      0.00
    6   13   37     -0.08      0.00
    8   13   37     -0.62      0.00
   10   13   37     -7.16      0.00
   12   13   37      3.15      0.00
    1   14   37     -0.70      0.00
    3   14   37      0.68      0.00
    5   14   37     19.98      0.00
    7   14   37     10.08      0.00
    9   14   37      3.21      0.00
   11   14   37     -3.80      0.00
   13   14   37      4.74      0.00
    0   15   37     -9.05      0.00
    2   15   37      3.46      0.00
    4   15   37     -3.29      0.00
    6   15   37     -2.44      0.00
    8   15   37     -0.03      0.00
   10   15   37     -7.99      0.00
   12   15   37     -1.01      0.00
   14   15   37      4.46      0.00
    1   16   37      0.86      0.00
    3   16   37     -5.12      0.00
    5   16   37     -1.61      0.00
    7   16   37      2.91      0.00
    9   16   37     -0.72      0.00
   11   16   37     -3.78      0.00
    0   17   37      2.00      0.00
    2   17   37     -0.85      0.00
    4   17   37      1.42      0.00
    6   17   37     -1.69      0.00
    8   17   37      8.06      0.00
   10   17   37     10.64      0.00
    1   18   37     -5.56      0.00
    3   18   37     -9.28      0.00
    5   18   37      2.46      0.00
    7   18   37     -3.43      0.00
    9   18   37      1.45      0.00
    0   19   37      8.16      0.00
    2   19   37     -2.25      0.00
    4   19   37     -5.36      0.00
    6   19   37      1.75      0.00
    1   20   37      6.91      0.00
    3   20   37     -1.29      0.00
    1    1   38     12.03      0.00
    0    2   38      5.42      0.00
    1    3   38     -6.26      0.00
    3    3   38     -1.47      0.00
    0    4   38     -4.69      0.00
    2    4   38     -1.49      0.00
    1    5   38     12.91      0.00
    3    5   38     -1.16      0.00
    5    5   38     -5.14      0.00
    0    6   38      5.21      0.00
    2    6   38      1.73      0.00
    4    6   38      3.34      0.00
    1    7   38     -1.56      0.00
    3    7   38      0.86      0.00
    5    7   38      0.03      0.00
    7    7   38     -0.99      0.00
    0    8   38     -6.63      0.00
    2    8   38     -2.26      0.00
    4    8   38     -6.64      0.00
    6    8   38     -2.39      0.00
    1    9   38     -2.17      0.00
    3    9   38     -0.86      0.00
    5    9   38     -4.43      0.00
    7    9   38      3.66      0.00
    9    9   38      1.44      0.00
    0   10   38      8.93      0.00
    2   10   38     -4.87      0.00
    4   10   38     -7.58      0.00
    6   10   38     -3.21      0.00
    8   10   38      0.55      0.00
    1   11   38      1.75      0.00
    3   11   38     -5.86      0.00
    5   11   38      3.20      0.00
    7   11   38     -7.83      0.00
    9   11   38     -6.27      0.00
   11   11   38     -8.15      0.00
    0   12   38     14.60      0.00
    2   12   38      1.20      0.00
    4   12   38      0.53      0.00
    6   12   38     -3.36      0.00
    8   12   38      3.79      0.00
   10   12   38     -0.18      0.00
    1   13   38      0.93      0.00
    3   13   38     -1.78      0.00
    5   13   38     -6.42      0.00
    7   13   38     -1.90      0.00
    9   13   38      3.91      0.00
   11   13   38     -7.55      0.00
   13   13   38    -10.90      0.00
    0   14   38      0.36      0.00
    2   14   38     -0.85      0.00
    4   14   38      2.86      0.00
    6   14   38      6.47      0.00
    8   14   38     -1.93      0.00
   10   14   38     -6.18      0.00
   12   14   38      2.06      0.00
    1   15   38      9.57      0.00
    3   15   38      1.09      0.00
    5   15   38     -6.56      0.00
    7   15   38     -2.40      0.00
    9   15   38     -2.05      0.00
   11   15   38      3.60      0.00
   13   15   38      0.86      0.00
    0   16   38     16.67      0.00
    2   16   38      3.95      0.00
    4   16   38      2.40      0.00
    6   16   38     -2.32      0.00
    8   16   38     -0.38      0.00
   10   16   38     -5.11      0.00
   12   16   38     -5.82      0.00
    1   17   38     -3.35      0.00
    3   17   38     -9.42      0.00
    5   17   38      9.35      0.00
    7   17   38      8.24      0.00
    9   17   38      1.19      0.00
   11   17   38      8.55      0.00
    0   18   38     -0.10      0.00
    2   18   38    -12.14      0.00
    4   18   38      3.02      0.00
    6   18   38      2.73      0.00
    8   18   38      5.22      0.00
    1   19   38     -7.74      0.00
    3   19   38      0.02      0.00
    5   19   38     -4.62      0.00
    7   19   38      0.03      0.00
    0   20   38      5.35      0.00
    2   20   38     10.57      0.00
    0    1   39     10.44      0.00
    1    2   39      5.96      0.00
    0    3   39     -8.81      0.00
    2    3   39     -5.95      0.00
    1    4   39     -9.88      0.00
    3    4   39     -7.98      0.00
    0    5   39     -5.48      0.00
    2    5   39      6.52      0.00
    4    5   39     -5.85      0.00
    1    6   39     -0.58      0.00
    3    6   39     -2.95      0.00
    5    6   39     -6.57      0.00
    0    7   39      5.66      0.00
    2    7   39     -7.21      0.00
    4    7   39      2.09      0.00
    6    7   39     -0.24      0.00
    1    8   39      1.24      0.00
    3    8   39      5.80      0.00
    5    8   39      1.23      0.00
    7    8   39      1.57      0.00
    0    9   39    -16.15      0.00
    2    9   39      1.72      0.00
    4    9   39    -12.00      0.00
    6    9   39      4.02      0.00
    8    9   39     -2.99      0.00
    1   10   39     -3.92      0.00
    3   10   39     -5.80      0.00
    5   10   39     -7.11      0.00
    7   10   39     -5.05      0.00
    9   10   39     -1.05      0.00
    0   11   39     -4.32      0.00
    2   11   39     -1.16      0.00
    4   11   39      7.31      0.00
    6   11   39     -6.89      0.00
    8   11   39     -1.36      0.00
   10   11   39     -2.21      0.00
    1   12   39     -3.63      0.00
    3   12   39     -0.05      0.00
    5   12   39      4.66      0.00
    7   12   39      3.26      0.00
    9   12   39     -7.36      0.00
   11   12   39      4.90      0.00
    0   13   39      2.23      0.00
    2   13   39     -1.15      0.00
    4   13   39    -17.41      0.00
    6   13   39      1.16      0.00
    8   13   39     -2.21      0.00
   10   13   39      7.67      0.00
   12   13   39      3.25      0.00
    1   14   39      0.50      0.00
    3   14   39      1.83      0.00
    5   14   39     -2.10      0.00
    7   14   39      3.11      0.00
    9   14   39      6.31      0.00
   11   14   39     -9.31      0.00
   13   14   39      5.14      0.00
    0   15   39     -6.26      0.00
    2   15   39      2.19      0.00
    4   15   39     -9.15      0.00
    6   15   39     -4.53      0.00
    8   15   39     -4.72      0.00
   10   15   39      1.93      0.00
   12   15   39     -7.73      0.00
    1   16   39      5.07      0.00
    3   16   39      1.48      0.00
    5   16   39      2.08      0.00
    7   16   39     -6.02      0.00
    9   16   39      8.54      0.00
   11   16   39      0.81      0.00
    0   17   39      7.76      0.00
    2   17   39      3.84      0.00
    4   17   39      0.27      0.00
    6   17   39      0.07      0.00
    8   17   39     -2.80      0.00
   10   17   39    -10.22      0.00
    1   18   39     11.55      0.00
    3   18   39     -1.92      0.00
    5   18   39     14.60      0.00
    7   18   39      0.90      0.00
    9   18   39     -2.07      0.00
    0   19   39     -2.49      0.00
    2   19   39      9.10      0.00
    4   19   39      0.23      0.00
    6   19   39      5.96      0.00
    1   20   39     -9.97      0.00
    0    0   40     20.47      0.00
    0    2   40      2.55      0.00
    2    2   40     -0.48      0.00
    1    3   40     -2.74      0.00
    0    4   40      0.23      0.00
    2    4   40     -2.56      0.00
    4    4   40      0.55      0.00
    1    5   40    -11.78      0.00
    3    5   40     -5.35      0.00
    0    6   40      0.20      0.00
    2    6   40     -1.82      0.00
    4    6   40     -3.94      0.00
    6    6   40     -1.03      0.00
    1    7   40     -6.41      0.00
    3    7   40      0.91      0.00
    5    7   40     -4.40      0.00
    0    8   40     -0.71      0.00
    2    8   40      2.13      0.00
    4    8   40      9.11      0.00
    6    8   40     -6.49      0.00
    8    8   40     -4.72      0.00
    1    9   40     -2.28      0.00
    3    9   40      1.69      0.00
    5    9   40     -2.35      0.00
    7    9   40      1.94      0.00
    0   10   40      2.59      0.00
    2   10   40     -5.08      0.00
    4   10   40     -2.05      0.00
    6   10   40     -3.09      0.00
    8   10   40    -10.49      0.00
   10   10   40     -3.58      0.00
    1   11   40     -3.38      0.00
    3   11   40      2.19      0.00
    5   11   40      3.30      0.00
    7   11   40     -4.87      0.00
    9   11   40     -3.02      0.00
    0   12   40     -1.69      0.00
    2   12   40      2.76      0.00
    4   12   40     -1.06      0.00
    6   12   40      3.58      0.00
    8   12   40     -1.35      0.00
   10   12   40     -2.09      0.00
   12   12   40      7.90      0.00
    1   13   40      4.57      0.00
    3   13   40      2.45      0.00
    5   13   40      5.60      0.00
    7   13   40      4.18      0.00
    9   13   40     -3.68      0.00
   11   13   40      9.99      0.00
    0   14   40     -7.02      0.00
    2   14   40      6.62      0.00
    4   14   40      9.78      0.00
    6   14   40      3.91      0.00
    8   14   40      5.73      0.00
   10   14   40      5.36      0.00
   12   14   40     -1.99      0.00
   14   14   40      4.09      0.00
    1   15   40     12.14      0.00
    3   15   40      5.04      0.00
    5   15   40     -7.23      0.00
    7   15   40      3.47      0.00
    9   15   40      0.08      0.00
   11   15   40      3.00      0.00
   13   15   40      2.57      0.00
    0   16   40      6.85      0.00
    2   16   40     -4.91      0.00
    4   16   40     -1.55      0.00
    6   16   40      0.25      0.00
    8   16   40      1.59      0.00
   10   16   40      2.66      0.00
    1   17   40      3.40      0.00
    3   17   40      5.36      0.00
    5   17   40      7.50      0.00
    7   17   40      7.56      0.00
    9   17   40      4.90      0.00
    0   18   40      8.64      0.00
    2   18   40      1.87      0.00
    4   18   40    -11.78      0.00
    6   18   40     -6.05      0.00
    8   18   40     -9.30      0.00
    1   19   40      6.31      0.00
    3   19   40     11.53      0.00
    5   19   40      4.79      0.00
    0    1   41    -13.25      0.00
    1    2   41      5.11      0.00
    0    3   41     13.47      0.00
    2    3   41      0.78      0.00
    1    4   41     -1.89      0.00
    3    4   41     -2.10      0.00
    0    5   41    -10.07      0.00
    2    5   41      0.23      0.00
    4    5   41      0.23      0.00
    1    6   41     -2.78      0.00
    3    6   41     -4.08      0.00
    5    6   41     -0.69      0.00
    0    7   41      1.41      0.00
    2    7   41      0.94      0.00
    4    7   41     -3.61      0.00
    6    7   41      3.10      0.00
    1    8   41     -1.74      0.00
    3    8   41      3.56      0.00
    5    8   41      0.09      0.00
    7    8   41     -2.69      0.00
    0    9   41     -6.52      0.00
    2    9   41      2.22      0.00
    4    9   41     -2.00      0.00
    6    9   41     -6.34      0.00
    8    9   41      2.26      0.00
    1   10   41      5.19      0.00
    3   10   41      0.48      0.00
    5   10   41     -0.37      0.00
    7   10   41      2.78      0.00
    9   10   41     -9.60      0.00
    0   11   41      0.51      0.00
    2   11   41    -13.17      0.00
    4   11   41     -2.34      0.00
    6   11   41      3.27      0.00
    8   11   41      2.39      0.00
   10   11   41     -6.14      0.00
    1   12   41     10.03      0.00
    3   12   41     -0.98      0.00
    5   12   41     -4.58      0.00
    7   12   41      5.82      0.00
    9   12   41      3.03      0.00
   11   12   41      1.37      0.00
    0   13   41     -2.81      0.00
    2   13   41      6.09      0.00
    4   13   41     -1.17      0.00
    6   13   41     -1.25      0.00
    8   13   41      0.98      0.00
   10   13   41      6.26      0.00
   12   13   41     -4.97      0.00
    1   14   41     -3.19      0.00
    3   14   41     -2.43      0.00
    5   14   41     -0.72      0.00
    7   14   41     -4.33      0.00
    9   14   41     -5.46      0.00
   11   14   41     -7.08      0.00
   13   14   41      6.62      0.00
    0   15   41     -5.15      0.00
    2   15   41      0.63      0.00
    4   15   41     -1.91      0.00
    6   15   41     -2.15      0.00
    8   15   41      3.80      0.00
   10   15   41      4.41      0.00
   12   15   41     -3.01      0.00
    1   16   41     -7.23      0.00
    3   16   41    -14.62      0.00
    5   16   41     -3.80      0.00
    7   16   41     -3.95      0.00
    9   16   41     -1.18      0.00
   11   16   41      5.51      0.00
    0   17   41      9.87      0.00
    2   17   41      1.05      0.00
    4   17   41     -4.68      0.00
    6   17   41     10.02      0.00
    8   17   41     -2.59      0.00
   10   17   41     -0.26      0.00
    1   18   41     -3.69      0.00
    3   18   41     -7.77      0.00
    5   18   41     -2.32      0.00
    7   18   41      5.61      0.00
    0   19   41      0.51      0.00
    2   19   41      9.07      0.00
    4   19   41      0.28      0.00
    1    1   42     -2.36      0.00
    0    2   42     -2.41      0.00
    1    3   42      3.31      0.00
    3    3   42     -0.43      0.00
    0    4   42      0.95      0.00
    2    4   42      2.68      0.00
    1    5   42      4.14      0.00
    3    5   42      6.84      0.00
    5    5   42      3.25      0.00
    0    6   42      9.63      0.00
    2    6   42      0.16      0.00
    4    6   42     -0.53      0.00
    1    7   42      1.42      0.00
    3    7   42     -0.96      0.00
    5    7   42      0.09      0.00
    7    7   42     -3.11      0.00
    0    8   42     -1.09      0.00
    2    8   42      1.28      0.00
    4    8   42      4.10      0.00
    6    8   42     -0.93      0.00
    1    9   42     -7.98      0.00
    3    9   42     -1.91      0.00
    5    9   42      0.54      0.00
    7    9   42      2.51      0.00
    9    9   42      8.27      0.00
    0   10   42      5.96      0.00
    2   10   42      0.60      0.00
    4   10   42      0.52      0.00
    6   10   42     -2.59      0.00
    8   10   42     -1.16      0.00
    1   11   42     -1.33      0.00
    3   11   42     -4.99      0.00
    5   11   42      0.03      0.00
    7   11   42     -0.79      0.00
    9   11   42     -3.55      0.00
   11   11   42      6.80      0.00
    0   12   42     15.78      0.00
    2   12   42     -2.64      0.00
    4   12   42     -8.94      0.00
    6   12   42      6.76      0.00
    8   12   42      5.81      0.00
   10   12   42      4.54      0.00
    1   13   42      5.10      0.00
    3   13   42     -2.38      0.00
    5   13   42     -2.75      0.00
    7   13   42     -3.31      0.00
    9   13   42      6.56      0.00
   11   13   42      1.02      0.00
   13   13   42     -0.12      0.00
    0   14   42      0.44      0.00
    2   14   42     -9.53      0.00
    4   14   42      5.42      0.00
    6   14   42      3.04      0.00
    8   14   42      1.26      0.00
   10   14   42     -1.10      0.00
   12   14   42     -9.72      0.00
    1   15   42     -2.42      0.00
    3   15   42     -2.57      0.00
    5   15   42     -1.07      0.00
    7   15   42     -4.44      0.00
    9   15   42      3.44      0.00
   11   15   42     -2.01      0.00
    0   16   42     -6.47      0.00
    2   16   42     -6.11      0.00
    4   16   42     -2.62      0.00
    6   16   42     -1.43      0.00
    8   16   42      1.81      0.00
   10   16   42     -1.57      0.00
    1   17   42      0.82      0.00
    3   17   42     -5.40      0.00
    5   17   42      4.62      0.00
    7   17   42      3.52      0.00
    9   17   42    -12.25      0.00
    0   18   42      3.09      0.00
    2   18   42     -5.20      0.00
    4   18   42      1.56      0.00
    6   18   42     -0.92      0.00
    1   19   42     10.96      0.00
    3   19   42     18.87      0.00
    0    1   43     -0.40      0.00
    1    2   43      9.80      0.00
    0    3   43     -6.31      0.00
    2    3   43     -0.49      0.00
    1    4   43     -6.26      0.00
    3    4   43     -3.02      0.00
    0    5   43     -1.89      0.00
    2    5   43     -0.05      0.00
    4    5   43      4.11      0.00
    1    6   43      2.66      0.00
    3    6   43     -2.37      0.00
    5    6   43      1.43      0.00
    0    7   43     -3.11      0.00
    2    7   43      2.92      0.00
    4    7   43     -0.16      0.00
    6    7   43     -3.05      0.00
    1    8   43     -4.97      0.00
    3    8   43      4.19      0.00
    5    8   43     -9.04      0.00
    7    8   43     -4.17      0.00
    0    9   43      0.16      0.00
    2    9   43      3.71      0.00
    4    9   43     -1.01      0.00
    6    9   43      2.94      0.00
    8    9   43     -5.61      0.00
    1   10   43      0.36      0.00
    3   10   43     -5.34      0.00
    5   10   43     -4.43      0.00
    7   10   43     -1.69      0.00
    9   10   43      1.79      0.00
    0   11   43     -0.56      0.00
    2   11   43      2.26      0.00
    4   11   43      4.77      0.00
    6   11   43      2.70      0.00
    8   11   43     -2.22      0.00
   10   11   43     -3.80      0.00
    1   12   43      5.72      0.00
    3   12   43      1.97      0.00
    5   12   43     -5.28      0.00
    7   12   43      1.45      0.00
    9   12   43     -7.32      0.00
   11   12   43      2.50      0.00
    0   13   43     -3.33      0.00
    2   13   43      6.51      0.00
    4   13   43     -7.68      0.00
    6   13   43      0.79      0.00
    8   13   43     -2.85      0.00
   10   13   43     -3.67      0.00
   12   13   43      6.63      0.00
    1   14   43     -1.03      0.00
    3   14   43      1.71      0.00
    5   14   43      7.84      0.00
    7   14   43     -3.35      0.00
    9   14   43      7.54      0.00
   11   14   43     -7.69      0.00
   13   14   43     -5.64      0.00
    0   15   43      7.85      0.00
    2   15   43    -10.55      0.00
    4   15   43     -2.19      0.00
    6   15   43     -1.05      0.00
    8   15   43      5.96      0.00
   10   15   43     10.11      0.00
   12   15   43      5.15      0.00
    1   16   43      6.95      0.00
    3   16   43      3.69      0.00
    5   16   43      9.52      0.00
    7   16   43     -8.16      0.00
    9   16   43     -2.26      0.00
    0   17   43     -7.92      0.00
    2   17   43     12.99      0.00
    4   17   43     -2.54      0.00
    6   17   43     25.47      0.00
    8   17   43     -6.51      0.00
    1   18   43     -1.97      0.00
    3   18   43      2.87      0.00
    5   18   43     -0.69      0.00
    0   19   43     12.39      0.00
    2   19   43      9.67      0.00
    0    0   44      5.52      0.00
    0    2   44     15.75      0.00
    2    2   44      4.46      0.00
    1    3   44      3.86      0.00
    0    4   44    -13.13      0.00
    2    4   44     -4.44      0.00
    4    4   44     -1.18      0.00
    1    5   44     -6.27      0.00
    3    5   44     -1.82      0.00
    0    6   44      9.34      0.00
    2    6   44      3.89      0.00
    4    6   44     -0.04      0.00
    6    6   44     -6.25      0.00
    1    7   44      1.90      0.00
    3    7   44      2.10      0.00
    5    7   44      1.73      0.00
    0    8   44     -1.63      0.00
    2    8   44     -3.58      0.00
    4    8   44      2.37      0.00
    6    8   44      5.17      0.00
    8    8   44      6.49      0.00
    1    9   44     -4.59      0.00
    3    9   44     -3.37      0.00
    5    9   44      0.14      0.00
    7    9   44      3.27      0.00
    0   10   44      1.18      0.00
    2   10   44      1.62      0.00
    4   10   44     -3.23      0.00
    6   10   44     -4.23      0.00
    8   10   44     -0.03      0.00
   10   10   44      3.78      0.00
    1   11   44     -5.37      0.00
    3   11   44      1.16      0.00
    5   11   44    -11.66      0.00
    7   11   44      2.10      0.00
    9   11   44      6.93      0.00
    0   12   44      2.64      0.00
    2   12   44      5.41      0.00
    4   12   44      9.12      0.00
    6   12   44      3.27      0.00
    8   12   44     -0.49      0.00
   10   12   44      7.96      0.00
   12   12   44      7.95      0.00
    1   13   44     -7.51      0.00
    3   13   44    -11.01      0.00
    5   13   44      6.04      0.00
    7   13   44     -3.53      0.00
    9   13   44      2.65      0.00
   11   13   44      3.73      0.00
    0   14   44     -3.86      0.00
    2   14   44      2.00      0.00
    4   14   44      0.34      0.00
    6   14   44      4.41      0.00
    8   14   44      1.23      0.00
   10   14   44     -3.77      0.00
   12   14   44     -3.95      0.00
    1   15   44     -4.01      0.00
    3   15   44     -6.02      0.00
    5   15   44     -7.28      0.00
    7   15   44      2.05      0.00
    9   15   44      1.64      0.00
   11   15   44      4.93      0.00
    0   16   44     -0.80      0.00
    2   16   44     -9.11      0.00
    4   16   44      6.79      0.00
    6   16   44      1.21      0.00
    8   16   44     -0.98      0.00
   10   16   44     -3.42      0.00
    1   17   44     11.09      0.00
    3   17   44      3.88      0.00
    5   17   44     10.11      0.00
    7   17   44     -3.35      0.00
    0   18   44     -4.32      0.00
    2   18   44      2.83      0.00
    4   18   44      5.54      0.00
    6   18   44      6.87      0.00
    1   19   44      8.99      0.00
    0    1   45      1.98      0.00
    1    2   45      0.51      0.00
    0    3   45      3.93      0.00
    2    3   45     -4.43      0.00
    1    4   45      1.17      0.00
    3    4   45      2.72      0.00
    0    5   45     -0.42      0.00
    2    5   45      4.38      0.00
    4    5   45      0.70      0.00
    1    6   45      6.35      0.00
    3    6   45      0.42      0.00
    5    6   45      1.54      0.00
    0    7   45     -5.56      0.00
    2    7   45     -7.02      0.00
    4    7   45      7.91      0.00
    6    7   45     -3.73      0.00
    1    8   45      5.14      0.00
    3    8   45      3.75      0.00
    5    8   45      7.11      0.00
    7    8   45      4.38      0.00
    0    9   45      2.10      0.00
    2    9   45      8.86      0.00
    4    9   45     -0.90      0.00
    6    9   45     10.91      0.00
    8    9   45      3.95      0.00
    1   10   45      2.64      0.00
    3   10   45     -0.18      0.00
    5   10   45     -1.45      0.00
    7   10   45      3.94      0.00
    9   10   45     -7.81      0.00
    0   11   45      0.10      0.00
    2   11   45      1.21      0.00
    4   11   45      1.33      0.00
    6   11   45     -1.82      0.00
    8   11   45      0.06      0.00
   10   11   45      1.81      0.00
    1   12   45      1.28      0.00
    3   12   45      6.08      0.00
    5   12   45     -7.71      0.00
    7   12   45     -3.59      0.00
    9   12   45     -1.75      0.00
   11   12   45     -4.69      0.00
    0   13   45     -3.65      0.00
    2   13   45     -1.94      0.00
    4   13   45     11.11      0.00
    6   13   45      0.44      0.00
    8   13   45    -10.94      0.00
   10   13   45     -3.96      0.00
   12   13   45     -1.60      0.00
    1   14   45    -10.38      0.00
    3   14   45    -11.24      0.00
    5   14   45      9.50      0.00
    7   14   45      5.81      0.00
    9   14   45     -5.48      0.00
   11   14   45     -2.94      0.00
    0   15   45      4.96      0.00
    2   15   45     12.12      0.00
    4   15   45     -3.11      0.00
    6   15   45      3.68      0.00
    8   15   45      2.06      0.00
   10   15   45      4.19      0.00
    1   16   45      6.69      0.00
    3   16   45     -0.28      0.00
    5   16   45     10.58      0.00
    7   16   45      7.11      0.00
    9   16   45      0.70      0.00
    0   17   45     -6.00      0.00
    2   17   45     -0.73      0.00
    4   17   45      3.35      0.00
    6   17   45      4.90      0.00
    8   17   45     -4.08      0.00
    1   18   45     19.57      0.00
    3   18   45     25.16      0.00
    5   18   45     10.58      0.00
    1    1   46    -12.85      0.00
    0    2   46     -7.83      0.00
    1    3   46      4.29      0.00
    3    3   46      0.50      0.00
    0    4   46      3.17      0.00
    2    4   46     -7.52      0.00
    1    5   46     -8.80      0.00
    3    5   46      0.72      0.00
    5    5   46      6.48      0.00
    0    6   46      0.83      0.00
    2    6   46     -0.71      0.00
    4    6   46      0.28      0.00
    1    7   46      3.41      0.00
    3    7   46     -2.44      0.00
    5    7   46     -1.11      0.00
    7    7   46      3.05      0.00
    0    8   46      8.97      0.00
    2    8   46     -1.40      0.00
    4    8   46      2.08      0.00
    6    8   46      5.30      0.00
    1    9   46      3.04      0.00
    3    9   46      2.57      0.00
    5    9   46     -1.08      0.00
    7    9   46     -4.38      0.00
    9    9   46     -1.33      0.00
    0   10   46      0.35      0.00
    2   10   46      1.00      0.00
    4   10   46     -1.09      0.00
    6   10   46     -4.00      0.00
    8   10   46      3.66      0.00
    1   11   46     -1.13      0.00
    3   11   46      1.68      0.00
    5   11   46     10.07      0.00
    7   11   46     -3.70      0.00
    9   11   46    -10.18      0.00
   11   11   46    -10.86      0.00
    0   12   46     -2.79      0.00
    2   12   46    -14.43      0.00
    4   12   46     -7.11      0.00
    6   12   46     -1.30      0.00
    8   12   46     -8.63      0.00
   10   12   46    -16.95      0.00
    1   13   46     -1.79      0.00
    3   13   46     -1.90      0.00
    5   13   46      4.05      0.00
    7   13   46     -0.63      0.00
    9   13   46     -1.10      0.00
   11   13   46      4.40      0.00
   13   13   46     -3.46      0.00
    0   14   46     -1.36      0.00
    2   14   46    -10.76      0.00
    4   14   46     -5.26      0.00
    6   14   46     -5.69      0.00
    8   14   46     -0.15      0.00
   10   14   46      7.42      0.00
   12   14   46     -8.86      0.00
    1   15   46     -3.89      0.00
    3   15   46     -3.44      0.00
    5   15   46     -3.41      0.00
    7   15   46     -2.20      0.00
    9   15   46      2.59      0.00
    0   16   46     -6.06      0.00
    2   16   46     -6.59      0.00
    4   16   46      6.24      0.00
    6   16   46      7.43      0.00
    8   16   46    -14.57      0.00
    1   17   46      7.71      0.00
    3   17   46     -8.35      0.00
    5   17   46     -3.79      0.00
    7   17   46      0.20      0.00
    0   18   46     21.31      0.00
    2   18   46     22.20      0.00
    4   18   46     19.64      0.00
    0    1   47     -8.88      0.00
    1    2   47     -1.27      0.00
    0    3   47      1.23      0.00
    2    3   47      3.82      0.00
    1    4   47     -0.48      0.00
    3    4   47      1.10      0.00
    0    5   47      2.72      0.00
    2    5   47      0.49      0.00
    4    5   47     -0.40      0.00
    1    6   47      6.67      0.00
    3    6   47      7.13      0.00
    5    6   47      4.40      0.00
    0    7   47      8.03      0.00
    2    7   47     -0.23      0.00
    4    7   47     -1.25      0.00
    6    7   47      7.87      0.00
    1    8   47      0.30      0.00
    3    8   47     -1.46      0.00
    5    8   47     -0.99      0.00
    7    8   47      1.11      0.00
    0    9   47     -7.14      0.00
    2    9   47      0.51      0.00
    4    9   47     -4.84      0.00
    6    9   47     -8.88      0.00
    8    9   47     -1.26      0.00
    1   10   47     -6.78      0.00
    3   10   47     10.53      0.00
    5   10   47     -3.01      0.00
    7   10   47      5.36      0.00
    9   10   47      3.17      0.00
    0   11   47      0.50      0.00
    2   11   47      2.66      0.00
    4   11   47      2.90      0.00
    6   11   47      4.57      0.00
    8   11   47     -2.77      0.00
   10   11   47      4.06      0.00
    1   12   47     -4.61      0.00
    3   12   47     -6.00      0.00
    5   12   47      3.65      0.00
    7   12   47     -1.30      0.00
    9   12   47      0.50      0.00
   11   12   47      0.57      0.00
    0   13   47     -2.65      0.00
    2   13   47     -0.31      0.00
    4   13   47      2.19      0.00
    6   13   47      6.89      0.00
    8   13   47      2.18      0.00
   10   13   47     -6.84      0.00
   12   13   47     -3.15      0.00
    1   14   47     -0.15      0.00
    3   14   47     -0.77      0.00
    5   14   47      2.82      0.00
    7   14   47     -3.95      0.00
    9   14   47     -4.85      0.00
   11   14   47     -0.20      0.00
    0   15   47      9.13      0.00
    2   15   47     -2.23      0.00
    4   15   47     -8.39      0.00
    6   15   47     -3.51      0.00
    8   15   47     -6.01      0.00
   10   15   47      5.00      0.00
    1   16   47    -16.66      0.00
    3   16   47     -7.13      0.00
    5   16   47      2.98      0.00
    7   16   47    -12.68      0.00
    0   17   47     -2.75      0.00
    2   17   47      0.07      0.00
    4   17   47     -0.62      0.00
    6   17   47      2.93      0.00
    1   18   47    -11.69      0.00
    3   18   47     -6.23      0.00
    0    0   48     -1.52      0.00
    0    2   48     11.04      0.00
    2    2   48      4.30      0.00
    1    3   48      4.19      0.00
    0    4   48     -3.89      0.00
    2    4   48     -3.38      0.00
    4    4   48     -1.66      0.00
    1    5   48      2.46      0.00
    3    5   48      2.08      0.00
    0    6   48     -2.14      0.00
    2    6   48      2.63      0.00
    4    6   48      4.19      0.00
    6    6   48     -0.39      0.00
    1    7   48     -1.17      0.00
    3    7   48     -9.33      0.00
    5    7   48      4.30      0.00
    0    8   48      3.34      0.00
    2    8   48     -1.33      0.00
    4    8   48     -4.85      0.00
    6    8   48      0.31      0.00
    8    8   48      0.45      0.00
    1    9   48      3.48      0.00
    3    9   48     11.44      0.00
    5    9   48      0.16      0.00
    7    9   48     -2.13      0.00
    0   10   48     -0.58      0.00
    2   10   48     -0.24      0.00
    4   10   48      2.06      0.00
    6   10   48     -4.49      0.00
    8   10   48     -6.69      0.00
   10   10   48    -10.05      0.00
    1   11   48      2.25      0.00
    3   11   48      4.86      0.00
    5   11   48     11.39      0.00
    7   11   48      6.01      0.00
    9   11   48     -0.20      0.00
    0   12   48     -0.55      0.00
    2   12   48      1.93      0.00
    4   12   48      1.17      0.00
    6   12   48     -4.21      0.00
    8   12   48     -6.78      0.00
   10   12   48     -3.75      0.00
   12   12   48    -13.95      0.00
    1   13   48      4.65      0.00
    3   13   48      2.27      0.00
    5   13   48      8.01      0.00
    7   13   48      4.52      0.00
    9   13   48    -10.56      0.00
   11   13   48     -1.65      0.00
    0   14   48     -1.02      0.00
    2   14   48     -6.18      0.00
    4   14   48     -1.52      0.00
    6   14   48     -3.26      0.00
    8   14   48     -1.45      0.00
   10   14   48     -6.94      0.00
    1   15   48     -0.52      0.00
    3   15   48     -2.67      0.00
    5   15   48      9.51      0.00
    7   15   48     -4.77      0.00
    9   15   48     13.83      0.00
    0   16   48    -11.09      0.00
    2   16   48     -9.77      0.00
    4   16   48     -9.40      0.00
    6   16   48     -6.22      0.00
    8   16   48     -0.41      0.00
    1   17   48     10.11      0.00
    3   17   48      6.79      0.00
    5   17   48     12.84      0.00
    0   18   48    -14.77      0.00
    0    1   49     -0.43      0.00
    1    2   49     -1.80      0.00
    0    3   49     12.20      0.00
    2    3   49     -2.41      0.00
    1    4   49     -6.13      0.00
    3    4   49     -5.60      0.00
    0    5   49     -7.88      0.00
    2    5   49    -11.20      0.00
    4    5   49      1.08      0.00
    1    6   49      7.91      0.00
    3    6   49     -2.35      0.00
    5    6   49      3.69      0.00
    0    7   49     -4.37      0.00
    2    7   49      1.49      0.00
    4    7   49     -3.58      0.00
    6    7   49      4.62      0.00
    1    8   49     -1.15      0.00
    3    8   49      4.00      0.00
    5    8   49     -3.01      0.00
    7    8   49      1.70      0.00
    0    9   49     -2.98      0.00
    2    9   49     -1.16      0.00
    4    9   49      3.72      0.00
    6    9   49      5.45      0.00
    8    9   49      2.02      0.00
    1   10   49      1.13      0.00
    3   10   49     -0.43      0.00
    5   10   49      9.81      0.00
    7   10   49     -2.64      0.00
    9   10   49      1.82      0.00
    0   11   49     -6.74      0.00
    2   11   49     -2.14      0.00
    4   11   49      1.26      0.00
    6   11   49     -9.22      0.00
    8   11   49     -6.44      0.00
   10   11   49    -16.04      0.00
    1   12   49     -2.71      0.00
    3   12   49      2.83      0.00
    5   12   49     -0.67      0.00
    7   12   49      4.66      0.00
    9   12   49    -16.49      0.00
   11   12   49      8.17      0.00
    0   13   49     -1.16      0.00
    2   13   49     -2.72      0.00
    4   13   49     -1.52      0.00
    6   13   49      3.89      0.00
    8   13   49     -1.69      0.00
   10   13   49      9.93      0.00
   12   13   49      2.43      0.00
    1   14   49     -0.29      0.00
    3   14   49     -4.32      0.00
    5   14   49     -5.36      0.00
    7   14   49     -2.89      0.00
    9   14   49      0.85      0.00
    0   15   49     -2.51      0.00
    2   15   49      1.81      0.00
    4   15   49     -5.05      0.00
    6   15   49     -7.10      0.00
    8   15   49     -7.80      0.00
    1   16   49    -15.14      0.00
    3   16   49    -19.50      0.00
    5   16   49      2.10      0.00
    7   16   49     -9.71      0.00
    0   17   49     24.29      0.00
    2   17   49     20.96      0.00
    4   17   49      3.16      0.00
    1    1   50     -0.34      0.00
    0    2   50    -11.84      0.00
    1    3   50      3.89      0.00
    3    3   50      6.24      0.00
    0    4   50     -2.81      0.00
    2    4   50     -9.75      0.00
    1    5   50      5.05      0.00
    3    5   50     -1.27      0.00
    5    5   50      0.96      0.00
    0    6   50      6.05      0.00
    2    6   50      3.42      0.00
    4    6   50      9.78      0.00
    1    7   50      7.06      0.00
    3    7   50      1.12      0.00
    5    7   50      1.98      0.00
    7    7   50     -1.56      0.00
    0    8   50      2.19      0.00
    2    8   50      0.45      0.00
    4    8   50      6.46      0.00
    6    8   50     -4.16      0.00
    1    9   50     -2.51      0.00
    3    9   50      0.95      0.00
    5    9   50      1.92      0.00
    7    9   50      2.89      0.00
    9    9   50     -7.01      0.00
    0   10   50     -4.53      0.00
    2   10   50      2.21      0.00
    4   10   50     12.23      0.00
    6   10   50     14.31      0.00
    8   10   50     -5.00      0.00
    1   11   50      0.91      0.00
    3   11   50     -2.16      0.00
    5   11   50     -2.29      0.00
    7   11   50      2.21      0.00
    9   11   50      2.51      0.00
   11   11   50     -2.71      0.00
    0   12   50      1.14      0.00
    2   12   50      4.43      0.00
    4   12   50      4.55      0.00
    6   12   50    -11.93      0.00
    8   12   50      0.02      0.00
   10   12   50    -10.94      0.00
    1   13   50      0.95      0.00
    3   13   50      7.87      0.00
    5   13   50     -3.70      0.00
    7   13   50    -24.47      0.00
    9   13   50    -10.48      0.00
   11   13   50      2.58      0.00
    0   14   50      1.08      0.00
    2   14   50     -6.86      0.00
    4   14   50     -0.53      0.00
    6   14   50     -7.66      0.00
    8   14   50    -22.16      0.00
   10   14   50    -10.18      0.00
    1   15   50     -0.91      0.00
    3   15   50     -5.49      0.00
    5   15   50     -8.25      0.00
    7   15   50     -5.43      0.00
    0   16   50     11.18      0.00
    2   16   50     -1.30      0.00
    4   16   50      4.20      0.00
    6   16   50      5.61      0.00
    1   17   50     -0.30      0.00
    3   17   50     -4.99      0.00
    0    1   51     -5.55      0.00
    1    2   51     -4.76      0.00
    0    3   51      7.57      0.00
    2    3   51      3.43      0.00
    1    4   51     -3.84      0.00
    3    4   51      1.72      0.00
    0    5   51      2.86      0.00
    2    5   51      3.02      0.00
    4    5   51     -1.99      0.00
    1    6   51      3.36      0.00
    3    6   51     -1.19      0.00
    5    6   51      4.33      0.00
    0    7   51      1.72      0.00
    2    7   51     -3.86      0.00
    4    7   51     -2.24      0.00
    6    7   51     -1.90      0.00
    1    8   51      0.50      0.00
    3    8   51      8.24      0.00
    5    8   51     -7.25      0.00
    7    8   51     -0.35      0.00
    0    9   51      8.02      0.00
    2    9   51     -3.80      0.00
    4    9   51     -0.87      0.00
    6    9   51      1.19      0.00
    8    9   51     -5.68      0.00
    1   10   51      3.65      0.00
    3   10   51     -5.33      0.00
    5   10   51      2.05      0.00
    7   10   51     -5.77      0.00
    9   10   51     -6.73      0.00
    0   11   51     -8.48      0.00
    2   11   51      1.49      0.00
    4   11   51     -3.89      0.00
    6   11   51      7.36      0.00
    8   11   51     -0.54      0.00
   10   11   51      3.94      0.00
    1   12   51     -5.40      0.00
    3   12   51      5.08      0.00
    5   12   51    -13.81      0.00
    7   12   51     -1.66      0.00
    9   12   51     -5.31      0.00
   11   12   51      3.36      0.00
    0   13   51    -10.69      0.00
    2   13   51     -8.86      0.00
    4   13   51      2.47      0.00
    6   13   51     -1.13      0.00
    8   13   51     -6.16      0.00
   10   13   51      0.81      0.00
    1   14   51     -9.46      0.00
    3   14   51     -9.65      0.00
    5   14   51     -4.13      0.00
    7   14   51    -18.58      0.00
    9   14   51      9.37      0.00
    0   15   51    -23.09      0.00
    2   15   51    -11.21      0.00
    4   15   51    -19.22      0.00
    6   15   51    -12.67      0.00
    8   15   51     -4.16      0.00
    1   16   51      1.73      0.00
    3   16   51      4.33      0.00
    5   16   51      1.15      0.00
    0   17   51     13.25      0.00
    2   17   51    -20.51      0.00
    0    0   52     22.62      0.00
    0    2   52     -4.28      0.00
    2    2   52     -0.79      0.00
    1    3   52      0.63      0.00
    0    4   52     -0.33      0.00
    2    4   52     -1.87      0.00
    4    4   52     -5.27      0.00
    1    5   52     -3.12      0.00
    3    5   52     -0.07      0.00
    0    6   52     -1.48      0.00
    2    6   52      4.00      0.00
    4    6   52     -0.53      0.00
    6    6   52      4.47      0.00
    1    7   52     -8.74      0.00
    3    7   52     -5.74      0.00
    5    7   52      1.04      0.00
    0    8   52      3.88      0.00
    2    8   52     -1.91      0.00
    4    8   52     -3.62      0.00
    6    8   52      0.28      0.00
    8    8   52      3.07      0.00
    1    9   52      3.97      0.00
    3    9   52     -7.46      0.00
    5    9   52     -5.43      0.00
    7    9   52     -2.68      0.00
    0   10   52      2.26      0.00
    2   10   52      2.46      0.00
    4   10   52     11.49      0.00
    6   10   52     -5.73      0.00
    8   10   52     -0.49      0.00
   10   10   52     -2.20      0.00
    1   11   52     -2.90      0.00
    3   11   52      5.54      0.00
    5   11   52      1.85      0.00
    7   11   52      1.23      0.00
    9   11   52     -5.78      0.00
    0   12   52      4.62      0.00
    2   12   52      4.11      0.00
    4   12   52      0.46      0.00
    6   12   52     -3.39      0.00
    8   12   52     -3.08      0.00
   10   12   52      6.02      0.00
    1   13   52      3.28      0.00
    3   13   52     -3.55      0.00
    5   13   52      0.43      0.00
    7   13   52     -6.05      0.00
    9   13   52      1.85      0.00
    0   14   52     -5.91      0.00
    2   14   52      5.12      0.00
    4   14   52      3.12      0.00
    6   14   52     10.00      0.00
    8   14   52     -3.56      0.00
    1   15   52     20.44      0.00
    3   15   52     -9.81      0.00
    5   15   52      1.05      0.00
    7   15   52     -8.33      0.00
    0   16   52      7.37      0.00
    2   16   52    -14.68      0.00
    4   16   52     10.30      0.00
    0    1   53     -3.93      0.00
    1    2   53      4.74      0.00
    0    3   53     -4.21      0.00
    2    3   53     -7.06      0.00
    1    4   53     -7.95      0.00
    3    4   53     -9.09      0.00
    0    5   53      5.63      0.00
    2    5   53     -2.49      0.00
    4    5   53     -2.13      0.00
    1    6   53      0.20      0.00
    3    6   53      1.64      0.00
    5    6   53      1.30      0.00
    0    7   53      4.43      0.00
    2    7   53      7.86      0.00
    4    7   53      1.36      0.00
    6    7   53      0.63      0.00
    1    8   53    -11.07      0.00
    3    8   53     -2.04      0.00
    5    8   53      4.79      0.00
    7    8   53     -2.32      0.00
    0    9   53     -6.38      0.00
    2    9   53     -4.18      0.00
    4    9   53      2.13      0.00
    6    9   53     -0.32      0.00
    8    9   53     -4.31      0.00
    1   10   53      7.60      0.00
    3   10   53      7.67      0.00
    5   10   53      5.80      0.00
    7   10   53     -9.59      0.00
    9   10   53     -5.50      0.00
    0   11   53     -1.19      0.00
    2   11   53      0.64      0.00
    4   11   53     -0.63      0.00
    6   11   53      4.19      0.00
    8   11   53      6.45      0.00
   10   11   53     -2.06      0.00
    1   12   53      1.06      0.00
    3   12   53     21.07      0.00
    5   12   53     -3.43      0.00
    7   12   53    -13.94      0.00
    9   12   53      2.13      0.00
   11   12   53      1.23      0.00
    0   13   53      2.77      0.00
    2   13   53      6.79      0.00
    4   13   53      3.19      0.00
    6   13   53    -19.68      0.00
    8   13   53     -7.48      0.00
   10   13   53    -10.35      0.00
    1   14   53     17.40      0.00
    3   14   53      3.12      0.00
    5   14   53      7.94      0.00
    7   14   53      2.39      0.00
    0   15   53     28.97      0.00
    2   15   53     21.27      0.00
    4   15   53      8.39      0.00
    6   15   53     22.49      0.00
    1   16   53     17.13      0.00
    3   16   53     -9.90      0.00
    1    1   54    -10.03      0.00
    0    2   54      3.77      0.00
    1    3   54     -0.81      0.00
    3    3   54    -12.19      0.00
    0    4   54     -2.52      0.00
    2    4   54      1.33      0.00
    1    5   54      0.94      0.00
    3    5   54     -1.57      0.00
    5    5   54    -10.04      0.00
    0    6   54     13.64      0.00
    2    6   54      5.89      0.00
    4    6   54      0.37      0.00
    1    7   54      2.78      0.00
    3    7   54      1.86      0.00
    5    7   54      2.22      0.00
    7    7   54      7.91      0.00
    0    8   54     -6.16      0.00
    2    8   54     -3.52      0.00
    4    8   54     -4.50      0.00
    6    8   54     -5.37      0.00
    1    9   54      7.12      0.00
    3    9   54      7.40      0.00
    5    9   54      5.72      0.00
    7    9   54     -3.26      0.00
    9    9   54     -2.69      0.00
    0   10   54      0.60      0.00
    2   10   54     -3.95      0.00
    4   10   54      3.10      0.00
    6   10   54      6.11      0.00
    8   10   54     -0.93      0.00
    1   11   54     -2.22      0.00
    3   11   54      5.44      0.00
    5   11   54     -7.48      0.00
    7   11   54     -0.33      0.00
    9   11   54     -6.28      0.00
   11   11   54     -0.75      0.00
    0   12   54     -6.18      0.00
    2   12   54      4.68      0.00
    4   12   54      6.86      0.00
    6   12   54    -10.97      0.00
    8   12   54     -2.29      0.00
   10   12   54     12.26      0.00
    1   13   54     -9.32      0.00
    3   13   54      2.85      0.00
    5   13   54      9.42      0.00
    7   13   54     -8.85      0.00
    9   13   54      0.01      0.00
    0   14   54      9.65      0.00
    2   14   54      1.31      0.00
    4   14   54     -2.01      0.00
    6   14   54     -4.28      0.00
    8   14   54     16.33      0.00
    1   15   54     11.56      0.00
    3   15   54      5.32      0.00
    5   15   54     -9.59      0.00
    0   16   54     13.83      0.00
    2   16   54     -1.99      0.00
    0    1   55      2.77      0.00
    1    2   55     -5.74      0.00
    0    3   55     13.02      0.00
    2    3   55      4.89      0.00
    1    4   55      3.50      0.00
    3    4   55      6.93      0.00
    0    5   55      2.17      0.00
    2    5   55      2.37      0.00
    4    5   55      1.23      0.00
    1    6   55      2.06      0.00
    3    6   55     -2.73      0.00
    5    6   55      0.27      0.00
    0    7   55      2.10      0.00
    2    7   55     -4.53      0.00
    4    7   55      0.56      0.00
    6    7   55     -7.21      0.00
    1    8   55      5.67      0.00
    3    8   55     -9.72      0.00
    5    8   55     -4.77      0.00
    7    8   55      4.56      0.00
    0    9   55      4.74      0.00
    2    9   55      9.92      0.00
    4    9   55      4.53      0.00
    6    9   55     -1.55      0.00
    8    9   55     -3.83      0.00
    1   10   55    -13.13      0.00
    3   10   55      8.59      0.00
    5   10   55      8.29      0.00
    7   10   55     -6.38      0.00
    9   10   55     -1.79      0.00
    0   11   55     -2.84      0.00
    2   11   55      4.19      0.00
    4   11   55     -0.70      0.00
    6   11   55      0.18      0.00
    8   11   55      3.25      0.00
   10   11   55      2.90      0.00
    1   12   55      5.91      0.00
    3   12   55      2.54      0.00
    5   12   55     -7.68      0.00
    7   12   55      0.14      0.00
    9   12   55     -3.30      0.00
    0   13   55     21.77      0.00
    2   13   55     11.35      0.00
    4   13   55      0.73      0.00
    6   13   55     -2.69      0.00
    8   13   55    -20.05      0.00
    1   14   55     13.76      0.00
    3   14   55     12.46      0.00
    5   14   55      3.83      0.00
    7   14   55      0.49      0.00
    0   15   55     30.03      0.00
    2   15   55      5.19      0.00
    4   15   55     -3.82      0.00
    0    0   56      1.58      0.00
    0    2   56    -12.55      0.00
    2    2   56     -6.22      0.00
    1    3   56     -1.19      0.00
    0    4   56      9.62      0.00
    2    4   56      0.57      0.00
    4    4   56     -3.60      0.00
    1    5   56      3.50      0.00
    3    5   56      0.05      0.00
    0    6   56     -2.51      0.00
    2    6   56     11.52      0.00
    4    6   56     -3.45      0.00
    6    6   56      7.86      0.00
    1    7   56     -8.31      0.00
    3    7   56      4.19      0.00
    5    7   56      3.37      0.00
    0    8   56     -3.86      0.00
    2    8   56     -8.03      0.00
    4    8   56      8.99      0.00
    6    8   56     -4.66      0.00
    8    8   56     -0.28      0.00
    1    9   56     -6.87      0.00
    3    9   56    -21.19      0.00
    5    9   56     -1.87      0.00
    7    9   56     -4.78      0.00
    0   10   56     -8.47      0.00
    2   10   56     -5.16      0.00
    4   10   56     -7.70      0.00
    6   10   56      8.11      0.00
    8   10   56    -13.65      0.00
   10   10   56     -6.15      0.00
    1   11   56    -18.36      0.00
    3   11   56     -4.64      0.00
    5   11   56    -18.67      0.00
    7   11   56      4.34      0.00
    9   11   56      1.06      0.00
    0   12   56     -9.27      0.00
    2   12   56     -7.54      0.00
    4   12   56      4.00      0.00
    6   12   56    -23.20      0.00
    8   12   56      6.52      0.00
    1   13   56      6.39      0.00
    3   13   56    -15.54      0.00
    5   13   56      4.21      0.00
    7   13   56      0.64      0.00
    0   14   56     12.49      0.00
    2   14   56     10.99      0.00
    4   14   56      1.92      0.00
    6   14   56     10.83      0.00
    1   15   56     13.81      0.00
    3   15   56     -4.47      0.00
    0    1   57    -17.15      0.00
    1    2   57     11.34      0.00
    0    3   57      7.40      0.00
    2    3   57     -3.83      0.00
    1    4   57     -1.36      0.00
    3    4   57      6.37      0.00
    0    5   57     10.52      0.00
    2    5   57      6.32      0.00
    4    5   57    -11.30      0.00
    1    6   57     11.84      0.00
    3    6   57      9.25      0.00
    5    6   57      5.33      0.00
    0    7   57    -11.00      0.00
    2    7   57     -8.70      0.00
    4    7   57     -1.83      0.00
    6    7   57     -2.29      0.00
    1    8   57     -3.67      0.00
    3    8   57      0.49      0.00
    5    8   57      0.02      0.00
    7    8   57     -0.83      0.00
    0    9   57      6.12      0.00
    2    9   57     -1.76      0.00
    4    9   57      0.19      0.00
    6    9   57     -3.82      0.00
    8    9   57      1.64      0.00
    1   10   57     -3.19      0.00
    3   10   57     -9.54      0.00
    5   10   57      4.11      0.00
    7   10   57     -7.82      0.00
    9   10   57      2.18      0.00
    0   11   57     -3.66      0.00
    2   11   57     11.76      0.00
    4   11   57      9.72      0.00
    6   11   57      2.34      0.00
    8   11   57      3.25      0.00
   10   11   57      1.64      0.00
    1   12   57     -4.65      0.00
    3   12   57     -4.50      0.00
    5   12   57     -2.56      0.00
    7   12   57     -4.58      0.00
    9   12   57      4.38      0.00
    0   13   57     12.20      0.00
    2   13   57      0.11      0.00
    4   13   57      2.33      0.00
    6   13   57     -0.06      0.00
    1   14   57     -9.88      0.00
    3   14   57     -6.87      0.00
    5   14   57     -2.44      0.00
    0   15   57     -9.21      0.00
    1    1   58     -3.98      0.00
    0    2   58      1.08      0.00
    1    3   58      9.03      0.00
    3    3   58      5.31      0.00
    0    4   58     -2.73      0.00
    2    4   58     -2.85      0.00
    1    5   58      7.15      0.00
    3    5   58     -5.00      0.00
    5    5   58    -15.18      0.00
    0    6   58    -16.03      0.00
    2    6   58     -4.84      0.00
    4    6   58     -5.03      0.00
    1    7   58      0.28      0.00
    3    7   58      2.75      0.00
    5    7   58     -4.41      0.00
    7    7   58     -2.52      0.00
    0    8   58      7.58      0.00
    2    8   58      1.95      0.00
    4    8   58     -9.70      0.00
    6    8   58     18.38      0.00
    1    9   58     -2.42      0.00
    3    9   58     10.66      0.00
    5    9   58      9.23      0.00
    7    9   58      0.88      0.00
    9    9   58     12.70      0.00
    0   10   58     -3.84      0.00
    2   10   58     -0.20      0.00
    4   10   58      0.85      0.00
    6   10   58    -13.20      0.00
    8   10   58     -3.83      0.00
    1   11   58     10.17      0.00
    3   11   58     14.36      0.00
    5   11   58     -0.70      0.00
    7   11   58      7.37      0.00
    9   11   58      0.03      0.00
    0   12   58     13.00      0.00
    2   12   58     -2.66      0.00
    4   12   58     15.93      0.00
    6   12   58      5.05      0.00
    8   12   58     -2.62      0.00
    1   13   58     23.49      0.00
    3   13   58      2.88      0.00
    5   13   58     -8.44      0.00
    0   14   58      4.74      0.00
    2   14   58     14.82      0.00
    4   14   58     -3.92      0.00
    0    1   59     10.25      0.00
    1    2   59      8.22      0.00
    0    3   59      8.70      0.00
    2    3   59     -5.16      0.00
    1    4   59     -5.44      0.00
    3    4   59    -10.75      0.00
    0    5   59      3.98      0.00
    2    5   59      0.37      0.00
    4    5   59     -0.75      0.00
    1    6   59     -4.47      0.00
    3    6   59      0.67      0.00
    5    6   59     -5.16      0.00
    0    7   59     -4.98      0.00
    2    7   59      1.83      0.00
    4    7   59     13.07      0.00
    6    7   59      2.21      0.00
    1    8   59     -3.36      0.00
    3    8   59    -10.26      0.00
    5    8   59      0.65      0.00
    7    8   59     13.96      0.00
    0    9   59      0.76      0.00
    2    9   59    -11.30      0.00
    4    9   59     -4.19      0.00
    6    9   59     -1.85      0.00
    8    9   59     -3.66      0.00
    1   10   59     -3.59      0.00
    3   10   59     -1.06      0.00
    5   10   59      1.57      0.00
    7   10   59      2.21      0.00
    9   10   59      3.29      0.00
    0   11   59     -5.32      0.00
    2   11   59     -3.39      0.00
    4   11   59    -15.12      0.00
    6   11   59    -15.06      0.00
    8   11   59      2.27      0.00
    1   12   59     -2.03      0.00
    3   12   59      4.75      0.00
    5   12   59      3.51      0.00
    7   12   59     -3.81      0.00
    0   13   59     -9.87      0.00
    2   13   59     -8.35      0.00
    4   13   59     -4.53      0.00
    1   14   59     -0.15      0.00
    0    0   60    -33.90      0.00
    0    2   60      9.57      0.00
    2    2   60     11.03      0.00
    1    3   60     -0.70      0.00
    0    4   60      7.60      0.00
    2    4   60      8.40      0.00
    4    4   60      6.02      0.00
    1    5   60     16.84      0.00
    3    5   60      3.24      0.00
    0    6   60     -0.38      0.00
    2    6   60      3.93      0.00
    4    6   60      2.76      0.00
    6    6   60     -1.51      0.00
    1    7   60      7.57      0.00
    3    7   60     -8.32      0.00
    5    7   60     -0.22      0.00
    0    8   60    -12.55      0.00
    2    8   60     -7.25      0.00
    4    8   60     -9.85      0.00
    6    8   60      5.21      0.00
    8    8   60     -4.82      0.00
    1    9   60      0.03      0.00
    3    9   60      2.63      0.00
    5    9   60      2.73      0.00
    7    9   60     -7.13      0.00
    0   10   60      6.83      0.00
    2   10   60     -2.92      0.00
    4   10   60      2.75      0.00
    6   10   60     -6.68      0.00
    8   10   60     -9.95      0.00
    1   11   60     -2.64      0.00
    3   11   60      4.76      0.00
    5   11   60      7.85      0.00
    7   11   60      6.64      0.00
    0   12   60      3.45      0.00
    2   12   60     -0.33      0.00
    4   12   60     -1.10      0.00
    6   12   60     -0.12      0.00
    1   13   60      0.09      0.00
    3   13   60      1.28      0.00
    0    1   61     14.39      0.00
    1    2   61     -6.59      0.00
    0    3   61     -6.32      0.00
    2    3   61     -3.19      0.00
    1    4   61     12.82      0.00
    3    4   61      2.56      0.00
    0    5   61      5.89      0.00
    2    5   61     12.28      0.00
    4    5   61     -7.04      0.00
    1    6   61    -18.72      0.00
    3    6   61      4.01      0.00
    5    6   61     -5.99      0.00
    0    7   61     16.75      0.00
    2    7   61      7.80      0.00
    4    7   61     -2.07      0.00
    6    7   61      9.10      0.00
    1    8   61     10.14      0.00
    3    8   61    -12.56      0.00
    5    8   61      3.83      0.00
    7    8   61     -3.97      0.00
    0    9   61      1.22      0.00
    2    9   61     -2.34      0.00
    4    9   61     16.39      0.00
    6    9   61    -11.32      0.00
    8    9   61      4.62      0.00
    1   10   61     -5.53      0.00
    3   10   61     -1.84      0.00
    5   10   61     -3.68      0.00
    7   10   61    -11.69      0.00
    0   11   61     -1.28      0.00
    2   11   61     -0.57      0.00
    4   11   61      7.43      0.00
    6   11   61      6.82      0.00
    1   12   61     -9.15      0.00
    3   12   61     -8.63      0.00
    5   12   61      7.90      0.00
    0   13   61     14.06      0.00
    2   13   61      9.61      0.00
    1    1   62      2.80      0.00
    0    2   62     -9.78      0.00
    1    3   62      3.57      0.00
    3    3   62     -1.11      0.00
    0    4   62      0.66      0.00
    2    4   62    -11.13      0.00
    1    5   62      1.74      0.00
    3    5   62      2.45      0.00
    5    5   62      3.50      0.00
    0    6   62      2.61      0.00
    2    6   62      3.15      0.00
    4    6   62     -7.70      0.00
    1    7   62      4.74      0.00
    3    7   62     17.38      0.00
    5    7   62      3.65      0.00
    7    7   62     15.57      0.00
    0    8   62     -0.91      0.00
    2    8   62     14.09      0.00
    4    8   62     -2.46      0.00
    6    8   62      5.69      0.00
    1    9   62      3.64      0.00
    3    9   62     -3.27      0.00
    5    9   62     -8.57      0.00
    7    9   62    -18.11      0.00
    9    9   62      6.62      0.00
    0   10   62     14.05      0.00
    2   10   62     -9.06      0.00
    4   10   62    -10.31      0.00
    6   10   62     -0.57      0.00
    8   10   62     -1.83      0.00
    1   11   62     -0.33      0.00
    3   11   62      6.05      0.00
    5   11   62     -1.87      0.00
    0   12   62    -13.46      0.00
    2   12   62     -5.81      0.00
    4   12   62      8.19      0.00
    0    1   63      3.70      0.00
    1    2   63    -17.12      0.00
    0    3   63      2.96      0.00
    2    3   63     -0.77      0.00
    1    4   63      0.49      0.00
    3    4   63      4.52      0.00
    0    5   63     -4.44      0.00
    2    5   63      7.01      0.00
    4    5   63     -2.90      0.00
    1    6   63      7.77      0.00
    3    6   63    -10.43      0.00
    5    6   63     -0.36      0.00
    0    7   63     16.26      0.00
    2    7   63    -12.26      0.00
    4    7   63      3.02      0.00
    6    7   63     -3.21      0.00
    1    8   63     -7.47      0.00
    3    8   63      9.35      0.00
    5    8   63      2.94      0.00
    7    8   63     -4.40      0.00
    0    9   63     -5.33      0.00
    2    9   63      9.13      0.00
    4    9   63     11.43      0.00
    6    9   63     -3.32      0.00
    8    9   63      6.10      0.00
    1   10   63     15.95      0.00
    3   10   63     -4.78      0.00
    5   10   63     -5.66      0.00
    7   10   63     -5.10      0.00
    0   11   63     -6.33      0.00
    2   11   63     -6.05      0.00
    4   11   63     11.00      0.00
    1   12   63      5.89      0.00
    0    0   64     -0.93      0.00
    0    2   64     -4.18      0.00
    2    2   64      5.47      0.00
    1    3   64     14.39      0.00
    0    4   64      1.44      0.00
    2    4   64     -3.47      0.00
    4    4   64    -10.00      0.00
    1    5   64    -12.69      0.00
    3    5   64     -3.50      0.00
    0    6   64     -5.11      0.00
    2    6   64     -0.58      0.00
    4    6   64      4.91      0.00
    6    6   64      4.20      0.00
    1    7   64     15.00      0.00
    3    7   64    -13.63      0.00
    5    7   64      7.03      0.00
    0    8   64      2.49      0.00
    2    8   64      8.47      0.00
    4    8   64      4.57      0.00
    6    8   64     -5.33      0.00
    8    8   64      0.27      0.00
    1    9   64    -11.11      0.00
    3    9   64      6.62      0.00
    5    9   64      9.50      0.00
    7    9   64      2.71      0.00
    0   10   64     11.62      0.00
    2   10   64     -0.75      0.00
    4   10   64      9.07      0.00
    6   10   64     17.98      0.00
    1   11   64     -5.61      0.00
    3   11   64     -6.06      0.00
    0    1   65     -1.07      0.00
    1    2   65     10.86      0.00
    0    3   65      1.47      0.00
    2    3   65     14.89      0.00
    1    4   65      2.69      0.00
    3    4   65      5.74      0.00
    0    5   65     -0.71      0.00
    2    5   65    -11.95      0.00
    4    5   65     -3.04      0.00
    1    6   65      8.02      0.00
    3    6   65      5.71      0.00
    5    6   65     -6.92      0.00
    0    7   65     -2.21      0.00
    2    7   65     15.57      0.00
    4    7   65      3.11      0.00
    6    7   65      7.49      0.00
    1    8   65      7.66      0.00
    3    8   65     11.95      0.00
    5    8   65     -0.18      0.00
    7    8   65     -6.39      0.00
    0    9   65     -4.62      0.00
    2    9   65    -29.85      0.00
    4    9   65    -12.32      0.00
    6    9   65    -15.47      0.00
    1   10   65      8.21      0.00
    3   10   65    -17.87      0.00
    0   11   65    -14.34      0.00
    1    1   66     -9.28      0.00
    0    2   66     12.02      0.00
    1    3   66    -12.63      0.00
    3    3   66    -19.14      0.00
    0    4   66    -20.40      0.00
    2    4   66     16.56      0.00
    1    5   66      8.76      0.00
    3    5   66     17.88      0.00
    5    5   66      0.77      0.00
    0    6   66     24.02      0.00
    2    6   66    -18.79      0.00
    4    6   66      2.08      0.00
    1    7   66     -9.21      0.00
    3    7   66     -5.98      0.00
    5    7   66      3.86      0.00
    7    7   66     -6.88      0.00
    0    8   66    -13.50      0.00
    2    8   66     14.49      0.00
    4    8   66     -9.92      0.00
    6    8   66     -1.90      0.00
    1    9   66     -1.00      0.00
    3    9   66      1.56      0.00
    5    9   66     -4.83      0.00
    0   10   66     11.35      0.00
    2   10   66     -9.74      0.00
    0    1   67     -4.35      0.00
    1    2   67      1.20      0.00
    0    3   67     15.64      0.00
    2    3   67     -2.91      0.00
    1    4   67    -12.13      0.00
    3    4   67    -17.95      0.00
    0    5   67     -7.94      0.00
    2    5   67     10.29      0.00
    4    5   67     10.97      0.00
    1    6   67      7.28      0.00
    3    6   67      1.99      0.00
    5    6   67     -0.03      0.00
    0    7   67     13.67      0.00
    2    7   67      0.07      0.00
    4    7   67      0.54      0.00
    6    7   67     -8.62      0.00
    1    8   67      3.72      0.00
    3    8   67     14.46      0.00
    5    8   67      9.55      0.00
    0    9   67     18.62      0.00
    2    9   67    -14.20      0.00
    0    0   68     -3.47      0.00
    0    2   68      3.06      0.00
    2    2   68     -4.46      0.00
    1    3   68     13.86      0.00
    0    4   68    -10.56      0.00
    2    4   68      0.48      0.00
    4    4   68      5.73      0.00
    1    5   68    -19.44      0.00
    3    5   68      2.33      0.00
    0    6   68      8.35      0.00
    2    6   68     -5.05      0.00
    4    6   68     -6.40      0.00
    6    6   68      3.16      0.00
    1    7   68     18.80      0.00
    3    7   68    -13.07      0.00
    5    7   68      5.62      0.00
    0    8   68      0.75      0.00
    2    8   68      4.48      0.00
    4    8   68     15.01      0.00
    1    9   68    -12.09      0.00
    0    1   69      6.62      0.00
    1    2   69     -4.40      0.00
    0    3   69      6.13      0.00
    2    3   69     18.78      0.00
    1    4   69     11.17      0.00
    3    4   69      7.82      0.00
    0    5   69     16.84      0.00
    2    5   69      7.48      0.00
    4    5   69     16.89      0.00
    1    6   69    -18.09      0.00
    3    6   69     -6.19      0.00
    5    6   69      2.50      0.00
    0    7   69    -11.75      0.00
    2    7   69     -3.47      0.00
    4    7   69     -7.72      0.00
    1    8   69      7.90      0.00
    1    1   70     -5.13      0.00
    0    2   70     33.60      0.00
    1    3   70      5.41      0.00
    3    3   70     13.01      0.00
    0    4   70    -21.32      0.00
    2    4   70     18.33      0.00
    1    5   70      5.87      0.00
    3    5   70      8.47      0.00
    5    5   70      1.98      0.00
    0    6   70     28.88      0.00
    2    6   70    -18.06      0.00
    4    6   70    -10.65      0.00
    1    7   70     -4.23      0.00
    0    1   71      2.43      0.00
    1    2   71     16.84      0.00
    0    3   71     -5.32      0.00
    2    3   71      2.67      0.00
    1    4   71    -24.10      0.00
    3    4   71      2.12      0.00
    0    5   71     -7.72      0.00
    2    5   71    -19.04      0.00
    1    6   71     11.80      0.00
    0    0   72      1.23      0.00
    0    2   72      3.49      0.00
    2    2   72      0.24      0.00
    1    3   72     15.98      0.00
    0    4   72     -5.84      0.00
    2    4   72     -4.49      0.00
    0    1   73     -4.04      0.00
    1    2   73     10.53      0.00
   13   20    1      6.74      0.00
    0    7    3    -12.06      0.00
   13   20    3     -7.43      0.00
   13   20    5     -1.87      0.00
    9   22    5      3.29      0.00
    6   23    5      4.01      0.00
   13   20    7      7.52      0.00
    9   22    7    -10.78      0.00
    6   23    7    -11.40      0.00
    0    0    8    190.88      0.00
   11   21    8     -1.84      0.00
    9   22    9      1.09      0.00
    6   23    9      5.85      0.00
   11   21   10      4.71      0.00
   14   19   11     14.68      0.00
    0    0   12    -57.81      0.00
    5   23   12    -14.95      0.00
   15   18   13     -3.89      0.00
   14   19   13     11.16      0.00
    8   22   14     15.70      0.00
    5   23   14      4.33      0.00
   16   17   15     -7.27      0.00
   15   18   15     11.61      0.00
    4   23   15      3.18      0.00
   12   20   16     -3.69      0.00
    8   22   16     -0.80      0.00
   16   17   17     -6.87      0.00
   10   21   17    -18.46      0.00
    4   23   17    -13.93      0.00
    3   23   18      5.27      0.00
    7   22   19      2.75      0.00
    0   23   19     -6.41      0.00
    2   23   19      6.68      0.00
   13   19   20      5.00      0.00
    1   23   20      2.78      0.00
   11   20   21     -0.72      0.00
    0   23   21      4.21      0.00
    1    1   22    -33.10      0.00
   14   18   22     -2.97      0.00
    9   21   22     -0.56      0.00
    6   22   22     -0.05      0.00
   16   16   24     19.09      0.00
   15   17   24      1.34      0.00
   12   19   25     10.67      0.00
    8   21   25     -2.26      0.00
    5   22   25      8.34      0.00
   10   20   26      1.20      0.00
    4   22   26      4.73      0.00
   13   18   27     -1.55      0.00
    3   22   27     -0.66      0.00
    7   21   28      0.33      0.00
    2   22   28     -0.73      0.00
   15   16   29      5.98      0.00
   14   17   29     -8.85      0.00
    9   20   29      4.97      0.00
    1   22   29      7.72      0.00
   12   18   32      1.25      0.00
    8   20   32    -18.53      0.00
    5   21   32     -1.17      0.00
   10   19   33     12.42      0.00
    4   21   33    -11.84      0.00
   15   15   34     -0.85      0.00
   14   16   34      8.34      0.00
    3   21   34    -12.60      0.00
   11   18   35      0.97      0.00
    0   21   35      5.75      0.00
    2   21   35      4.78      0.00
    6   20   36     -3.35      0.00
   13   16   37      2.99      0.00
    8   19   37     -4.75      0.00
    5   20   37    -16.74      0.00
   10   18   38      5.23      0.00
    4   20   38      2.86      0.00
    3   20   39     10.53      0.00
   12   16   40      5.07      0.00
    0   20   40     -4.45      0.00
    2   20   40      6.41      0.00
    6   19   41     -8.85      0.00
    8   18   42     -6.71      0.00
    5   19   42      9.08      0.00
   11   16   43     -7.01      0.00
    7   18   43     -7.58      0.00
    4   19   43     21.33      0.00
    9   17   44     -4.22      0.00
    3   19   44      9.79      0.00
    0   19   45      8.42      0.00
   11   15   46     -0.72      0.00
    9   16   47      0.10      0.00
    2   18   48    -17.31      0.00
   11   14   49     -9.38      0.00
    9   15   50     -6.46      0.00
   12   12   52     20.32      0.00
   11   13   52      1.14      0.00
    6   16   52     -7.25      0.00
    1   17   52      4.09      0.00
    9   14   53    -17.00      0.00
    5   16   53     12.21      0.00
    1   16   55     -9.34      0.00
   10   12   56     -0.05      0.00
    8   13   57      5.46      0.00
    2   15   57      3.98      0.00
    7   13   58    -13.47      0.00
    6   13   59      3.79      0.00
    3   14   59     11.21      0.00
    5   13   60     -0.41      0.00
    0   14   60    -20.95      0.00
    9   10   61     -8.26      0.00
    8   11   61     -3.01      0.00
    4   13   61    -13.20      0.00
    7   11   62     -1.00      0.00
    1   13   62     -3.24      0.00
    6   11   63      5.37      0.00
    3   12   63     13.04      0.00
    5   11   64      4.76      0.00
    0   12   64      2.67      0.00
    5   10   65      7.10      0.00
    2   11   65     -7.40      0.00
    4   10   66     -5.54      0.00
    4    9   67      5.64      0.00
    1   10   67      7.30      0.00
    3    9   68    -17.87      0.00
    3    8   69    -13.33      0.00
    3    7   70     10.28      0.00
    4    5   71      1.41      0.00
    3    6   71    -27.03      0.00
    4    4   72     -0.38      0.00
    1    5   72      7.17      0.00
    0    3   73    -19.89      0.00
    2    3   73      2.83      0.00
    1    4   73      3.94      0.00
    0    0    0      0.00      0.00
# SQUEEZE RESULTS (Version =  30715)
# Note: Data are Listed for all Voids in the P1 Unit Cell
# i.e. Centre of Gravity, Solvent Accessible Volume,
# Recovered number of Electrons in the Void and
# Details about the Squeezed Material
loop_
  _platon_squeeze_void_nr
  _platon_squeeze_void_average_x
  _platon_squeeze_void_average_y
  _platon_squeeze_void_average_z
  _platon_squeeze_void_volume
  _platon_squeeze_void_count_electrons
  _platon_squeeze_void_content
   1 -0.071 -0.002 -0.002     15450      2827 ' '
# Missing Reflections Below sin(th)/lambda = 0.25
loop_
  _platon_missing_refln_index_h
  _platon_missing_refln_index_k
  _platon_missing_refln_index_l
  _platon_missing_refln_theta
    0    7    3     7.395
    0    0    8     2.700
    0    0   12     4.053
    1    1   22     7.591
_platon_squeeze_void_probe_radius                  1.20
_platon_squeeze_details
)
TITL swy2      I 41/a m d   R = 0.10
CELL   19.5110   19.5110   60.3400     90.00     90.00     90.00
SPGR I41/amd
# Solvent Accessible Volume =   15583.9
# Electrons Found in S.A.V. =    2822.2
# Note: Atoms in Void as Cxxx and Qxxx all others
Q101 1.000 0.751 0.133 !       1.98 eA-3
Q102 1.000 0.744 0.164 !       1.56 eA-3
Q103 0.500 0.563 0.012 !       1.36 eA-3
C104 0.660 0.754 0.109 !       1.16 eA-3
C105 1.000 0.855 0.210 !       1.15 eA-3
C106 0.761 0.245 0.152 !       1.09 eA-3
C107 0.689 0.769 0.137 !       1.09 eA-3
C108 0.238 0.748 0.176 !       1.08 eA-3
Q109 0.500 0.439 0.014 !       1.08 eA-3
C110 1.000 0.503 0.090 !       1.06 eA-3
Q111 0.710 0.251 0.246 !       1.05 eA-3
C112 0.735 0.753 0.141 !       1.04 eA-3
C113 0.500 0.509 0.117 !       1.01 eA-3
C114 0.329 0.767 0.119 !       1.00 eA-3
C115 1.000 0.887 0.199 !       0.99 eA-3
Q116 0.500 0.719 0.064 !       0.93 eA-3
C117 0.015 0.363 0.125 !       0.90 eA-3
C118 0.285 0.734 0.126 !       0.87 eA-3
C119 0.802 0.746 0.051 !       0.86 eA-3
C120 0.500 0.058 0.118 !       0.86 eA-3
C121 0.833 0.747 0.062 !       0.86 eA-3
Q122 0.030 0.746 0.148 !       0.84 eA-3
C123 1.000 0.358 0.143 !       0.83 eA-3
C124 0.500 0.045 0.102 !       0.83 eA-3
Q125 1.000 0.760 0.148 !       0.83 eA-3
C126 0.500 0.864 0.200 !       0.81 eA-3
C127 1.000 0.457 0.094 !       0.81 eA-3
Q128 0.543 0.751 0.059 !       0.81 eA-3
C129 0.026 0.905 0.208 !       0.81 eA-3
C130 0.379 0.749 0.098 !       0.81 eA-3
C131 0.986 0.389 0.113 !       0.80 eA-3
C132 0.500 0.014 0.176 !       0.80 eA-3
C133 0.500 0.543 0.183 !       0.80 eA-3
C134 0.720 0.250 0.160 !       0.80 eA-3
C135 0.224 0.500 0.000 !       0.79 eA-3
C136 0.289 0.516 0.244 !       0.79 eA-3
Q137 1.000 0.053 0.245 !       0.78 eA-3
C138 0.344 0.690 0.130 !       0.77 eA-3
Q139 0.700 0.252 0.008 !       0.77 eA-3
C140 0.794 0.748 0.039 !       0.76 eA-3
Q141 0.531 0.256 0.922 !       0.75 eA-3
Q142 0.469 0.744 0.078 !       0.75 eA-3
C143 0.031 0.467 0.083 !       0.75 eA-3
Q144 0.530 0.258 0.066 !       0.74 eA-3
C145 0.964 0.254 0.035 !       0.73 eA-3
C146 0.964 0.746 0.965 !       0.73 eA-3
C147 0.500 0.378 0.109 !       0.73 eA-3
Q148 0.500 0.701 0.079 !       0.72 eA-3
Q149 0.525 0.031 0.242 !       0.71 eA-3
Q150 0.559 0.244 0.926 !       0.71 eA-3
C151 0.272 0.753 0.109 !       0.71 eA-3
C152 0.110 0.801 0.208 !       0.70 eA-3
C153 0.755 0.798 0.186 !       0.70 eA-3
C154 0.241 0.746 0.195 !       0.69 eA-3
Q155 1.000 0.686 0.035 !       0.69 eA-3
C156 0.521 0.529 0.167 !       0.69 eA-3
C157 1.000 0.453 0.081 !       0.69 eA-3
C158 0.338 0.285 0.159 !       0.69 eA-3
C159 0.500 0.026 0.194 !       0.69 eA-3
C160 0.094 0.750 0.215 !       0.68 eA-3
C161 0.792 0.421 0.005 !       0.68 eA-3
C162 0.792 0.922 0.997 !       0.68 eA-3
C163 0.074 0.283 0.046 !       0.68 eA-3
C164 0.921 0.219 0.036 !       0.68 eA-3
C165 0.500 0.644 0.227 !       0.68 eA-3
Q166 0.322 0.249 0.023 !       0.68 eA-3
C167 0.332 0.261 0.066 !       0.67 eA-3
Q168 1.000 0.770 0.220 !       0.67 eA-3
C169 0.060 0.743 0.969 !       0.67 eA-3
C170 0.380 0.254 0.105 !       0.67 eA-3
C171 0.209 0.747 0.207 !       0.66 eA-3
C172 0.627 0.247 0.125 !       0.66 eA-3
C173 0.949 0.241 0.051 !       0.66 eA-3
Q174 0.670 0.747 0.023 !       0.65 eA-3
C175 0.500 0.559 0.120 !       0.65 eA-3
C176 0.847 0.262 0.137 !       0.65 eA-3
C177 0.478 0.749 0.164 !       0.65 eA-3
Q178 0.500 0.185 0.077 !       0.65 eA-3
C179 0.782 0.439 0.020 !       0.65 eA-3
C180 0.548 0.763 0.210 !       0.65 eA-3
C181 0.531 0.745 0.242 !       0.64 eA-3
C182 0.815 0.015 0.015 !       0.64 eA-3
C183 0.500 0.526 0.198 !       0.64 eA-3
C184 1.000 0.474 0.229 !       0.64 eA-3
Q185 0.317 0.215 0.251 !       0.63 eA-3
C186 0.327 0.610 0.221 !       0.63 eA-3
C187 0.149 0.923 0.973 !       0.63 eA-3
C188 0.125 0.550 0.249 !       0.63 eA-3
C189 0.500 0.750 0.105 !       0.63 eA-3
C190 0.155 0.249 0.117 !       0.63 eA-3
C191 0.075 0.881 0.199 !       0.63 eA-3
C192 0.965 0.596 0.044 !       0.62 eA-3
C193 0.469 0.497 0.187 !       0.62 eA-3
Q194 0.500 0.160 0.008 !       0.62 eA-3
Q195 0.658 0.243 0.250 !       0.62 eA-3
C196 0.828 0.302 0.075 !       0.62 eA-3
C197 0.717 0.575 0.241 !       0.61 eA-3
C198 0.628 0.752 0.207 !       0.61 eA-3
C199 0.094 0.250 0.078 !       0.61 eA-3
)
;
_shelx_fab_checksum              21852
loop_
_space_group_symop_operation_xyz
'x, y, z'
'-x, -y+1/2, z'
'x, -y, -z'
'-x, y+1/2, -z'
'-y+1/4, -x+1/4, -z+3/4'
'y+1/4, x+3/4, -z+1/4'
'y+1/4, -x+1/4, z+3/4'
'-y+1/4, x+3/4, z+1/4'
'x+1/2, y+1/2, z+1/2'
'-x+1/2, -y+1, z+1/2'
'x+1/2, -y+1/2, -z+1/2'
'-x+1/2, y+1, -z+1/2'
'-y+3/4, -x+3/4, -z+5/4'
'y+3/4, x+5/4, -z+3/4'
'y+3/4, -x+3/4, z+5/4'
'-y+3/4, x+5/4, z+3/4'
'-x, -y, -z'
'x, y-1/2, -z'
'-x, y, z'
'x, -y-1/2, z'
'y-1/4, x-1/4, z-3/4'
'-y-1/4, -x-3/4, z-1/4'
'-y-1/4, x-1/4, -z-3/4'
'y-1/4, -x-3/4, -z-1/4'
'-x+1/2, -y+1/2, -z+1/2'
'x+1/2, y, -z+1/2'
'-x+1/2, y+1/2, z+1/2'
'x+1/2, -y, z+1/2'
'y+1/4, x+1/4, z-1/4'
'-y+1/4, -x-1/4, z+1/4'
'-y+1/4, x+1/4, -z-1/4'
'y+1/4, -x-1/4, -z+1/4'
loop_
_atom_site_label
_atom_site_type_symbol
_atom_site_fract_x
_atom_site_fract_y
_atom_site_fract_z
_atom_site_U_iso_or_equiv
_atom_site_adp_type
_atom_site_occupancy
_atom_site_site_symmetry_order
_atom_site_calc_flag
_atom_site_refinement_flags_posn
_atom_site_refinement_flags_adp
_atom_site_refinement_flags_occupancy
_atom_site_disorder_assembly
_atom_site_disorder_group
Cu1 Cu 0.31676(3) 0.2500 0.24729(2) 0.0539(3) Uani 1 2 d S T P A .
Cu2 Cu 0.5000 0.7500 0.35318(2) 0.0578(4) Uani 1 4 d S T P . .
O1 O 0.19877(18) 0.3197(2) 0.27526(5) 0.0733(11) Uani 1 1 d . . . . .
O2 O 0.31233(18) 0.3198(2) 0.27048(5) 0.0730(11) Uani 1 1 d . . . . .
O3 O 0.4302(2) 0.6799(2) 0.35658(6) 0.0792(12) Uani 1 1 d . . . . .
O4 O 0.5000 0.7500 0.31777(13) 0.133(4) Uani 1 4 d S T P . .
H4A H 0.4734 0.7232 0.3107 0.160 Uiso 0.25 1 d R U P . .
H4B H 0.5266 0.7768 0.3107 0.160 Uiso 0.25 1 d R U P . .
N1 N 0.4307(3) 0.2500 0.24492(9) 0.0656(17) Uani 1 2 d DS T P . .
C1 C 0.2581(3) 0.3389(3) 0.28013(8) 0.0681(15) Uani 1 1 d . . . . .
C2 C 0.2669(3) 0.3864(3) 0.29925(8) 0.0744(16) Uani 1 1 d . . . . .
C3 C 0.3315(3) 0.4095(4) 0.30546(10) 0.100(2) Uani 1 1 d . . . . .
H3 H 0.3695 0.3966 0.2971 0.120 Uiso 1 1 calc R U . . .
C4 C 0.2113(3) 0.4073(4) 0.31139(10) 0.096(2) Uani 1 1 d . . . . .
H4 H 0.1673 0.3939 0.3073 0.115 Uiso 1 1 calc R U . . .
C5 C 0.3407(3) 0.4510(4) 0.32357(10) 0.103(2) Uani 1 1 d . . . . .
H5 H 0.3844 0.4653 0.3275 0.124 Uiso 1 1 calc R U . . .
C6 C 0.2208(4) 0.4481(4) 0.32955(11) 0.110(3) Uani 1 1 d . . . . .
H6 H 0.1828 0.4606 0.3379 0.132 Uiso 1 1 calc R U . . .
C7 C 0.2845(4) 0.4714(4) 0.33592(10) 0.091(2) Uani 1 1 d . . . . .
C8 C 0.2957(4) 0.5142(4) 0.35625(9) 0.091(2) Uani 1 1 d . . . . .
C9 C 0.2551(3) 0.5051(3) 0.3750 0.091(3) Uani 1 2 d S T P . .
H9 H 0.2214 0.4714 0.3750 0.109 Uiso 1 2 calc R U P . .
C10 C 0.3443(3) 0.5666(3) 0.35628(9) 0.090(2) Uani 1 1 d . . . . .
H10 H 0.3693 0.5753 0.3435 0.108 Uiso 1 1 calc R U . . .
C11 C 0.3562(3) 0.6062(3) 0.3750 0.079(2) Uani 1 2 d S T P . .
C12 C 0.4097(3) 0.6597(3) 0.3750 0.069(2) Uani 1 2 d S T P . .
C13A C 0.4649(7) 0.2500 0.2661(2) 0.080(4) Uani 0.5 2 d DS TU P A 1
H13A H 0.4393 0.2500 0.2797 0.095 Uiso 0.25 2 d R U P A 2
C14A C 0.4513(17) 0.2500 0.2910(4) 0.088(6) Uani 0.25 2 d DS TU P A 1
H14A H 0.5000 0.2500 0.2992 0.131 Uiso 0.5 4 d R U P A 1
H14B H 0.4253 0.2902 0.2946 0.131 Uiso 0.125 1 d R U P A 1
H14C H 0.4253 0.2098 0.2946 0.131 Uiso 0.125 1 d R U P A 1
C13B C 0.4656(7) 0.2500 0.2268(2) 0.076(4) Uani 0.5 2 d DS TU P A 1
H13B H 0.4420 0.2500 0.2128 0.091 Uiso 0.25 2 d R U P A 2
C14B C 0.4453(17) 0.2500 0.2027(4) 0.092(8) Uani 0.25 2 d DS TU P A 1
H14D H 0.4803 0.2500 0.1915 0.137 Uiso 0.25 2 d R U P A 1
H14E H 0.4173 0.2098 0.2010 0.137 Uiso 0.125 1 d R U P A 1
H14F H 0.4173 0.2902 0.2010 0.137 Uiso 0.125 1 d R U P A 1
C13C C 0.4650(5) 0.3089(5) 0.24384(14) 0.052(2) Uani 0.5 1 d D U P A 3
H13C H 0.4405 0.3516 0.2432 0.062 Uiso 0.25 1 d R U P A 4
C14C C 0.4418(10) 0.3837(9) 0.2449(4) 0.073(5) Uani 0.25 1 d D U P A 3
H14G H 0.4798 0.4148 0.2440 0.109 Uiso 0.25 1 d R U P A 3
H14H H 0.4117 0.3909 0.2325 0.109 Uiso 0.25 1 d R U P A 3
H14I H 0.4172 0.3916 0.2584 0.109 Uiso 0.25 1 d R U P A 3
loop_
_atom_site_aniso_label
_atom_site_aniso_U_11
_atom_site_aniso_U_22
_atom_site_aniso_U_33
_atom_site_aniso_U_23
_atom_site_aniso_U_13
_atom_site_aniso_U_12
Cu1 0.0233(4) 0.0947(7) 0.0438(5) 0.000 -0.0018(3) 0.000
Cu2 0.0727(9) 0.0748(9) 0.0259(5) 0.000 0.000 0.000
O1 0.050(2) 0.114(3) 0.057(2) -0.016(2) -0.0008(17) -0.003(2)
O2 0.051(2) 0.111(3) 0.058(2) -0.020(2) -0.0003(17) -0.011(2)
O3 0.088(3) 0.095(3) 0.054(2) -0.007(2) 0.0031(19) -0.020(2)
O4 0.156(9) 0.188(11) 0.056(5) 0.000 0.000 0.000
N1 0.033(3) 0.104(5) 0.060(4) 0.000 0.006(3) 0.000
C1 0.067(4) 0.094(4) 0.044(3) 0.003(3) 0.000(3) -0.003(3)
C2 0.078(4) 0.097(4) 0.048(3) -0.015(3) 0.004(3) -0.013(3)
C3 0.073(4) 0.144(6) 0.082(4) -0.036(4) 0.015(3) -0.031(4)
C4 0.067(4) 0.146(6) 0.076(4) -0.045(4) 0.011(3) -0.016(4)
C5 0.079(4) 0.155(7) 0.076(4) -0.044(4) 0.014(3) -0.041(4)
C6 0.080(5) 0.153(7) 0.098(5) -0.056(5) 0.022(4) -0.023(5)
C7 0.091(5) 0.113(5) 0.070(4) -0.027(4) 0.014(4) -0.033(4)
C8 0.098(5) 0.113(5) 0.060(3) -0.024(3) 0.010(3) -0.028(4)
C9 0.108(5) 0.108(5) 0.056(5) -0.015(4) 0.015(4) -0.035(6)
C10 0.097(5) 0.113(5) 0.060(3) -0.009(3) 0.015(3) -0.035(4)
C11 0.098(4) 0.098(4) 0.043(4) -0.010(3) 0.010(3) -0.015(5)
C12 0.082(3) 0.082(3) 0.042(4) -0.006(3) 0.006(3) -0.009(5)
C13A 0.069(6) 0.088(6) 0.082(6) 0.000 0.016(5) 0.000
C14A 0.079(8) 0.095(9) 0.089(8) 0.000 0.015(7) 0.000
C13B 0.069(6) 0.086(6) 0.073(6) 0.000 -0.010(5) 0.000
C14B 0.083(13) 0.099(14) 0.093(13) 0.000 -0.033(12) 0.000
C13C 0.045(4) 0.062(4) 0.048(4) 0.009(3) 0.003(3) 0.011(4)
C14C 0.042(9) 0.096(11) 0.080(10) 0.016(9) 0.004(8) 0.016(9)
loop_
_atom_type_symbol
_atom_type_description
_atom_type_scat_dispersion_real
_atom_type_scat_dispersion_imag
_atom_type_scat_source
C C 0.0033 0.0016 'International Tables Vol C Tables 4.2.6.8 and 6.1.1.4'
H H 0.0000 0.0000 'International Tables Vol C Tables 4.2.6.8 and 6.1.1.4'
N N 0.0061 0.0033 'International Tables Vol C Tables 4.2.6.8 and 6.1.1.4'
O O 0.0106 0.0060 'International Tables Vol C Tables 4.2.6.8 and 6.1.1.4'
Cu Cu 0.3201 1.2651 'International Tables Vol C Tables 4.2.6.8 and 6.1.1.4'
loop_
_geom_angle_atom_site_label_1
_geom_angle_atom_site_label_2
_geom_angle_atom_site_label_3
_geom_angle
_geom_angle_site_symmetry_1
_geom_angle_site_symmetry_3
O1 Cu1 O1 88.6(2) 25 12_545
O1 Cu1 O2 168.50(15) 25 .
O1 Cu1 O2 90.37(16) 12_545 .
O1 Cu1 O2 90.37(16) 25 20_565
O1 Cu1 O2 168.50(15) 12_545 20_565
O2 Cu1 O2 88.3(2) . 20_565
O1 Cu1 N1 96.33(15) 25 .
O1 Cu1 N1 96.33(15) 12_545 .
O2 Cu1 N1 95.16(15) . .
O2 Cu1 N1 95.16(15) 20_565 .
O1 Cu1 Cu1 86.15(11) 25 25
O1 Cu1 Cu1 86.15(11) 12_545 25
O2 Cu1 Cu1 82.36(10) . 25
O2 Cu1 Cu1 82.36(10) 20_565 25
N1 Cu1 Cu1 176.52(15) . 25
O3 Cu2 O3 167.9(2) . 2_665
O3 Cu2 O3 89.6(2) . 20_575
O3 Cu2 O3 89.1(2) 2_665 20_575
O3 Cu2 O3 89.1(2) . 19_655
O3 Cu2 O3 89.6(2) 2_665 19_655
O3 Cu2 O3 167.9(2) 20_575 19_655
O3 Cu2 O4 96.06(10) . .
O3 Cu2 O4 96.05(10) 2_665 .
O3 Cu2 O4 96.05(10) 20_575 .
O3 Cu2 O4 96.05(10) 19_655 .
O3 Cu2 Cu2 83.94(10) . 5_665
O3 Cu2 Cu2 83.95(10) 2_665 5_665
O3 Cu2 Cu2 83.95(10) 20_575 5_665
O3 Cu2 Cu2 83.95(10) 19_655 5_665
O4 Cu2 Cu2 180.0 . 5_665
C1 O1 Cu1 121.1(3) . 25
C1 O2 Cu1 124.9(3) . .
C12 O3 Cu2 122.9(4) . .
C13C N1 C13C 119.3(9) . 20_565
C13B N1 C13A 120.5(10) . .
C13B N1 Cu1 125.6(7) . .
C13C N1 Cu1 120.3(4) . .
C13C N1 Cu1 120.3(4) 20_565 .
C13A N1 Cu1 114.0(7) . .
O1 C1 O2 125.3(5) . .
O1 C1 C2 118.3(5) . .
O2 C1 C2 116.4(5) . .
C4 C2 C3 118.5(5) . .
C4 C2 C1 120.6(5) . .
C3 C2 C1 121.0(5) . .
C5 C3 C2 121.6(6) . .
C6 C4 C2 119.6(6) . .
C3 C5 C7 119.7(6) . .
C4 C6 C7 122.6(6) . .
C6 C7 C5 118.0(6) . .
C6 C7 C8 122.9(6) . .
C5 C7 C8 119.0(6) . .
C9 C8 C10 118.6(6) . .
C9 C8 C7 120.7(6) . .
C10 C8 C7 120.6(5) . .
C8 C9 C8 121.0(8) . 14_445
C11 C10 C8 121.5(6) . .
C10 C11 C10 118.5(8) 14_445 .
C10 C11 C12 120.7(4) 14_445 .
C10 C11 C12 120.7(4) . .
O3 C12 O3 126.4(8) . 14_445
O3 C12 C11 116.8(4) . .
O3 C12 C11 116.8(4) 14_445 .
C13A C13A N1 117.6(6) 2_655 .
C13A C13A C14A 100.0(14) 2_655 .
N1 C13A C14A 142.3(17) . .
C13A C14A C14A 80.0(14) . 2_655
N1 C13B C13B 121.9(7) . 2_655
N1 C13B C14B 132.9(18) . .
C13B C13B C14B 105.2(15) 2_655 .
N1 C13C C13C 120.2(4) . 19_655
N1 C13C C14C 132.3(10) . .
C13C C13C C14C 107.2(8) 19_655 .
loop_
_geom_bond_atom_site_label_1
_geom_bond_atom_site_label_2
_geom_bond_distance
_geom_bond_site_symmetry_2
Cu1 O1 1.948(4) 25
Cu1 O1 1.948(4) 12_545
Cu1 O2 1.954(3) .
Cu1 O2 1.954(3) 20_565
Cu1 N1 2.227(5) .
Cu1 Cu1 2.6254(14) 25
Cu2 O3 1.940(4) .
Cu2 O3 1.940(4) 2_665
Cu2 O3 1.940(4) 20_575
Cu2 O3 1.940(4) 19_655
Cu2 O4 2.137(8) .
Cu2 Cu2 2.6330(19) 5_665
O1 C1 1.251(6) .
O1 Cu1 1.948(4) 25
O2 C1 1.264(6) .
O3 C12 1.245(5) .
N1 C13B 1.289(13) .
N1 C13C 1.333(9) .
N1 C13C 1.333(9) 20_565
N1 C13A 1.441(13) .
C1 C2 1.489(7) .
C2 C4 1.371(7) .
C2 C3 1.392(8) .
C3 C5 1.371(8) .
C4 C6 1.367(8) .
C5 C7 1.384(9) .
C6 C7 1.378(9) .
C7 C8 1.500(8) .
C8 C9 1.393(7) .
C8 C10 1.394(8) .
C9 C8 1.393(7) 14_445
C10 C11 1.387(7) .
C11 C10 1.387(7) 14_445
C11 C12 1.478(11) .
C12 O3 1.245(5) 14_445
C13A C13A 1.37(3) 2_655
C13A C14A 1.524(18) .
C14A C14A 1.90(7) 2_655
C13B C13B 1.34(3) 2_655
C13B C14B 1.509(17) .
C13C C13C 1.366(18) 19_655
C13C C14C 1.528(15) .
