#------------------------------------------------------------------------------
#$Date: 2017-06-14 05:35:29 +0300 (Wed, 14 Jun 2017) $
#$Revision: 197794 $
#$URL: file:///home/coder/svn-repositories/cod/cif/7/04/33/7043318.cif $
#------------------------------------------------------------------------------
#
# This file is available in the Crystallography Open Database (COD),
# http://www.crystallography.net/
#
# All data on this site have been placed in the public domain by the
# contributors.
#
data_7043318
loop_
_publ_author_name
'Liu, Zhi-Qiang'
'Zhao, Yue'
'Wang, Peng'
'Kang, Yan-Shang'
'Azam, Mohammad'
'Al-Resayes, Saud I'
'Liu, Xaio-Hui'
'Lu, Qingyi'
'Sun, Wei-Yin'
_publ_section_title
;
 Fluorescent sensing and selective adsorption properties of metal-organic
 frameworks with mixed tricarboxylate and 1H-imidazol-4-yl-containing
 ligands
;
_journal_name_full               'Dalton Trans.'
_journal_paper_doi               10.1039/C7DT01759F
_journal_year                    2017
_chemical_formula_sum            'C78 H52 Cd3 N8 O13'
_chemical_formula_weight         1646.47
_space_group_crystal_system      monoclinic
_space_group_IT_number           14
_space_group_name_Hall           '-P 2ybc'
_space_group_name_H-M_alt        'P 1 21/c 1'
_symmetry_space_group_name_Hall  '-P 2ybc'
_symmetry_space_group_name_H-M   'P 1 21/c 1'
_atom_sites_solution_hydrogens   mixed
_audit_creation_method           SHELXL-2014/7
_audit_update_record
;
2017-06-12 deposited with the CCDC.
2017-06-13 downloaded from the CCDC.
;
_cell_angle_alpha                90
_cell_angle_beta                 91.9120(10)
_cell_angle_gamma                90
_cell_formula_units_Z            4
_cell_length_a                   15.5620(9)
_cell_length_b                   32.1384(18)
_cell_length_c                   14.8953(8)
_cell_measurement_reflns_used    9955
_cell_measurement_temperature    293(2)
_cell_measurement_theta_max      27.3733
_cell_measurement_theta_min      2.3085
_cell_volume                     7445.6(7)
_computing_cell_refinement       'Bruker SMART'
_computing_data_collection       'Bruker SMART'
_computing_data_reduction        'Bruker SAINT'
_computing_molecular_graphics    'Bruker SHELXTL'
_computing_publication_material  'Bruker SHELXTL'
_computing_structure_refinement  'SHELXL-2014/7 (Sheldrick, 2014)'
_computing_structure_solution    'SHELXS-2014/7 (Sheldrick, 2014)'
_diffrn_ambient_temperature      293(2)
_diffrn_measured_fraction_theta_full 0.992
_diffrn_measured_fraction_theta_max 0.992
_diffrn_measurement_device_type  'CCD area detector'
_diffrn_radiation_type           MoK\a
_diffrn_radiation_wavelength     0.71073
_diffrn_reflns_av_R_equivalents  0.0367
_diffrn_reflns_av_unetI/netI     0.0382
_diffrn_reflns_Laue_measured_fraction_full 0.992
_diffrn_reflns_Laue_measured_fraction_max 0.992
_diffrn_reflns_limit_h_max       18
_diffrn_reflns_limit_h_min       -18
_diffrn_reflns_limit_k_max       26
_diffrn_reflns_limit_k_min       -38
_diffrn_reflns_limit_l_max       17
_diffrn_reflns_limit_l_min       -16
_diffrn_reflns_number            41131
_diffrn_reflns_point_group_measured_fraction_full 0.992
_diffrn_reflns_point_group_measured_fraction_max 0.992
_diffrn_reflns_theta_full        25.010
_diffrn_reflns_theta_max         25.010
_diffrn_reflns_theta_min         1.507
_diffrn_source                   'fine-focus sealed tube'
_exptl_absorpt_coefficient_mu    0.916
_exptl_absorpt_correction_T_max  0.848
_exptl_absorpt_correction_T_min  0.774
_exptl_absorpt_correction_type   multi-scan
_exptl_absorpt_process_details   SADABS
_exptl_crystal_colour            colorless
_exptl_crystal_density_diffrn    1.469
_exptl_crystal_description       block
_exptl_crystal_F_000             3296
_exptl_crystal_size_max          0.280
_exptl_crystal_size_mid          0.260
_exptl_crystal_size_min          0.180
_refine_diff_density_max         1.290
_refine_diff_density_min         -0.549
_refine_diff_density_rms         0.072
_refine_ls_extinction_method     none
_refine_ls_goodness_of_fit_ref   1.033
_refine_ls_hydrogen_treatment    constr
_refine_ls_matrix_type           full
_refine_ls_number_parameters     975
_refine_ls_number_reflns         13038
_refine_ls_number_restraints     25
_refine_ls_restrained_S_all      1.039
_refine_ls_R_factor_all          0.0420
_refine_ls_R_factor_gt           0.0346
_refine_ls_shift/su_max          0.004
_refine_ls_shift/su_mean         0.000
_refine_ls_structure_factor_coef Fsqd
_refine_ls_weighting_details
'w=1/[\s^2^(Fo^2^)+(0.0352P)^2^+8.9486P] where P=(Fo^2^+2Fc^2^)/3'
_refine_ls_weighting_scheme      calc
_refine_ls_wR_factor_gt          0.0842
_refine_ls_wR_factor_ref         0.0883
_reflns_Friedel_coverage         0.000
_reflns_number_gt                11251
_reflns_number_total             13038
_reflns_threshold_expression     'I > 2\s(I)'
_cod_data_source_file            c7dt01759f2.cif
_cod_data_source_block           2
_cod_database_code               7043318
_shelx_shelxl_version_number     2014/7
_shelx_space_group_comment
;
The symmetry employed for this shelxl refinement is uniquely defined
by the following loop, which should always be used as a source of
symmetry information in preference to the above space-group names.
They are only intended as comments.
;
_shelx_estimated_absorpt_t_min   0.784
_shelx_estimated_absorpt_t_max   0.852
_shelx_res_file
;

    a_a.res created by SHELXL-2014/7

TITL A_a.res in P2(1)/c
CELL  0.71073  15.5620  32.1384  14.8953   90.000   91.912   90.000
ZERR  4.000   0.0009   0.0018   0.0008    0.000    0.001    0.000
LATT 1
SYMM -X, 1/2+Y, 1/2-Z
SFAC C  H  N  O  Cd
UNIT 312 208 32 52 12
omit 2 0 4
omit 5 0 10
omit 2 2 5
omit 1 0 2
omit 5 1 10
omit 5 3 9
omit 2 2 4
omit -6 0 2
omit 3 0 6
omit 3 5 7
omit 2 4 5
omit 1 1 0
omit 2 1 5
omit -6 1 2
omit 0 19 7
omit 2 1 4
OMIT 4 1 8
OMIT 1 0 6
OMIT -6 4 1
OMIT 3 1 5
OMIT  -3.00  50.02
L.S. 10
ACTA
BOND $H
FMAP 2
PLAN 20
ABIN
HTAB O13 O2
HTAB N8 O12_$3
HTAB N8 O8_$2
HTAB N6 O4
HTAB N3 O1_$1
HTAB N2 O9
HTAB O13 O2
HTAB N8 O12_$3
HTAB N8 O8_$2
HTAB N6 O4
HTAB N3 O1_$1
HTAB N2 O9
HTAB O13 O2'
HTAB O13 O2
HTAB O2' O13
HTAB N8 O12_$3
HTAB N8 O8_$2
HTAB N6 O4
HTAB N3 O1_$1
HTAB N2 O9
HTAB O13 O2'
HTAB O13 O2
HTAB O2' O13
HTAB N8 O12_$3
HTAB N8 O8_$2
HTAB N6 O4
HTAB N3 O1_$1
HTAB N2 O9
HTAB O13 O2'
HTAB O13 O2
HTAB O2' O13
HTAB N8 O12_$3
HTAB N8 O8_$2
HTAB N6 O4
HTAB N3 O1_$1
HTAB N2 O9
HTAB O13 O2'
HTAB O13 O2
HTAB O2' O13
dfix 2.1 .01 h7 h75b_$4
eqiv $4 x, 1.5-y, 0.5+z
HTAB N8 O12_$3
HTAB N8 O8_$2
HTAB N6 O4
HTAB N3 O1_$1
HTAB N2 O9
HTAB O13 O2'
HTAB O13 O2
HTAB O2' O13
HTAB N8 O12_$3
HTAB N8 O8_$2
HTAB N6 O4
HTAB N3 O1_$1
HTAB N2 O9
HTAB O13 O2'
HTAB O13 O2
HTAB O2' O13
HTAB N8 O12_$3
EQIV $3 -x+2, y+1/2, -z+1/2
HTAB N8 O8_$2
EQIV $2 x+1, y, z
HTAB N6 O4
HTAB N3 O1_$1
EQIV $1 x-1, y, z
HTAB N2 O9
size 0.28 0.26 0.18
htab
conf
isor .01 c75 c75' c61 c63
HTAB N2 O9
HTAB N3 O1_$1
HTAB N6 O4
HTAB N8 O8_$2
HTAB N8 O12_$3
HTAB O2' O13
HTAB O13 O2
HTAB O13 O2'
HTAB N2 O9
HTAB N3 O1_$1
HTAB N6 O4
HTAB N8 O8_$2
HTAB N8 O12_$3
HTAB O2' O13
HTAB O13 O2
HTAB O13 O2'
HTAB N2 O9
HTAB N3 O1_$1
HTAB N6 O4
HTAB N8 O8_$2
HTAB N8 O12_$3
HTAB O2' O13
HTAB O13 O2
HTAB O13 O2'
HTAB N2 O9
HTAB N3 O1_$1
HTAB N6 O4
HTAB N8 O8_$2
HTAB N8 O12_$3
HTAB O2' O13
HTAB O13 O2
HTAB O13 O2'
HTAB N2 O9
HTAB N3 O1_$1
HTAB N6 O4
HTAB N8 O8_$2
HTAB N8 O12_$3
HTAB O2' O13
HTAB O13 O2
HTAB O13 O2'
HTAB N2 O9
HTAB N3 O1_$1
HTAB N6 O4
HTAB N8 O8_$2
HTAB N8 O12_$3
HTAB O2' O13
HTAB O13 O2
HTAB O13 O2'
HTAB N2 O9
HTAB N3 O1_$1
HTAB N6 O4
HTAB N8 O8_$2
HTAB N8 O12_$3
HTAB O13 O2
FREE C61  C61'
FREE C63  C63'
FREE C62  C63'
FREE C62  C61'
FREE C62  C62'
FREE C63  C62'
FREE C75  C75'
FREE C75  C74'
FREE C73  C74'
FREE C74  C74'
TEMP 20.000
WGHT    0.035200    8.948600
FVAR       0.15029   0.32209   0.37657
CD1   5    0.739884    0.721804    0.838352    11.00000    0.02153    0.02091 =
         0.03817   -0.00298    0.00245   -0.00304
CD2   5    1.243322    0.660174   -0.009695    11.00000    0.03908    0.03491 =
         0.02987   -0.00175    0.01271   -0.00142
CD3   5    0.741845    0.711229    0.122177    11.00000    0.02431    0.02055 =
         0.05156    0.00404    0.00621    0.00274
N1    3    0.595269    0.723639    0.827821    11.00000    0.02329    0.04052 =
         0.05396   -0.00162    0.00257   -0.00503
N2    3    0.463418    0.701646    0.841456    11.00000    0.02341    0.03726 =
         0.04913   -0.00214    0.00480   -0.00970
AFIX  43
H2    2    0.420663    0.684791    0.844203    11.00000   -1.20000
AFIX   0
N3    3    0.011952    0.720264    0.886945    11.00000    0.02432    0.15369 =
         0.07120    0.04182   -0.00671   -0.00880
AFIX  43
H3A   2   -0.043147    0.719236    0.880723    11.00000   -1.20000
AFIX   0
N4    3    0.143885    0.701131    0.916353    11.00000    0.02646    0.06001 =
         0.03424    0.00480   -0.00044   -0.01123
N5    3    0.882932    0.711072    0.121657    11.00000    0.02698    0.03286 =
         0.06733    0.00177    0.00544    0.00316
N6    3    1.016798    0.690681    0.124542    11.00000    0.02616    0.03191 =
         0.05876    0.00366    0.00871    0.00777
AFIX  43
H6A   2    1.060485    0.674295    0.124451    11.00000   -1.20000
AFIX   0
N7    3    1.340383    0.700792    0.064179    11.00000    0.02957    0.05684 =
         0.03194   -0.00122    0.00097    0.00668
N8    3    1.471102    0.722638    0.093595    11.00000    0.02419    0.14463 =
         0.05946   -0.02967   -0.00692    0.00310
AFIX  43
H8    2    1.526351    0.723332    0.097295    11.00000   -1.20000
AFIX   0
O1    4    0.848018    0.676430    0.829163    11.00000    0.03481    0.02483 =
         0.06629   -0.00369    0.00830    0.00774
O2    4    0.804957    0.621516    0.906083    11.00000    0.17656    0.04801 =
         0.11926    0.01253    0.10301    0.03325
O3    4    1.275604    0.604248    0.100241    11.00000    0.04238    0.06141 =
         0.05620    0.02254    0.02292    0.01950
O4    4    1.153103    0.637561    0.098969    11.00000    0.03717    0.03944 =
         0.04000    0.01453    0.01034    0.01239
O5    4    1.175270    0.269681    0.576581    11.00000    0.11686    0.03029 =
         0.08208   -0.00476   -0.03891    0.02452
O6    4    1.235306    0.289579    0.700943    11.00000    0.10600    0.03440 =
         0.04797    0.00641   -0.01198    0.02735
O7    4    0.720284    0.630315    0.139256    11.00000    0.03654    0.06128 =
         0.06053    0.02221    0.01404   -0.00187
O8    4    0.623583    0.678932    0.158876    11.00000    0.03911    0.03915 =
         0.06775    0.01786    0.01051   -0.00854
O9    4    0.336913    0.643594    0.876649    11.00000    0.04113    0.04130 =
         0.04312   -0.01807    0.01534   -0.01398
O10   4    0.220827    0.605456    0.884173    11.00000    0.05125    0.05706 =
         0.05468   -0.02272    0.02939   -0.02347
O11   4    0.261970    0.280858    0.322210    11.00000    0.05005    0.02983 =
         0.03547   -0.01034    0.00218   -0.01302
O12   4    0.343123    0.265932    0.440565    11.00000    0.08608    0.02401 =
         0.07587    0.00602   -0.03007   -0.01358
O13   4    0.715591    0.681505    0.971098    11.00000    0.05959    0.03584 =
         0.04220    0.00145    0.01384    0.00599
AFIX  23
H13A  2    0.750680    0.656655    0.967464    11.00000   -1.20000
H13B  2    0.656100    0.672469    0.967623    11.00000   -1.20000
AFIX   0
C1    1    0.849973    0.638263    0.847393    11.00000    0.05817    0.03921 =
         0.05204   -0.00400    0.01525    0.01450
C2    1    0.905813    0.611091    0.791831    11.00000    0.04631    0.03237 =
         0.03546   -0.00519    0.00432    0.01210
C3    1    0.896016    0.567968    0.790674    11.00000    0.07240    0.04050 =
         0.06748   -0.00205    0.03392    0.00369
AFIX  43
H3    2    0.855631    0.555466    0.826582    11.00000   -1.20000
AFIX   0
C4    1    0.945974    0.543780    0.736495    11.00000    0.07480    0.02897 =
         0.06067    0.00095    0.03033    0.00496
AFIX  43
H4    2    0.938679    0.515059    0.736399    11.00000   -1.20000
AFIX   0
C5    1    1.007663    0.561593    0.681433    11.00000    0.03327    0.02585 =
         0.03233   -0.00187    0.00031    0.00695
C6    1    1.013269    0.603544    0.684521    11.00000    0.08300    0.02935 =
         0.07728   -0.00543    0.05073   -0.00753
AFIX  43
H6    2    1.053731    0.616720    0.649805    11.00000   -1.20000
AFIX   0
C7    1    0.961404    0.627643    0.737086    11.00000    0.08672    0.02015 =
         0.07816   -0.00237    0.04028    0.00426
AFIX  43
H7    2    0.965767    0.656460    0.733826    11.00000   -1.20000
AFIX   0
C8    1    1.055764    0.536714    0.615564    11.00000    0.02520    0.02289 =
         0.03166   -0.00206   -0.00101    0.00336
C9    1    1.080446    0.554867    0.535633    11.00000    0.03479    0.01992 =
         0.03554    0.00206    0.00263    0.00491
AFIX  43
H9    2    1.069147    0.582969    0.526162    11.00000   -1.20000
AFIX   0
C10   1    1.121228    0.532674    0.469585    11.00000    0.02549    0.02491 =
         0.02968    0.00302   -0.00060    0.00063
C11   1    1.138936    0.490370    0.485365    11.00000    0.02642    0.02265 =
         0.02977   -0.00301   -0.00084    0.00334
AFIX  43
H11   2    1.166488    0.474893    0.442103    11.00000   -1.20000
AFIX   0
C12   1    1.115685    0.471303    0.565141    11.00000    0.02120    0.02107 =
         0.02887    0.00157   -0.00245    0.00057
C13   1    1.074631    0.494756    0.629444    11.00000    0.02654    0.02636 =
         0.02750    0.00310    0.00249    0.00084
AFIX  43
H13   2    1.059439    0.482173    0.682855    11.00000   -1.20000
AFIX   0
C14   1    1.143127    0.552606    0.383153    11.00000    0.02916    0.02200 =
         0.03321    0.00169    0.00033    0.00156
C15   1    1.213917    0.540097    0.335826    11.00000    0.03202    0.03019 =
         0.03921    0.00939    0.00144    0.00743
AFIX  43
H15   2    1.248656    0.518740    0.358467    11.00000   -1.20000
AFIX   0
C16   1    1.233601    0.558738    0.255999    11.00000    0.02885    0.03740 =
         0.04184    0.00453    0.00729    0.00768
AFIX  43
H16   2    1.281903    0.550064    0.225993    11.00000   -1.20000
AFIX   0
C17   1    1.182491    0.590326    0.219440    11.00000    0.03003    0.02796 =
         0.03412    0.00541    0.00492    0.00061
C18   1    1.110836    0.602471    0.266438    11.00000    0.04042    0.03360 =
         0.04665    0.01667    0.01218    0.01579
AFIX  43
H18   2    1.075241    0.623340    0.243075    11.00000   -1.20000
AFIX   0
C19   1    1.091721    0.584128    0.346929    11.00000    0.03492    0.03579 =
         0.04064    0.01161    0.01218    0.01210
AFIX  43
H19   2    1.043809    0.592960    0.377386    11.00000   -1.20000
AFIX   0
C20   1    1.205645    0.611409    0.135071    11.00000    0.03468    0.03242 =
         0.03613    0.00548    0.00403    0.00338
C21   1    1.134612    0.426383    0.580773    11.00000    0.02461    0.02120 =
         0.03181    0.00196    0.00047    0.00367
C22   1    1.152073    0.411775    0.666352    11.00000    0.06578    0.03162 =
         0.02713   -0.00084   -0.00395    0.01540
AFIX  43
H22   2    1.152179    0.430160    0.714571    11.00000   -1.20000
AFIX   0
C23   1    1.169461    0.370100    0.681527    11.00000    0.07054    0.03549 =
         0.03490    0.00820   -0.00135    0.01495
AFIX  43
H23   2    1.182312    0.361066    0.739752    11.00000   -1.20000
AFIX   0
C24   1    1.168153    0.341917    0.612736    11.00000    0.03228    0.02361 =
         0.03998    0.00680    0.00136    0.00564
C25   1    1.148621    0.355935    0.526487    11.00000    0.06055    0.02733 =
         0.03740   -0.00243   -0.00266    0.01180
AFIX  43
H25   2    1.145862    0.337157    0.478974    11.00000   -1.20000
AFIX   0
C26   1    1.133200    0.397749    0.510726    11.00000    0.05481    0.02898 =
         0.03095    0.00381    0.00105    0.01045
AFIX  43
H26   2    1.121695    0.406861    0.452296    11.00000   -1.20000
AFIX   0
C27   1    1.193275    0.297750    0.630490    11.00000    0.03261    0.02640 =
         0.04428    0.00812    0.00806    0.00837
C28   1    0.648623    0.641429    0.164459    11.00000    0.03579    0.04873 =
         0.04069    0.01694    0.00206   -0.00611
C29   1    0.589800    0.610656    0.207123    11.00000    0.03413    0.03792 =
         0.04042    0.01197    0.00613   -0.00477
C30   1    0.613688    0.569623    0.221625    11.00000    0.03594    0.04086 =
         0.05065    0.01214    0.01742    0.00615
AFIX  43
H30   2    0.664583    0.559785    0.198431    11.00000   -1.20000
AFIX   0
C31   1    0.562994    0.543143    0.270020    11.00000    0.03868    0.02918 =
         0.04301    0.00768    0.00960    0.00591
AFIX  43
H31   2    0.579540    0.515556    0.278146    11.00000   -1.20000
AFIX   0
C32   1    0.487472    0.557304    0.306718    11.00000    0.03224    0.02539 =
         0.02929    0.00092    0.00263   -0.00615
C33   1    0.461592    0.597673    0.287361    11.00000    0.03485    0.02664 =
         0.04891    0.00687    0.01389    0.00078
AFIX  43
H33   2    0.409217    0.607141    0.307670    11.00000   -1.20000
AFIX   0
C34   1    0.512102    0.624120    0.238474    11.00000    0.03989    0.02621 =
         0.05487    0.01162    0.00977    0.00193
AFIX  43
H34   2    0.493644    0.651150    0.226623    11.00000   -1.20000
AFIX   0
C35   1    0.440646    0.532127    0.372873    11.00000    0.02583    0.02173 =
         0.03160    0.00189    0.00252    0.00005
C36   1    0.424331    0.489826    0.362833    11.00000    0.02857    0.02231 =
         0.03025   -0.00237    0.00437    0.00035
AFIX  43
H36   2    0.440105    0.476348    0.310645    11.00000   -1.20000
AFIX   0
C37   1    0.384679    0.467344    0.429866    11.00000    0.02241    0.01919 =
         0.03028   -0.00050   -0.00071   -0.00160
C38   1    0.361217    0.487921    0.507893    11.00000    0.02378    0.02285 =
         0.02876    0.00038    0.00306   -0.00365
AFIX  43
H38   2    0.334855    0.473043    0.552911    11.00000   -1.20000
AFIX   0
C39   1    0.376527    0.530251    0.519567    11.00000    0.02432    0.02347 =
         0.02920   -0.00357    0.00280   -0.00086
C40   1    0.415372    0.551695    0.451163    11.00000    0.02946    0.01846 =
         0.03695   -0.00326    0.00331   -0.00286
AFIX  43
H40   2    0.424896    0.580116    0.457736    11.00000   -1.20000
AFIX   0
C41   1    0.354180    0.551922    0.603167    11.00000    0.02756    0.02009 =
         0.03341   -0.00381    0.00452   -0.00003
C42   1    0.282766    0.539937    0.651414    11.00000    0.03179    0.03214 =
         0.03876   -0.00933    0.00612   -0.01096
AFIX  43
H42   2    0.248809    0.517918    0.630637    11.00000   -1.20000
AFIX   0
C43   1    0.261796    0.560183    0.729240    11.00000    0.02889    0.03955 =
         0.03962   -0.00771    0.01292   -0.01077
AFIX  43
H43   2    0.213370    0.551978    0.759614    11.00000   -1.20000
AFIX   0
C44   1    0.312043    0.592657    0.762841    11.00000    0.03067    0.03011 =
         0.03452   -0.00608    0.00562   -0.00101
C45   1    0.383478    0.604439    0.715610    11.00000    0.03670    0.03166 =
         0.04656   -0.01515    0.00978   -0.01388
AFIX  43
H45   2    0.418061    0.626059    0.737262    11.00000   -1.20000
AFIX   0
C46   1    0.404013    0.584570    0.636993    11.00000    0.03311    0.03231 =
         0.04361   -0.00995    0.01400   -0.00959
AFIX  43
H46   2    0.451913    0.593169    0.606223    11.00000   -1.20000
AFIX   0
C47   1    0.288468    0.615029    0.846070    11.00000    0.03488    0.03106 =
         0.03790   -0.00484    0.00804   -0.00293
C48   1    0.367178    0.422205    0.418601    11.00000    0.02583    0.02015 =
         0.03194   -0.00194    0.00370   -0.00443
C49   1    0.335386    0.406853    0.336769    11.00000    0.05183    0.02507 =
         0.02899    0.00056   -0.00410   -0.00494
AFIX  43
H49   2    0.325907    0.424829    0.288523    11.00000   -1.20000
AFIX   0
C50   1    0.317813    0.364785    0.327043    11.00000    0.05353    0.03046 =
         0.03212   -0.00699   -0.00646   -0.00841
AFIX  43
H50   2    0.294335    0.355042    0.272789    11.00000   -1.20000
AFIX   0
C51   1    0.334468    0.337004    0.396334    11.00000    0.03473    0.02083 =
         0.03790   -0.00649    0.00109   -0.00411
C52   1    0.367388    0.352152    0.477413    11.00000    0.04667    0.02376 =
         0.04164    0.00572   -0.00955   -0.00992
AFIX  43
H52   2    0.379724    0.333877    0.524507    11.00000   -1.20000
AFIX   0
C53   1    0.382039    0.394297    0.488793    11.00000    0.04438    0.02443 =
         0.03101   -0.00293   -0.00571   -0.00962
AFIX  43
H53   2    0.402167    0.404145    0.544313    11.00000   -1.20000
AFIX   0
C54   1    0.312649    0.291992    0.385818    11.00000    0.03634    0.02223 =
         0.04157   -0.00743    0.00519   -0.00481
C55   1    0.544766    0.691024    0.830274    11.00000    0.02717    0.03863 =
         0.06054   -0.00802    0.00568   -0.00218
AFIX  43
H55   2    0.563693    0.663721    0.824830    11.00000   -1.20000
AFIX   0
C56   1    0.542557    0.757263    0.838831    11.00000    0.02709    0.03646 =
         0.05644    0.00297    0.00372   -0.00641
AFIX  43
H56   2    0.560530    0.784861    0.839999    11.00000   -1.20000
AFIX   0
C57   1    0.459351    0.744227    0.847881    11.00000    0.02848    0.03771 =
         0.04384    0.00647    0.00239   -0.00310
C58   1    0.379217    0.766602    0.863062    11.00000    0.03167    0.03936 =
         0.06033    0.01739    0.00985   -0.00022
C59   1    0.301276    0.745778    0.863072    11.00000    0.03157    0.04548 =
         0.03943    0.01527    0.00118    0.00349
AFIX  43
H59   2    0.299961    0.717477    0.850080    11.00000   -1.20000
AFIX   0
C60   1    0.224842    0.766007    0.881977    11.00000    0.03324    0.05200 =
         0.07377    0.02639    0.01056    0.00841
C64   1    0.144864    0.741967    0.889002    11.00000    0.02882    0.06852 =
         0.04599    0.02275    0.00097    0.00459
C65   1    0.062479    0.689733    0.914145    11.00000    0.03965    0.10220 =
         0.04571    0.00902   -0.00340   -0.02575
AFIX  43
H65   2    0.043266    0.663403    0.929860    11.00000   -1.20000
AFIX   0
C66   1    0.061866    0.753515    0.870507    11.00000    0.03204    0.11567 =
         0.08857    0.04999    0.00352    0.01442
AFIX  43
H66   2    0.043169    0.779469    0.850329    11.00000   -1.20000
AFIX   0
C67   1    0.934175    0.678943    0.119225    11.00000    0.03403    0.03001 =
         0.06471    0.00719    0.01123    0.00361
AFIX  43
H67   2    0.915717    0.651487    0.114426    11.00000   -1.20000
AFIX   0
C68   1    0.935554    0.745448    0.128980    11.00000    0.03017    0.02896 =
         0.08952   -0.00674    0.00531    0.00199
AFIX  43
H68   2    0.916562    0.772816    0.132582    11.00000   -1.20000
AFIX   0
C69   1    1.019921    0.733378    0.130172    11.00000    0.03035    0.03574 =
         0.05701   -0.00964    0.00448    0.00306
C70   1    1.100359    0.757184    0.129855    11.00000    0.03283    0.04020 =
         0.08942   -0.02000    0.01002   -0.00114
C71   1    1.179173    0.738260    0.125344    11.00000    0.03122    0.04440 =
         0.03950   -0.01364    0.00005   -0.00180
AFIX  43
H71   2    1.182149    0.709385    0.128104    11.00000   -1.20000
AFIX   0
C72   1    1.254648    0.760794    0.116793    11.00000    0.03433    0.05202 =
         0.06754   -0.02040    0.00174   -0.00653
C76   1    1.336485    0.739575    0.102678    11.00000    0.02741    0.06246 =
         0.03680   -0.01357   -0.00105   -0.00500
C77   1    1.417774    0.752825    0.120127    11.00000    0.03511    0.12336 =
         0.06326   -0.04530   -0.00384   -0.01459
AFIX  43
H77   2    1.433857    0.778157    0.145764    11.00000   -1.20000
AFIX   0
C78   1    1.424147    0.692021    0.061156    11.00000    0.03510    0.09524 =
         0.04443   -0.00741   -0.00241    0.02245
AFIX  43
H78   2    1.446233    0.667344    0.038874    11.00000   -1.20000
PART 1
AFIX   0
C73   1    1.252319    0.801974    0.137517   -21.00000    0.04249    0.05276 =
         0.11367   -0.01994   -0.00091   -0.01355
AFIX   3
H73B  2    1.304176    0.817964    0.144907   -21.00000   -1.20000
AFIX   0
C74   1    1.176610    0.820560    0.152489   -21.00000    0.06849    0.03853 =
         0.21315   -0.02304   -0.01309   -0.00765
AFIX   3
H74B  2    1.174970    0.849631    0.167149   -21.00000   -1.20000
AFIX   0
C75   1    1.103027    0.797668    0.147158   -21.00000    0.04498    0.04982 =
         0.11921   -0.01380   -0.00393    0.00744
AFIX   3
H75B  2    1.050397    0.809098    0.168227   -21.00000   -1.20000
PART 2
AFIX   0
C73'  1    1.247290    0.805564    0.086279    21.00000    0.03300    0.05016 =
         0.06780   -0.01356    0.02127   -0.00757
AFIX   3
H73A  2    1.299641    0.821104    0.081719    21.00000   -1.20000
AFIX   0
C75'  1    1.091357    0.803069    0.094511    21.00000    0.02770    0.02787 =
         0.06263    0.00606   -0.00162    0.01483
AFIX   3
H75A  2    1.036657    0.816769    0.088331    21.00000   -1.20000
AFIX   0
C74'  1    1.166618    0.825640    0.085176    21.00000    0.04365    0.02069 =
         0.12590   -0.00181    0.02927    0.00449
AFIX   3
H74A  2    1.164147    0.855131    0.075106    21.00000   -1.20000
PART 1
AFIX   0
C61   1    0.230598    0.809016    0.910840   -31.00000    0.04630    0.05421 =
         0.07722    0.01271    0.01441    0.01212
AFIX   3
H61B  2    0.178479    0.823376    0.924290   -31.00000   -1.20000
AFIX   0
C62   1    0.307605    0.830014    0.910819   -31.00000    0.05999    0.03030 =
         0.15048    0.00814    0.03587    0.00412
AFIX   3
H62B  2    0.308295    0.859524    0.920688   -31.00000   -1.20000
AFIX   0
C63   1    0.384449    0.810082    0.894905   -31.00000    0.05093    0.03819 =
         0.07920   -0.00100    0.01038   -0.00837
AFIX   3
H63B  2    0.438378    0.824512    0.900485   -31.00000   -1.20000
PART 2
AFIX   0
C63'  1    0.372040    0.806356    0.855105    31.00000    0.02293    0.04253 =
         0.09141    0.00950    0.00760   -0.00353
AFIX   3
H63A  2    0.421440    0.819946    0.831663    31.00000   -1.20000
AFIX   0
C62'  1    0.293327    0.828499    0.860083    31.00000    0.07375    0.03011 =
         0.15297    0.03409    0.02879    0.00944
AFIX   3
H62A  2    0.292387    0.858359    0.860433    31.00000   -1.20000
AFIX   0
C61'  1    0.219814    0.805926    0.867580    31.00000    0.03527    0.04319 =
         0.09120    0.03268    0.00478    0.00778
AFIX   3
H61A  2    0.164843    0.816546    0.847358    31.00000   -1.20000
PART 0
AFIX   0
HKLF 4

REM  A_a.res in P2(1)/c
REM R1 =  0.0346 for   11251 Fo > 4sig(Fo)  and  0.0420 for all   13038 data
REM    975 parameters refined using     25 restraints

END

WGHT      0.0353      8.9225

REM Instructions for potential hydrogen bonds
HTAB N2 O9
HTAB N3 O1_$1
HTAB N6 O4
HTAB N8 O8_$2
HTAB N8 O12_$3
HTAB O13 O2

REM Highest difference peak  1.290,  deepest hole -0.549,  1-sigma level  0.072
Q1    1   0.7325  0.6194  0.9898  11.00000  0.05    1.29
Q2    1   0.8770  0.6391  0.9262  11.00000  0.05    0.83
Q3    1   0.7512  0.7154  0.8966  11.00000  0.05    0.82
Q4    1   1.0115  0.5568  0.7664  11.00000  0.05    0.78
Q5    1   0.9677  0.5818  0.8269  11.00000  0.05    0.65
Q6    1   0.7725  0.6833  1.0004  11.00000  0.05    0.50
Q7    1   1.2026  0.6722 -0.0383  11.00000  0.05    0.48
Q8    1   0.7296  0.7153  0.0632  11.00000  0.05    0.46
Q9    1   0.9623  0.5969  0.6421  11.00000  0.05    0.46
Q10   1   1.2344  0.2796  0.5772  11.00000  0.05    0.45
Q11   1   1.1780  0.2763  0.6987  11.00000  0.05    0.44
Q12   1   0.9774  0.6347  0.7387  11.00000  0.05    0.42
Q13   1   0.6846  0.7196  0.1065  11.00000  0.05    0.39
Q14   1   1.2237  0.6383 -0.0143  11.00000  0.05    0.36
Q15   1   0.7647  0.6317  0.8399  11.00000  0.05    0.36
Q16   1   0.7206  0.7245  0.7578  11.00000  0.05    0.36
Q17   1   1.2422  0.6626  0.0247  11.00000  0.05    0.36
Q18   1   1.1615  0.2710  0.5932  11.00000  0.05    0.34
Q19   1   0.2998  0.2740  0.4600  11.00000  0.05    0.34
Q20   1   0.9162  0.6244  0.6903  11.00000  0.05    0.34
;
_shelx_res_checksum              80085
_shelx_fab_file
;
    2    0    0     59.52      0.00
    3    0    0    -10.12      0.00
    4    0    0      5.49      0.00
    5    0    0     12.24      0.00
    6    0    0     -9.54      0.00
    7    0    0     16.72      0.00
    8    0    0    -12.56      0.00
    9    0    0      5.43      0.00
   10    0    0     -1.91      0.00
   11    0    0      0.62      0.00
   12    0    0      0.96      0.00
   13    0    0     -1.13      0.00
   14    0    0      0.22      0.00
   15    0    0     -1.58      0.00
   16    0    0     -0.84      0.00
   17    0    0      1.03      0.00
   18    0    0     -1.32      0.00
   19    0    0     -1.13      0.00
   20    0    0     -0.32      0.00
    1    1    0    -20.04      0.00
    2    1    0     12.14      0.00
    3    1    0     -6.95      0.00
    4    1    0     10.59      0.00
    5    1    0     -1.86      0.00
    6    1    0     -1.42      0.00
    7    1    0     -4.47      0.00
    8    1    0     -5.46      0.00
    9    1    0      1.37      0.00
   10    1    0     -2.72      0.00
   11    1    0      0.29      0.00
   12    1    0     -0.15      0.00
   13    1    0     -0.86      0.00
   14    1    0     -0.38      0.00
   15    1    0     -0.22      0.00
   16    1    0      0.38      0.00
   17    1    0     -0.57      0.00
   18    1    0     -0.08      0.00
   19    1    0     -0.13      0.00
   20    1    0      0.10      0.00
    1    2    0     -0.51      0.00
    2    2    0     23.13      0.00
    3    2    0     -5.59      0.00
    4    2    0      5.90      0.00
    5    2    0     -1.46      0.00
    6    2    0     -2.04      0.00
    7    2    0      5.02      0.00
    8    2    0     -3.79      0.00
    9    2    0      1.71      0.00
   10    2    0      0.12      0.00
   11    2    0      1.33      0.00
   12    2    0     -0.10      0.00
   13    2    0      0.12      0.00
   14    2    0     -0.62      0.00
   15    2    0     -0.31      0.00
   16    2    0     -1.28      0.00
   17    2    0      0.91      0.00
   18    2    0     -1.20      0.00
   19    2    0     -1.00      0.00
   20    2    0     -0.35      0.00
    1    3    0    -32.22      0.00
    2    3    0     12.31      0.00
    3    3    0      4.09      0.00
    4    3    0     11.01      0.00
    5    3    0      2.58      0.00
    6    3    0     -6.00      0.00
    7    3    0    -11.67      0.00
    8    3    0     -8.86      0.00
    9    3    0     -0.34      0.00
   10    3    0     -2.30      0.00
   11    3    0     -1.44      0.00
   12    3    0      1.39      0.00
   13    3    0     -2.14      0.00
   14    3    0     -0.32      0.00
   15    3    0      0.06      0.00
   16    3    0      0.41      0.00
   17    3    0     -0.78      0.00
   18    3    0     -0.35      0.00
   19    3    0     -0.38      0.00
   20    3    0      0.31      0.00
    1    4    0     28.04      0.00
    2    4    0    -32.07      0.00
    3    4    0      2.76      0.00
    4    4    0      4.49      0.00
    5    4    0    -19.39      0.00
    6    4    0      4.45      0.00
    7    4    0    -10.40      0.00
    8    4    0      7.83      0.00
    9    4    0     -3.65      0.00
   10    4    0      2.48      0.00
   11    4    0      1.19      0.00
   12    4    0     -1.56      0.00
   13    4    0      1.22      0.00
   14    4    0     -1.22      0.00
   15    4    0      1.28      0.00
   16    4    0     -1.19      0.00
   17    4    0      0.67      0.00
   18    4    0     -0.70      0.00
   19    4    0     -0.34      0.00
   20    4    0     -0.36      0.00
    1    5    0     -4.82      0.00
    2    5    0     -9.42      0.00
    3    5    0     36.33      0.00
    4    5    0     -8.74      0.00
    5    5    0     11.48      0.00
    6    5    0     -8.11      0.00
    7    5    0    -13.42      0.00
    8    5    0     -1.91      0.00
    9    5    0     -4.81      0.00
   10    5    0      3.46      0.00
   11    5    0     -4.09      0.00
   12    5    0      3.20      0.00
   13    5    0     -1.78      0.00
   14    5    0     -0.08      0.00
   15    5    0      1.17      0.00
   16    5    0     -0.64      0.00
   17    5    0     -0.01      0.00
   18    5    0     -0.29      0.00
   19    5    0     -0.67      0.00
   20    5    0      0.79      0.00
    1    6    0     10.21      0.00
    2    6    0    -35.45      0.00
    3    6    0      7.85      0.00
    4    6    0      1.07      0.00
    5    6    0    -12.97      0.00
    6    6    0     -3.73      0.00
    7    6    0     -5.60      0.00
    8    6    0      6.49      0.00
    9    6    0     -3.09      0.00
   10    6    0      1.51      0.00
   11    6    0     -1.29      0.00
   12    6    0     -1.00      0.00
   13    6    0     -0.37      0.00
   14    6    0      0.10      0.00
   15    6    0      0.50      0.00
   16    6    0      0.10      0.00
   17    6    0      0.42      0.00
   18    6    0     -0.32      0.00
   19    6    0      0.55      0.00
    1    7    0     18.78      0.00
    2    7    0     -5.03      0.00
    3    7    0     32.53      0.00
    4    7    0    -10.13      0.00
    5    7    0      4.23      0.00
    6    7    0     -1.55      0.00
    7    7    0     -9.04      0.00
    8    7    0      3.15      0.00
    9    7    0     -1.72      0.00
   10    7    0      2.65      0.00
   11    7    0     -1.38      0.00
   12    7    0      0.84      0.00
   13    7    0      0.67      0.00
   14    7    0     -0.83      0.00
   15    7    0      1.73      0.00
   16    7    0     -1.04      0.00
   17    7    0      0.11      0.00
   18    7    0      0.56      0.00
   19    7    0     -0.93      0.00
    1    8    0    -17.09      0.00
    2    8    0     -4.91      0.00
    3    8    0      9.43      0.00
    4    8    0      2.67      0.00
    5    8    0      5.25      0.00
    6    8    0     -9.14      0.00
    7    8    0      7.37      0.00
    8    8    0      1.56      0.00
    9    8    0     -0.39      0.00
   10    8    0     -0.63      0.00
   11    8    0     -3.01      0.00
   12    8    0      0.38      0.00
   13    8    0     -1.74      0.00
   14    8    0      1.39      0.00
   15    8    0     -1.08      0.00
   16    8    0      0.87      0.00
   17    8    0      0.10      0.00
   18    8    0     -0.34      0.00
   19    8    0      0.42      0.00
    1    9    0     16.55      0.00
    2    9    0     20.88      0.00
    3    9    0     -9.60      0.00
    4    9    0      4.55      0.00
    5    9    0    -13.41      0.00
    6    9    0      5.69      0.00
    7    9    0     -2.64      0.00
    8    9    0      0.60      0.00
    9    9    0      5.89      0.00
   10    9    0     -3.85      0.00
   11    9    0      3.90      0.00
   12    9    0     -2.59      0.00
   13    9    0      2.63      0.00
   14    9    0     -1.21      0.00
   15    9    0      0.89      0.00
   16    9    0      0.16      0.00
   17    9    0     -0.38      0.00
   18    9    0      1.16      0.00
   19    9    0     -0.64      0.00
    0   10    0     -5.61      0.00
    1   10    0     -8.16      0.00
    2   10    0      7.17      0.00
    3   10    0      7.46      0.00
    4   10    0     10.72      0.00
    5   10    0      9.96      0.00
    6   10    0      0.05      0.00
    7   10    0      6.81      0.00
    8   10    0      3.02      0.00
    9   10    0     -2.23      0.00
   10   10    0     -2.40      0.00
   11   10    0     -1.53      0.00
   12   10    0     -0.14      0.00
   13   10    0     -0.18      0.00
   14   10    0      0.97      0.00
   15   10    0     -0.92      0.00
   16   10    0      0.90      0.00
   17   10    0     -0.43      0.00
   18   10    0      0.17      0.00
   19   10    0     -0.78      0.00
    1   11    0     10.69      0.00
    2   11    0     19.90      0.00
    3   11    0    -32.12      0.00
    4   11    0      2.82      0.00
    5   11    0    -14.83      0.00
    6   11    0      3.54      0.00
    7   11    0      2.31      0.00
    8   11    0     -2.21      0.00
    9   11    0      5.36      0.00
   10   11    0     -4.36      0.00
   11   11    0      2.74      0.00
   12   11    0     -2.09      0.00
   13   11    0      1.23      0.00
   14   11    0     -0.91      0.00
   15   11    0     -0.57      0.00
   16   11    0      1.04      0.00
   17   11    0     -0.17      0.00
   18   11    0      0.76      0.00
   19   11    0      0.13      0.00
    0   12    0     -9.15      0.00
    1   12    0      8.49      0.00
    2   12    0     -1.96      0.00
    3   12    0     -0.55      0.00
    4   12    0     14.77      0.00
    5   12    0      4.27      0.00
    6   12    0      6.75      0.00
    7   12    0     -0.77      0.00
    8   12    0      2.91      0.00
    9   12    0     -4.17      0.00
   10   12    0     -4.20      0.00
   11   12    0      1.31      0.00
   12   12    0     -1.20      0.00
   13   12    0      1.60      0.00
   14   12    0      0.25      0.00
   15   12    0      0.14      0.00
   16   12    0      1.13      0.00
   17   12    0     -1.15      0.00
   18   12    0      0.97      0.00
   19   12    0     -1.75      0.00
    1   13    0     14.25      0.00
    2   13    0     -9.43      0.00
    3   13    0    -17.76      0.00
    4   13    0    -11.66      0.00
    5   13    0     -0.30      0.00
    6   13    0     -2.91      0.00
    7   13    0      5.11      0.00
    8   13    0     -0.77      0.00
    9   13    0     -2.00      0.00
   10   13    0      1.32      0.00
   11   13    0     -2.64      0.00
   12   13    0      0.18      0.00
   13   13    0     -1.10      0.00
   14   13    0     -1.16      0.00
   15   13    0     -0.86      0.00
   16   13    0      0.44      0.00
   17   13    0      0.53      0.00
   18   13    0      0.35      0.00
   19   13    0      0.32      0.00
    0   14    0     -3.23      0.00
    1   14    0     -2.75      0.00
    2   14    0     -7.89      0.00
    3   14    0     -9.21      0.00
    4   14    0      8.47      0.00
    5   14    0      2.36      0.00
    6   14    0     -0.38      0.00
    7   14    0     -0.71      0.00
    8   14    0     -3.98      0.00
    9   14    0     -0.62      0.00
   10   14    0     -4.13      0.00
   11   14    0      2.26      0.00
   12   14    0      0.16      0.00
   13   14    0      0.89      0.00
   14   14    0      0.36      0.00
   15   14    0      0.94      0.00
   16   14    0      0.93      0.00
   17   14    0     -0.84      0.00
   18   14    0      0.69      0.00
    1   15    0     13.50      0.00
    2   15    0    -24.38      0.00
    3   15    0     -3.52      0.00
    4   15    0    -11.62      0.00
    5   15    0      6.70      0.00
    6   15    0     -3.71      0.00
    7   15    0      5.38      0.00
    8   15    0      0.89      0.00
    9   15    0     -3.92      0.00
   10   15    0      3.05      0.00
   11   15    0     -2.83      0.00
   12   15    0      0.06      0.00
   13   15    0     -0.95      0.00
   14   15    0     -1.29      0.00
   15   15    0      0.27      0.00
   16   15    0     -0.01      0.00
   17   15    0      0.65      0.00
   18   15    0      0.60      0.00
    0   16    0      6.60      0.00
    1   16    0    -18.31      0.00
    2   16    0     -7.03      0.00
    3   16    0     -8.52      0.00
    4   16    0      0.02      0.00
    5   16    0      1.79      0.00
    6   16    0     -7.05      0.00
    7   16    0      1.56      0.00
    8   16    0     -7.51      0.00
    9   16    0      2.86      0.00
   10   16    0     -0.55      0.00
   11   16    0      0.88      0.00
   12   16    0      2.16      0.00
   13   16    0     -0.35      0.00
   14   16    0      0.20      0.00
   15   16    0      1.97      0.00
   16   16    0     -0.26      0.00
   17   16    0      0.87      0.00
   18   16    0     -0.29      0.00
    1   17    0      3.86      0.00
    2   17    0    -12.35      0.00
    3   17    0     -5.05      0.00
    4   17    0      1.26      0.00
    5   17    0      2.36      0.00
    6   17    0      0.20      0.00
    7   17    0      3.53      0.00
    8   17    0      0.76      0.00
    9   17    0      0.68      0.00
   10   17    0     -0.46      0.00
   11   17    0      0.86      0.00
   12   17    0     -1.17      0.00
   13   17    0     -0.30      0.00
   14   17    0     -0.33      0.00
   15   17    0      1.23      0.00
   16   17    0      0.49      0.00
   17   17    0      0.34      0.00
   18   17    0      0.49      0.00
    0   18    0      2.29      0.00
    1   18    0    -10.36      0.00
    2   18    0     -6.30      0.00
    3   18    0     -0.58      0.00
    4   18    0     -1.57      0.00
    5   18    0     -3.30      0.00
    6   18    0     -2.46      0.00
    7   18    0     -1.68      0.00
    8   18    0     -1.58      0.00
    9   18    0      1.28      0.00
   10   18    0      3.52      0.00
   11   18    0     -0.34      0.00
   12   18    0      1.41      0.00
   13   18    0     -0.30      0.00
   14   18    0     -0.64      0.00
   15   18    0      2.13      0.00
   16   18    0     -1.31      0.00
   17   18    0      1.56      0.00
   18   18    0     -0.55      0.00
    1   19    0     -2.02      0.00
    2   19    0      1.20      0.00
    3   19    0     -4.97      0.00
    4   19    0      5.87      0.00
    5   19    0      0.42      0.00
    6   19    0      1.84      0.00
    7   19    0      1.34      0.00
    8   19    0      1.17      0.00
    9   19    0      2.62      0.00
   10   19    0     -1.58      0.00
   11   19    0      1.02      0.00
   12   19    0     -0.71      0.00
   13   19    0     -0.98      0.00
   14   19    0      0.34      0.00
   15   19    0      1.51      0.00
   16   19    0      0.65      0.00
   17   19    0      0.20      0.00
    0   20    0     -6.21      0.00
    1   20    0      5.03      0.00
    2   20    0     -3.88      0.00
    3   20    0      3.76      0.00
    4   20    0      0.46      0.00
    5   20    0     -6.82      0.00
    6   20    0      3.18      0.00
    7   20    0     -3.55      0.00
    8   20    0      4.30      0.00
    9   20    0     -0.73      0.00
   10   20    0      3.80      0.00
   11   20    0     -0.42      0.00
   12   20    0     -0.93      0.00
   13   20    0     -0.44      0.00
   14   20    0     -0.85      0.00
   15   20    0      0.28      0.00
   16   20    0     -1.32      0.00
   17   20    0      0.12      0.00
    1   21    0      0.29      0.00
    2   21    0      2.48      0.00
    3   21    0      1.13      0.00
    4   21    0      1.01      0.00
    5   21    0      2.43      0.00
    6   21    0      0.53      0.00
    7   21    0      0.03      0.00
    8   21    0      1.76      0.00
    9   21    0     -0.02      0.00
   10   21    0      0.66      0.00
   11   21    0     -1.15      0.00
   12   21    0      0.24      0.00
   13   21    0     -0.86      0.00
   14   21    0     -0.35      0.00
   15   21    0      1.56      0.00
   16   21    0      0.19      0.00
   17   21    0     -0.06      0.00
    0   22    0     -4.97      0.00
    1   22    0      6.66      0.00
    2   22    0      0.60      0.00
    3   22    0      2.14      0.00
    4   22    0     -0.71      0.00
    5   22    0     -3.85      0.00
    6   22    0      1.00      0.00
    7   22    0      0.73      0.00
    8   22    0      2.51      0.00
    9   22    0      0.33      0.00
   10   22    0      1.23      0.00
   11   22    0     -0.82      0.00
   12   22    0     -1.63      0.00
   13   22    0     -1.19      0.00
   14   22    0     -0.29      0.00
   15   22    0     -1.40      0.00
   16   22    0     -1.01      0.00
   17   22    0     -1.10      0.00
    1   23    0      2.68      0.00
    2   23    0      0.99      0.00
    3   23    0      2.35      0.00
    4   23    0     -0.39      0.00
    5   23    0      1.32      0.00
    6   23    0      0.16      0.00
    7   23    0     -0.53      0.00
    8   23    0      0.29      0.00
    9   23    0     -1.61      0.00
   10   23    0      0.73      0.00
   11   23    0     -0.68      0.00
   12   23    0     -0.01      0.00
   13   23    0      0.46      0.00
   14   23    0     -0.88      0.00
   15   23    0      0.96      0.00
   16   23    0      0.19      0.00
    0   24    0     -0.46      0.00
    1   24    0      0.65      0.00
    2   24    0      1.43      0.00
    3   24    0      0.14      0.00
    4   24    0     -3.66      0.00
    5   24    0      0.05      0.00
    6   24    0     -2.26      0.00
    7   24    0      4.10      0.00
    8   24    0     -1.02      0.00
    9   24    0      1.14      0.00
   10   24    0     -0.02      0.00
   11   24    0     -1.64      0.00
   12   24    0     -0.88      0.00
   13   24    0     -0.92      0.00
   14   24    0      0.08      0.00
   15   24    0     -1.14      0.00
   16   24    0     -0.85      0.00
    1   25    0      1.22      0.00
    2   25    0      2.63      0.00
    3   25    0     -0.95      0.00
    4   25    0      2.34      0.00
    5   25    0     -1.20      0.00
    6   25    0      1.09      0.00
    7   25    0     -0.75      0.00
    8   25    0     -1.84      0.00
    9   25    0     -0.69      0.00
   10   25    0     -1.36      0.00
   11   25    0      1.18      0.00
   12   25    0     -0.05      0.00
   13   25    0      0.95      0.00
   14   25    0     -0.28      0.00
   15   25    0     -0.18      0.00
   16   25    0      0.54      0.00
    0   26    0     -0.92      0.00
    1   26    0     -0.99      0.00
    2   26    0     -1.01      0.00
    3   26    0     -0.20      0.00
    4   26    0     -3.06      0.00
    5   26    0      0.12      0.00
    6   26    0     -0.44      0.00
    7   26    0      2.05      0.00
    8   26    0     -0.53      0.00
    9   26    0     -0.27      0.00
   10   26    0      0.27      0.00
   11   26    0     -1.36      0.00
   12   26    0     -0.65      0.00
   13   26    0      0.05      0.00
   14   26    0      0.75      0.00
   15   26    0     -0.44      0.00
    1   27    0     -0.32      0.00
    2   27    0      2.97      0.00
    3   27    0     -0.70      0.00
    4   27    0      2.21      0.00
    5   27    0     -0.17      0.00
    6   27    0      1.19      0.00
    7   27    0     -0.54      0.00
    8   27    0     -1.76      0.00
    9   27    0     -0.25      0.00
   10   27    0     -1.45      0.00
   11   27    0      1.25      0.00
   12   27    0      0.43      0.00
   13   27    0      0.82      0.00
   14   27    0     -0.20      0.00
   15   27    0     -0.78      0.00
    0   28    0     -2.59      0.00
    1   28    0      0.82      0.00
    2   28    0     -1.00      0.00
    3   28    0     -0.40      0.00
    4   28    0      0.59      0.00
    5   28    0     -0.75      0.00
    6   28    0      2.07      0.00
    7   28    0     -0.77      0.00
    8   28    0      0.73      0.00
    9   28    0     -1.11      0.00
   10   28    0     -0.39      0.00
   11   28    0     -0.01      0.00
   12   28    0     -0.84      0.00
   13   28    0      0.01      0.00
   14   28    0      1.98      0.00
    1   29    0      0.20      0.00
    2   29    0      0.54      0.00
    3   29    0      2.22      0.00
    4   29    0     -0.07      0.00
    5   29    0      2.02      0.00
    6   29    0      0.44      0.00
    7   29    0      0.08      0.00
    8   29    0     -0.31      0.00
    9   29    0     -0.70      0.00
   10   29    0      0.20      0.00
   11   29    0      0.42      0.00
   12   29    0     -0.15      0.00
   13   29    0      1.25      0.00
   14   29    0     -1.12      0.00
    0   30    0     -1.14      0.00
    1   30    0      1.07      0.00
    2   30    0      1.57      0.00
    3   30    0     -0.09      0.00
    4   30    0      2.62      0.00
    5   30    0      0.27      0.00
    6   30    0      1.57      0.00
    7   30    0     -0.75      0.00
    8   30    0     -0.22      0.00
    9   30    0      0.26      0.00
   10   30    0     -1.74      0.00
   11   30    0      0.95      0.00
   12   30    0     -0.74      0.00
   13   30    0     -0.69      0.00
    1   31    0      0.54      0.00
    2   31    0     -0.95      0.00
    3   31    0      2.19      0.00
    4   31    0     -0.49      0.00
    5   31    0      1.45      0.00
    6   31    0     -0.10      0.00
    7   31    0      0.59      0.00
    8   31    0      0.19      0.00
    9   31    0     -0.22      0.00
   10   31    0      0.87      0.00
   11   31    0      0.39      0.00
   12   31    0     -0.97      0.00
   13   31    0      1.34      0.00
    0   32    0      1.37      0.00
    1   32    0     -0.19      0.00
    2   32    0      2.72      0.00
    3   32    0      1.30      0.00
    4   32    0      1.54      0.00
    5   32    0      1.38      0.00
    6   32    0      0.42      0.00
    7   32    0      0.05      0.00
    8   32    0     -1.33      0.00
    9   32    0      1.78      0.00
   10   32    0     -1.93      0.00
   11   32    0      1.07      0.00
   12   32    0     -0.76      0.00
    1   33    0     -0.80      0.00
    2   33    0      0.08      0.00
    3   33    0     -0.24      0.00
    4   33    0      0.30      0.00
    5   33    0     -0.10      0.00
    6   33    0      0.07      0.00
    7   33    0      0.63      0.00
    8   33    0     -0.02      0.00
    9   33    0      1.24      0.00
   10   33    0      0.49      0.00
   11   33    0      0.59      0.00
   12   33    0     -0.52      0.00
    0   34    0      1.82      0.00
    1   34    0     -0.92      0.00
    2   34    0      1.95      0.00
    3   34    0      1.94      0.00
    4   34    0     -0.51      0.00
    5   34    0      1.09      0.00
    6   34    0      0.05      0.00
    7   34    0      0.05      0.00
    8   34    0     -1.15      0.00
    9   34    0      1.82      0.00
   10   34    0     -0.86      0.00
   11   34    0      1.01      0.00
    1   35    0     -2.34      0.00
    2   35    0      1.53      0.00
    3   35    0     -1.43      0.00
    4   35    0      0.39      0.00
    5   35    0     -0.17      0.00
    6   35    0      0.92      0.00
    7   35    0      0.26      0.00
    8   35    0     -0.02      0.00
    9   35    0      2.16      0.00
   10   35    0      0.07      0.00
    0   36    0      0.00      0.00
    1   36    0     -0.68      0.00
    2   36    0      1.26      0.00
    3   36    0      0.66      0.00
    4   36    0     -1.73      0.00
    5   36    0      0.61      0.00
    6   36    0     -0.68      0.00
    7   36    0      0.19      0.00
    8   36    0     -0.61      0.00
    9   36    0      0.97      0.00
   10   36    0      0.23      0.00
    1   37    0     -2.26      0.00
    2   37    0      1.31      0.00
    3   37    0     -1.30      0.00
    4   37    0      0.10      0.00
    5   37    0     -0.09      0.00
    6   37    0      1.65      0.00
    7   37    0     -0.22      0.00
    8   37    0     -0.24      0.00
    9   37    0      1.84      0.00
    0   38    0     -1.99      0.00
    1   38    0     -0.02      0.00
    2   38    0      1.06      0.00
    3   38    0     -0.76      0.00
    4   38    0     -1.82      0.00
    5   38    0      0.56      0.00
    6   38    0     -1.30      0.00
    7   38    0      0.39      0.00
    8   38    0     -0.37      0.00
    1   39    0     -0.59      0.00
    2   39    0     -0.14      0.00
    3   39    0     -1.20      0.00
    4   39    0     -0.08      0.00
    5   39    0     -0.70      0.00
    6   39    0      1.36      0.00
    0   40    0     -2.21      0.00
    1   40    0      0.31      0.00
    2   40    0      0.50      0.00
    3   40    0     -0.67      0.00
    4   40    0     -1.16      0.00
    5   40    0      0.26      0.00
    1   41    0      1.04      0.00
    2   41    0     -0.88      0.00
    3   41    0     -0.90      0.00
  -20    1    1      1.15      0.00
  -19    1    1      1.32      0.00
  -18    1    1      0.80      0.00
  -17    1    1     -1.69      0.00
  -16    1    1      0.99      0.00
  -15    1    1      2.49      0.00
  -14    1    1      0.09      0.00
  -13    1    1      1.80      0.00
  -12    1    1     -0.04      0.00
  -11    1    1     -0.22      0.00
  -10    1    1     -0.42      0.00
   -9    1    1     -2.94      0.00
   -8    1    1      8.21      0.00
   -7    1    1    -12.78      0.00
   -5    1    1    -11.36      0.00
   -4    1    1      0.59      0.00
   -3    1    1      9.06      0.00
   -1    1    1     22.08      0.00
    0    1    1   -249.27      0.00
    1    1    1     16.72      0.00
    2    1    1    -82.63      0.00
    3    1    1      8.28      0.00
    4    1    1    -13.93      0.00
    5    1    1     -6.08      0.00
    6    1    1      5.06      0.00
    7    1    1    -13.36      0.00
    8    1    1      9.05      0.00
    9    1    1     -6.29      0.00
   10    1    1      2.32      0.00
   11    1    1     -1.47      0.00
   12    1    1     -1.84      0.00
   13    1    1      0.18      0.00
   14    1    1     -0.98      0.00
   15    1    1      0.75      0.00
   16    1    1      0.43      0.00
   17    1    1      0.09      0.00
   18    1    1      1.62      0.00
   19    1    1      1.37      0.00
  -20    2    1      0.89      0.00
  -19    2    1      0.18      0.00
  -18    2    1      0.09      0.00
  -17    2    1     -0.18      0.00
  -16    2    1      0.59      0.00
  -15    2    1      0.81      0.00
  -14    2    1     -0.12      0.00
  -13    2    1     -0.85      0.00
  -12    2    1      0.83      0.00
  -11    2    1     -0.50      0.00
  -10    2    1     -2.57      0.00
   -9    2    1      2.74      0.00
   -8    2    1     -9.47      0.00
   -7    2    1     -8.76      0.00
   -5    2    1     -9.56      0.00
   -4    2    1     10.16      0.00
   -3    2    1     -2.87      0.00
   -2    2    1     19.71      0.00
    0    2    1      5.27      0.00
    1    2    1      2.37      0.00
    2    2    1    -11.15      0.00
    3    2    1      8.08      0.00
    4    2    1    -15.58      0.00
    5    2    1     -4.26      0.00
    6    2    1      0.52      0.00
    7    2    1      6.04      0.00
    8    2    1      8.21      0.00
    9    2    1     -0.29      0.00
   10    2    1      4.26      0.00
   11    2    1     -0.65      0.00
   12    2    1     -0.32      0.00
   13    2    1      1.28      0.00
   14    2    1     -0.10      0.00
   15    2    1      0.66      0.00
   16    2    1     -1.28      0.00
   17    2    1      0.99      0.00
   18    2    1      0.18      0.00
   19    2    1      0.36      0.00
  -20    3    1      0.60      0.00
  -19    3    1      0.68      0.00
  -18    3    1      0.08      0.00
  -17    3    1     -1.80      0.00
  -16    3    1      1.30      0.00
  -15    3    1      0.11      0.00
  -14    3    1      1.14      0.00
  -13    3    1     -0.44      0.00
  -12    3    1      2.38      0.00
  -11    3    1     -1.37      0.00
  -10    3    1      0.07      0.00
   -9    3    1      1.73      0.00
   -8    3    1     -2.93      0.00
   -7    3    1      4.40      0.00
   -5    3    1     13.55      0.00
   -4    3    1     -6.32      0.00
   -3    3    1      9.29      0.00
   -2    3    1     28.68      0.00
   -1    3    1    -11.82      0.00
    0    3    1   -107.93      0.00
    1    3    1    -20.71      0.00
    2    3    1     -6.85      0.00
    3    3    1     -7.17      0.00
    4    3    1     -6.34      0.00
    5    3    1      8.85      0.00
    6    3    1     -1.63      0.00
    7    3    1      5.01      0.00
    8    3    1     -2.47      0.00
    9    3    1      1.86      0.00
   10    3    1     -1.66      0.00
   11    3    1     -0.84      0.00
   12    3    1     -0.07      0.00
   13    3    1     -1.04      0.00
   14    3    1      0.81      0.00
   15    3    1     -1.40      0.00
   16    3    1      1.01      0.00
   17    3    1     -0.15      0.00
   18    3    1      1.33      0.00
   19    3    1      0.92      0.00
  -19    4    1      0.14      0.00
  -18    4    1     -0.34      0.00
  -17    4    1      0.28      0.00
  -16    4    1     -0.55      0.00
  -15    4    1      1.20      0.00
  -14    4    1     -0.47      0.00
  -13    4    1     -1.61      0.00
  -12    4    1      2.42      0.00
  -11    4    1     -3.77      0.00
  -10    4    1      2.22      0.00
   -9    4    1     -1.25      0.00
   -8    4    1     -4.91      0.00
   -7    4    1    -13.24      0.00
   -6    4    1    -10.28      0.00
   -5    4    1     -4.92      0.00
   -4    4    1     -0.96      0.00
   -3    4    1     26.89      0.00
   -2    4    1      2.21      0.00
   -1    4    1    -39.73      0.00
    0    4    1     -0.36      0.00
    1    4    1    -11.45      0.00
    2    4    1     -0.51      0.00
    3    4    1    -18.26      0.00
    4    4    1     -3.37      0.00
    5    4    1    -19.99      0.00
    6    4    1      5.60      0.00
    7    4    1      7.92      0.00
    8    4    1      6.45      0.00
    9    4    1      3.93      0.00
   10    4    1      0.82      0.00
   11    4    1      2.69      0.00
   12    4    1     -2.12      0.00
   13    4    1      2.92      0.00
   14    4    1     -0.26      0.00
   15    4    1      0.46      0.00
   16    4    1     -0.62      0.00
   17    4    1      0.91      0.00
   18    4    1      0.38      0.00
   19    4    1      0.89      0.00
  -20    5    1      0.35      0.00
  -19    5    1     -0.19      0.00
  -18    5    1     -0.01      0.00
  -17    5    1     -1.44      0.00
  -16    5    1      0.97      0.00
  -15    5    1     -0.94      0.00
  -14    5    1      0.76      0.00
  -13    5    1     -1.08      0.00
  -12    5    1      2.22      0.00
  -11    5    1     -0.62      0.00
  -10    5    1      0.14      0.00
   -9    5    1      3.14      0.00
   -8    5    1     -8.99      0.00
   -7    5    1      9.75      0.00
   -6    5    1     -6.59      0.00
   -5    5    1     23.08      0.00
   -4    5    1     -5.73      0.00
   -3    5    1      5.01      0.00
   -2    5    1     33.46      0.00
   -1    5    1    -19.32      0.00
    0    5    1     13.80      0.00
    1    5    1    -23.36      0.00
    2    5    1     46.62      0.00
    3    5    1    -14.83      0.00
    4    5    1      0.56      0.00
    5    5    1     12.45      0.00
    6    5    1      1.67      0.00
    7    5    1     10.19      0.00
    8    5    1     -7.09      0.00
    9    5    1      4.16      0.00
   10    5    1     -3.92      0.00
   11    5    1      0.01      0.00
   12    5    1      0.84      0.00
   13    5    1     -0.58      0.00
   14    5    1      1.21      0.00
   15    5    1     -1.53      0.00
   16    5    1      0.72      0.00
   17    5    1      0.31      0.00
   18    5    1      0.94      0.00
   19    5    1      0.36      0.00
  -19    6    1     -0.33      0.00
  -18    6    1     -0.30      0.00
  -17    6    1      0.67      0.00
  -16    6    1     -1.62      0.00
  -15    6    1      1.57      0.00
  -14    6    1     -0.73      0.00
  -13    6    1     -0.05      0.00
  -12    6    1      2.23      0.00
  -11    6    1     -3.67      0.00
  -10    6    1      5.59      0.00
   -9    6    1     -3.30      0.00
   -8    6    1      3.70      0.00
   -7    6    1    -10.99      0.00
   -6    6    1     -4.00      0.00
   -5    6    1     -1.55      0.00
   -4    6    1    -11.70      0.00
   -3    6    1     43.69      0.00
   -2    6    1    -15.14      0.00
   -1    6    1      1.34      0.00
    0    6    1     -5.17      0.00
    2    6    1      6.03      0.00
    3    6    1    -38.26      0.00
    4    6    1     10.85      0.00
    5    6    1    -22.59      0.00
    6    6    1      6.87      0.00
    7    6    1      7.80      0.00
    8    6    1     -0.27      0.00
    9    6    1      5.15      0.00
   10    6    1     -3.24      0.00
   11    6    1      3.28      0.00
   12    6    1     -2.35      0.00
   13    6    1      1.60      0.00
   14    6    1     -0.04      0.00
   15    6    1     -1.09      0.00
   16    6    1      0.61      0.00
   17    6    1      0.41      0.00
   18    6    1     -0.04      0.00
   19    6    1      1.84      0.00
  -19    7    1     -0.62      0.00
  -18    7    1      0.66      0.00
  -17    7    1     -1.08      0.00
  -16    7    1     -0.01      0.00
  -15    7    1      0.04      0.00
  -14    7    1     -0.79      0.00
  -13    7    1      0.43      0.00
  -12    7    1     -0.48      0.00
  -11    7    1      2.49      0.00
  -10    7    1      0.83      0.00
   -9    7    1      1.60      0.00
   -8    7    1     -4.49      0.00
   -7    7    1     -1.62      0.00
   -6    7    1      1.69      0.00
   -5    7    1      5.80      0.00
   -4    7    1      0.44      0.00
   -3    7    1     -5.17      0.00
   -2    7    1      5.29      0.00
   -1    7    1      4.61      0.00
    0    7    1     29.26      0.00
    1    7    1     11.47      0.00
    2    7    1     33.41      0.00
    3    7    1     -9.88      0.00
    4    7    1     -0.82      0.00
    5    7    1     -0.49      0.00
    6    7    1     11.44      0.00
    7    7    1     -2.74      0.00
    8    7    1     -1.45      0.00
    9    7    1     -0.17      0.00
   10    7    1     -1.99      0.00
   11    7    1      1.47      0.00
   12    7    1      0.32      0.00
   13    7    1      1.50      0.00
   14    7    1     -0.47      0.00
   15    7    1      0.48      0.00
   16    7    1     -0.44      0.00
   17    7    1      0.64      0.00
   18    7    1      0.31      0.00
   19    7    1     -0.12      0.00
  -19    8    1     -0.51      0.00
  -18    8    1      0.38      0.00
  -17    8    1      0.16      0.00
  -16    8    1     -0.87      0.00
  -15    8    1      1.07      0.00
  -14    8    1     -0.93      0.00
  -13    8    1      2.34      0.00
  -12    8    1     -0.89      0.00
  -11    8    1      1.70      0.00
  -10    8    1     -0.26      0.00
   -9    8    1      3.16      0.00
   -8    8    1      2.62      0.00
   -7    8    1     -3.22      0.00
   -6    8    1      4.29      0.00
   -5    8    1     -9.63      0.00
   -4    8    1     -1.88      0.00
   -3    8    1      9.68      0.00
   -2    8    1      3.63      0.00
   -1    8    1     12.56      0.00
    0    8    1      1.16      0.00
    1    8    1    -29.95      0.00
    2    8    1    -13.55      0.00
    3    8    1    -14.50      0.00
    4    8    1      0.37      0.00
    5    8    1      0.16      0.00
    6    8    1     -1.01      0.00
    7    8    1      7.53      0.00
    8    8    1     -2.55      0.00
    9    8    1     -1.10      0.00
   10    8    1      0.13      0.00
   11    8    1     -1.87      0.00
   12    8    1      1.02      0.00
   13    8    1     -1.87      0.00
   14    8    1      0.80      0.00
   15    8    1     -1.95      0.00
   16    8    1      0.41      0.00
   17    8    1      0.46      0.00
   18    8    1     -1.00      0.00
   19    8    1      2.24      0.00
  -19    9    1      0.19      0.00
  -18    9    1      1.05      0.00
  -17    9    1     -0.54      0.00
  -16    9    1     -0.66      0.00
  -15    9    1      0.80      0.00
  -14    9    1     -1.06      0.00
  -13    9    1      0.57      0.00
  -12    9    1     -1.26      0.00
  -11    9    1      3.21      0.00
  -10    9    1      2.96      0.00
   -9    9    1      2.61      0.00
   -8    9    1     -0.43      0.00
   -7    9    1     -7.11      0.00
   -6    9    1      1.49      0.00
   -5    9    1     -9.36      0.00
   -4    9    1     -2.34      0.00
   -3    9    1    -12.06      0.00
   -2    9    1    -17.51      0.00
   -1    9    1     11.44      0.00
    0    9    1      4.69      0.00
    1    9    1     19.61      0.00
    2    9    1      6.00      0.00
    3    9    1     -5.79      0.00
    4    9    1     -8.88      0.00
    5    9    1     -9.26      0.00
    6    9    1      8.09      0.00
    7    9    1     -9.37      0.00
    8    9    1     -0.56      0.00
    9    9    1     -0.42      0.00
   10    9    1      0.22      0.00
   11    9    1      2.49      0.00
   12    9    1      0.37      0.00
   13    9    1      1.80      0.00
   14    9    1     -1.22      0.00
   15    9    1      1.21      0.00
   16    9    1     -0.70      0.00
   17    9    1      0.47      0.00
   18    9    1     -0.58      0.00
   19    9    1      0.12      0.00
  -19   10    1      0.14      0.00
  -18   10    1      0.53      0.00
  -17   10    1     -0.47      0.00
  -16   10    1      0.54      0.00
  -15   10    1     -0.55      0.00
  -14   10    1     -0.93      0.00
  -13   10    1      1.70      0.00
  -12   10    1     -2.71      0.00
  -11   10    1      3.96      0.00
  -10   10    1     -5.78      0.00
   -9   10    1      7.64      0.00
   -8   10    1     -3.01      0.00
   -7   10    1      4.05      0.00
   -5   10    1    -12.30      0.00
   -4   10    1      6.87      0.00
   -3   10    1    -31.24      0.00
   -2   10    1     21.64      0.00
   -1   10    1      0.88      0.00
    0   10    1      6.76      0.00
    1   10    1    -24.18      0.00
    2   10    1    -29.14      0.00
    3   10    1     17.49      0.00
    4   10    1    -10.59      0.00
    5   10    1     18.33      0.00
    6   10    1     -6.32      0.00
    7   10    1      4.62      0.00
    8   10    1     -0.48      0.00
    9   10    1     -5.78      0.00
   10   10    1      4.28      0.00
   11   10    1     -4.31      0.00
   12   10    1      3.18      0.00
   13   10    1     -2.46      0.00
   14   10    1      1.26      0.00
   15   10    1     -0.59      0.00
   16   10    1     -0.44      0.00
   17   10    1      0.34      0.00
   18   10    1     -1.13      0.00
   19   10    1      1.35      0.00
  -19   11    1      1.62      0.00
  -18   11    1      0.61      0.00
  -17   11    1      0.78      0.00
  -16   11    1     -1.09      0.00
  -15   11    1      0.68      0.00
  -14   11    1     -0.27      0.00
  -13   11    1     -1.14      0.00
  -12   11    1      0.02      0.00
  -11   11    1     -0.45      0.00
  -10   11    1      5.20      0.00
   -9   11    1      4.37      0.00
   -8   11    1     -0.60      0.00
   -7   11    1     -0.64      0.00
   -6   11    1     -6.03      0.00
   -5   11    1     -7.92      0.00
   -4   11    1    -11.71      0.00
   -3   11    1     -7.02      0.00
   -2   11    1    -12.77      0.00
   -1   11    1     -2.83      0.00
    0   11    1      3.35      0.00
    1   11    1     -4.26      0.00
    2   11    1      4.93      0.00
    3   11    1     -2.94      0.00
    4   11    1    -14.41      0.00
    5   11    1     -5.57      0.00
    6   11    1     -4.67      0.00
    7   11    1     -3.17      0.00
    8   11    1     -5.56      0.00
    9   11    1      3.22      0.00
   10   11    1      1.01      0.00
   11   11    1      1.18      0.00
   12   11    1      1.48      0.00
   13   11    1     -0.28      0.00
   14   11    1     -0.18      0.00
   15   11    1      0.03      0.00
   16   11    1     -0.17      0.00
   17   11    1      0.82      0.00
   18   11    1     -1.40      0.00
   19   11    1      1.10      0.00
  -19   12    1      0.63      0.00
  -18   12    1      0.22      0.00
  -17   12    1     -0.28      0.00
  -16   12    1      1.06      0.00
  -15   12    1     -1.27      0.00
  -14   12    1     -0.63      0.00
  -13   12    1     -0.79      0.00
  -12   12    1     -0.98      0.00
  -11   12    1     -0.22      0.00
  -10   12    1     -1.91      0.00
   -9   12    1      1.74      0.00
   -8   12    1     -2.81      0.00
   -7   12    1      5.78      0.00
   -6   12    1      0.92      0.00
   -5   12    1     -0.77      0.00
   -4   12    1     -3.25      0.00
   -3   12    1    -31.91      0.00
   -2   12    1      2.27      0.00
   -1   12    1      1.08      0.00
    0   12    1      0.39      0.00
    1   12    1    -21.61      0.00
    2   12    1    -11.93      0.00
    3   12    1     17.73      0.00
    4   12    1      1.93      0.00
    5   12    1     11.31      0.00
    6   12    1     -0.39      0.00
    7   12    1     -1.19      0.00
    8   12    1      1.05      0.00
    9   12    1     -2.44      0.00
   10   12    1      1.33      0.00
   11   12    1     -0.07      0.00
   12   12    1      0.73      0.00
   13   12    1     -0.17      0.00
   14   12    1      0.87      0.00
   15   12    1      0.75      0.00
   16   12    1     -0.17      0.00
   17   12    1     -0.74      0.00
   18   12    1     -0.38      0.00
   19   12    1      0.33      0.00
  -19   13    1      1.91      0.00
  -18   13    1     -0.07      0.00
  -17   13    1      1.51      0.00
  -16   13    1     -1.51      0.00
  -15   13    1      0.14      0.00
  -14   13    1     -0.13      0.00
  -13   13    1     -1.42      0.00
  -12   13    1     -0.22      0.00
  -11   13    1     -3.24      0.00
  -10   13    1      5.47      0.00
   -9   13    1      2.15      0.00
   -8   13    1      2.58      0.00
   -7   13    1      2.94      0.00
   -6   13    1     -3.11      0.00
   -5   13    1     -4.00      0.00
   -4   13    1    -12.72      0.00
   -3   13    1      2.93      0.00
   -2   13    1      0.47      0.00
   -1   13    1     -2.53      0.00
    0   13    1      6.21      0.00
    1   13    1     -9.48      0.00
    2   13    1     10.82      0.00
    3   13    1      5.73      0.00
    4   13    1    -11.12      0.00
    5   13    1     -0.69      0.00
    6   13    1     -5.81      0.00
    7   13    1      1.03      0.00
    8   13    1     -2.47      0.00
    9   13    1      2.57      0.00
   10   13    1      2.67      0.00
   11   13    1     -1.01      0.00
   12   13    1      1.51      0.00
   13   13    1     -1.31      0.00
   14   13    1      0.04      0.00
   15   13    1     -1.19      0.00
   16   13    1     -0.43      0.00
   17   13    1      0.93      0.00
   18   13    1     -1.55      0.00
   19   13    1      1.36      0.00
  -18   14    1      0.53      0.00
  -17   14    1      0.03      0.00
  -16   14    1      0.92      0.00
  -15   14    1     -0.24      0.00
  -14   14    1     -0.40      0.00
  -13   14    1     -1.59      0.00
  -12   14    1      0.10      0.00
  -11   14    1     -3.20      0.00
  -10   14    1      3.31      0.00
   -9   14    1     -4.98      0.00
   -8   14    1      0.97      0.00
   -7   14    1      4.24      0.00
   -6   14    1     -3.13      0.00
   -5   14    1      9.36      0.00
   -4   14    1    -11.32      0.00
   -3   14    1    -11.52      0.00
   -2   14    1    -23.70      0.00
   -1   14    1      9.37      0.00
    0   14    1     -8.73      0.00
    1   14    1    -18.64      0.00
    2   14    1     14.18      0.00
    3   14    1      3.33      0.00
    4   14    1     15.43      0.00
    5   14    1     -2.02      0.00
    6   14    1      5.99      0.00
    7   14    1     -5.20      0.00
    8   14    1      0.95      0.00
    9   14    1      1.90      0.00
   10   14    1     -2.77      0.00
   11   14    1      3.35      0.00
   12   14    1     -1.49      0.00
   13   14    1      0.89      0.00
   14   14    1      0.78      0.00
   15   14    1      0.31      0.00
   16   14    1      0.70      0.00
   17   14    1     -1.68      0.00
   18   14    1     -0.21      0.00
  -18   15    1     -0.04      0.00
  -17   15    1      0.53      0.00
  -16   15    1     -0.71      0.00
  -15   15    1     -0.92      0.00
  -14   15    1      0.18      0.00
  -13   15    1     -0.18      0.00
  -12   15    1     -2.02      0.00
  -11   15    1     -1.87      0.00
  -10   15    1      2.09      0.00
   -9   15    1     -1.97      0.00
   -8   15    1      7.00      0.00
   -7   15    1     -0.41      0.00
   -6   15    1      6.91      0.00
   -5   15    1     -4.26      0.00
   -4   15    1     -4.82      0.00
   -3   15    1      5.14      0.00
   -2   15    1      5.61      0.00
   -1   15    1     12.39      0.00
    0   15    1     -4.12      0.00
    1   15    1     10.10      0.00
    2   15    1      6.59      0.00
    3   15    1     12.68      0.00
    4   15    1     -2.69      0.00
    5   15    1     -0.12      0.00
    6   15    1      3.52      0.00
    7   15    1     -0.61      0.00
    8   15    1      6.64      0.00
    9   15    1     -1.47      0.00
   10   15    1      3.38      0.00
   11   15    1     -1.21      0.00
   12   15    1     -0.36      0.00
   13   15    1     -0.03      0.00
   14   15    1     -0.92      0.00
   15   15    1     -1.82      0.00
   16   15    1     -0.73      0.00
   17   15    1     -0.44      0.00
   18   15    1     -0.60      0.00
  -18   16    1      0.87      0.00
  -17   16    1     -0.17      0.00
  -16   16    1      0.84      0.00
  -15   16    1      1.06      0.00
  -14   16    1      0.13      0.00
  -13   16    1     -0.98      0.00
  -12   16    1     -1.20      0.00
  -11   16    1     -0.84      0.00
  -10   16    1      1.28      0.00
   -9   16    1     -2.84      0.00
   -8   16    1      1.91      0.00
   -7   16    1      3.53      0.00
   -6   16    1     -1.26      0.00
   -5   16    1      7.56      0.00
   -4   16    1     -2.17      0.00
   -3   16    1     -3.73      0.00
   -2   16    1    -19.45      0.00
   -1   16    1      6.33      0.00
    0   16    1     -8.56      0.00
    1   16    1    -10.01      0.00
    2   16    1     17.25      0.00
    3   16    1      2.08      0.00
    4   16    1      8.10      0.00
    5   16    1     -2.89      0.00
    6   16    1      3.02      0.00
    7   16    1     -4.30      0.00
    8   16    1      0.29      0.00
    9   16    1      0.35      0.00
   10   16    1     -1.27      0.00
   11   16    1      1.12      0.00
   12   16    1     -0.20      0.00
   13   16    1      0.28      0.00
   14   16    1      0.80      0.00
   15   16    1     -0.47      0.00
   16   16    1      0.38      0.00
   17   16    1     -1.31      0.00
   18   16    1     -0.52      0.00
  -18   17    1      0.29      0.00
  -17   17    1     -0.68      0.00
  -16   17    1      0.99      0.00
  -15   17    1     -1.76      0.00
  -14   17    1      1.37      0.00
  -13   17    1     -0.02      0.00
  -12   17    1     -1.94      0.00
  -11   17    1      0.18      0.00
  -10   17    1     -3.00      0.00
   -9   17    1     -2.77      0.00
   -8   17    1      3.46      0.00
   -7   17    1     -1.01      0.00
   -6   17    1      6.82      0.00
   -5   17    1     -0.60      0.00
   -4   17    1     -0.32      0.00
   -3   17    1     -0.03      0.00
   -2   17    1      6.23      0.00
   -1   17    1     13.36      0.00
    0   17    1     -7.19      0.00
    1   17    1     16.77      0.00
    2   17    1      2.93      0.00
    3   17    1      8.03      0.00
    4   17    1      2.54      0.00
    5   17    1      1.46      0.00
    6   17    1      5.50      0.00
    7   17    1      0.63      0.00
    8   17    1      6.69      0.00
    9   17    1     -1.87      0.00
   10   17    1      0.02      0.00
   11   17    1      0.03      0.00
   12   17    1     -1.67      0.00
   13   17    1      0.93      0.00
   14   17    1     -0.94      0.00
   15   17    1     -2.21      0.00
   16   17    1     -0.02      0.00
   17   17    1     -1.76      0.00
   18   17    1      0.43      0.00
  -18   18    1      0.11      0.00
  -17   18    1     -0.48      0.00
  -16   18    1      0.44      0.00
  -15   18    1      1.73      0.00
  -14   18    1      0.80      0.00
  -13   18    1     -0.95      0.00
  -12   18    1     -1.36      0.00
  -11   18    1      1.15      0.00
  -10   18    1     -2.30      0.00
   -9   18    1      1.86      0.00
   -8   18    1      1.23      0.00
   -7   18    1      3.00      0.00
   -6   18    1      1.43      0.00
   -5   18    1      2.47      0.00
   -4   18    1      6.76      0.00
   -3   18    1     -4.37      0.00
   -2   18    1     -0.66      0.00
   -1   18    1     -2.22      0.00
    0   18    1     -2.33      0.00
    1   18    1     -1.52      0.00
    2   18    1      5.22      0.00
    3   18    1      7.04      0.00
    4   18    1     -3.86      0.00
    5   18    1      0.68      0.00
    6   18    1     -2.08      0.00
    7   18    1     -1.23      0.00
    8   18    1     -0.70      0.00
    9   18    1     -2.83      0.00
   10   18    1      1.28      0.00
   11   18    1     -1.41      0.00
   12   18    1      0.96      0.00
   13   18    1      0.47      0.00
   14   18    1      0.25      0.00
   15   18    1     -0.56      0.00
   16   18    1     -0.82      0.00
   17   18    1     -0.51      0.00
   18   18    1     -0.16      0.00
  -17   19    1     -0.53      0.00
  -16   19    1      1.47      0.00
  -15   19    1     -0.92      0.00
  -14   19    1      1.43      0.00
  -13   19    1     -0.46      0.00
  -12   19    1      0.29      0.00
  -11   19    1      0.20      0.00
  -10   19    1     -4.64      0.00
   -9   19    1     -0.66      0.00
   -8   19    1     -4.13      0.00
   -7   19    1      2.11      0.00
   -6   19    1     -1.23      0.00
   -5   19    1      6.06      0.00
   -4   19    1     -2.00      0.00
   -3   19    1     -3.24      0.00
   -2   19    1      4.78      0.00
   -1   19    1     -0.70      0.00
    0   19    1      2.15      0.00
    1   19    1      2.74      0.00
    2   19    1      3.63      0.00
    3   19    1     -1.38      0.00
    4   19    1      2.14      0.00
    5   19    1      4.79      0.00
    6   19    1     -0.53      0.00
    7   19    1      4.28      0.00
    8   19    1     -1.18      0.00
    9   19    1      0.74      0.00
   10   19    1     -3.59      0.00
   11   19    1      0.34      0.00
   12   19    1     -0.64      0.00
   13   19    1      0.55      0.00
   14   19    1     -0.03      0.00
   15   19    1     -1.75      0.00
   16   19    1      0.60      0.00
   17   19    1     -0.90      0.00
  -17   20    1     -0.73      0.00
  -16   20    1     -0.39      0.00
  -15   20    1      1.82      0.00
  -14   20    1      0.27      0.00
  -13   20    1     -0.92      0.00
  -12   20    1     -0.06      0.00
  -11   20    1     -0.47      0.00
  -10   20    1     -1.23      0.00
   -9   20    1      0.91      0.00
   -8   20    1      1.95      0.00
   -7   20    1      1.09      0.00
   -6   20    1      1.27      0.00
   -5   20    1      1.57      0.00
   -4   20    1      3.33      0.00
   -3   20    1      0.03      0.00
   -2   20    1      5.35      0.00
   -1   20    1     -2.37      0.00
    0   20    1      1.15      0.00
    1   20    1      0.35      0.00
    2   20    1     -0.79      0.00
    3   20    1      4.11      0.00
    4   20    1     -3.52      0.00
    5   20    1     -1.27      0.00
    6   20    1     -1.56      0.00
    7   20    1      0.26      0.00
    8   20    1     -1.21      0.00
    9   20    1     -1.87      0.00
   10   20    1      0.22      0.00
   11   20    1      0.02      0.00
   12   20    1      0.28      0.00
   13   20    1      1.18      0.00
   14   20    1      0.18      0.00
   15   20    1     -0.88      0.00
   16   20    1     -1.29      0.00
   17   20    1     -0.40      0.00
  -17   21    1      0.27      0.00
  -16   21    1      0.90      0.00
  -15   21    1      0.90      0.00
  -14   21    1      0.01      0.00
  -13   21    1      0.30      0.00
  -12   21    1      1.54      0.00
  -11   21    1      0.01      0.00
  -10   21    1     -1.96      0.00
   -9   21    1      0.17      0.00
   -8   21    1     -5.21      0.00
   -7   21    1      1.17      0.00
   -6   21    1     -3.03      0.00
   -5   21    1      6.14      0.00
   -4   21    1     -1.72      0.00
   -3   21    1     -1.93      0.00
   -2   21    1      0.55      0.00
   -1   21    1     -8.03      0.00
    0   21    1      6.16      0.00
    1   21    1     -6.90      0.00
    2   21    1      1.08      0.00
    3   21    1     -4.12      0.00
    4   21    1      0.68      0.00
    5   21    1      4.86      0.00
    6   21    1     -2.27      0.00
    7   21    1      2.66      0.00
    8   21    1     -3.81      0.00
    9   21    1      0.53      0.00
   10   21    1     -2.88      0.00
   11   21    1      0.11      0.00
   12   21    1      0.93      0.00
   13   21    1      0.80      0.00
   14   21    1      0.51      0.00
   15   21    1     -0.16      0.00
   16   21    1      0.71      0.00
   17   21    1      1.13      0.00
  -17   22    1     -0.97      0.00
  -16   22    1     -0.59      0.00
  -15   22    1      1.34      0.00
  -14   22    1     -0.88      0.00
  -13   22    1      0.36      0.00
  -12   22    1      0.14      0.00
  -11   22    1     -1.13      0.00
  -10   22    1      0.62      0.00
   -9   22    1     -2.12      0.00
   -8   22    1      1.83      0.00
   -7   22    1     -0.78      0.00
   -6   22    1      0.42      0.00
   -5   22    1      0.92      0.00
   -4   22    1     -1.15      0.00
   -3   22    1      3.72      0.00
   -2   22    1      1.98      0.00
   -1   22    1      2.37      0.00
    0   22    1      0.99      0.00
    1   22    1     -1.32      0.00
    2   22    1     -0.06      0.00
    3   22    1     -0.47      0.00
    4   22    1      0.72      0.00
    5   22    1     -3.15      0.00
    6   22    1      0.56      0.00
    7   22    1      0.42      0.00
    8   22    1     -0.29      0.00
    9   22    1      0.87      0.00
   10   22    1     -0.94      0.00
   11   22    1      1.42      0.00
   12   22    1      0.11      0.00
   13   22    1      0.58      0.00
   14   22    1      0.67      0.00
   15   22    1     -1.25      0.00
   16   22    1     -1.07      0.00
   17   22    1     -0.39      0.00
  -16   23    1      0.83      0.00
  -15   23    1      1.32      0.00
  -14   23    1     -0.63      0.00
  -13   23    1      0.94      0.00
  -12   23    1      1.05      0.00
  -11   23    1      0.88      0.00
  -10   23    1      0.60      0.00
   -9   23    1     -0.45      0.00
   -8   23    1     -0.87      0.00
   -7   23    1     -3.02      0.00
   -6   23    1      1.10      0.00
   -5   23    1      0.58      0.00
   -4   23    1      2.79      0.00
   -3   23    1     -0.74      0.00
   -2   23    1     -1.36      0.00
   -1   23    1     -3.96      0.00
    0   23    1      1.87      0.00
    1   23    1     -3.21      0.00
    2   23    1     -2.77      0.00
    3   23    1     -1.14      0.00
    4   23    1      1.44      0.00
    5   23    1      1.99      0.00
    6   23    1      1.04      0.00
    7   23    1     -2.23      0.00
    8   23    1     -0.07      0.00
    9   23    1     -1.56      0.00
   10   23    1     -0.44      0.00
   11   23    1      0.99      0.00
   12   23    1      1.06      0.00
   13   23    1      1.66      0.00
   14   23    1      0.60      0.00
   15   23    1      0.99      0.00
   16   23    1      0.84      0.00
  -16   24    1      0.00      0.00
  -15   24    1      0.47      0.00
  -14   24    1     -0.91      0.00
  -13   24    1      1.46      0.00
  -12   24    1     -0.06      0.00
  -11   24    1      0.95      0.00
  -10   24    1     -0.28      0.00
   -9   24    1     -1.91      0.00
   -8   24    1     -0.58      0.00
   -7   24    1     -1.13      0.00
   -6   24    1      0.48      0.00
   -5   24    1     -1.43      0.00
   -4   24    1      0.89      0.00
   -3   24    1      1.10      0.00
   -2   24    1      2.04      0.00
   -1   24    1      2.87      0.00
    0   24    1      0.82      0.00
    1   24    1     -1.25      0.00
    2   24    1     -0.57      0.00
    3   24    1      0.90      0.00
    4   24    1     -0.39      0.00
    5   24    1     -0.55      0.00
    6   24    1     -0.41      0.00
    7   24    1      0.83      0.00
    8   24    1      1.04      0.00
    9   24    1      1.09      0.00
   10   24    1      0.65      0.00
   11   24    1     -0.11      0.00
   12   24    1      0.63      0.00
   13   24    1     -0.37      0.00
   14   24    1      0.27      0.00
   15   24    1     -0.38      0.00
   16   24    1     -0.93      0.00
  -16   25    1      0.71      0.00
  -15   25    1      0.31      0.00
  -14   25    1     -0.57      0.00
  -13   25    1      0.17      0.00
  -12   25    1      0.64      0.00
  -11   25    1      1.11      0.00
  -10   25    1      0.78      0.00
   -9   25    1     -0.05      0.00
   -8   25    1      1.15      0.00
   -7   25    1     -3.38      0.00
   -6   25    1      1.78      0.00
   -5   25    1     -1.73      0.00
   -4   25    1      5.04      0.00
   -3   25    1     -0.95      0.00
   -2   25    1      1.38      0.00
   -1   25    1     -0.04      0.00
    0   25    1      0.22      0.00
    1   25    1      1.42      0.00
    2   25    1     -1.84      0.00
    3   25    1      0.99      0.00
    4   25    1      2.31      0.00
    5   25    1      0.66      0.00
    6   25    1      1.67      0.00
    7   25    1     -2.78      0.00
    8   25    1      1.44      0.00
    9   25    1     -0.84      0.00
   10   25    1     -0.23      0.00
   11   25    1      2.00      0.00
   12   25    1      0.44      0.00
   13   25    1      1.14      0.00
   14   25    1      0.15      0.00
   15   25    1      0.80      0.00
   16   25    1      0.36      0.00
  -15   26    1     -0.15      0.00
  -14   26    1     -0.51      0.00
  -13   26    1      1.13      0.00
  -12   26    1      0.56      0.00
  -11   26    1      1.85      0.00
  -10   26    1     -1.05      0.00
   -9   26    1     -0.80      0.00
   -8   26    1     -2.01      0.00
   -7   26    1     -0.88      0.00
   -6   26    1      0.62      0.00
   -5   26    1     -1.42      0.00
   -4   26    1      2.85      0.00
   -3   26    1     -0.74      0.00
   -2   26    1      3.98      0.00
   -1   26    1      0.30      0.00
    0   26    1      1.29      0.00
    1   26    1     -0.04      0.00
    2   26    1     -1.86      0.00
    3   26    1      2.55      0.00
    4   26    1     -2.03      0.00
    5   26    1      0.90      0.00
    6   26    1     -1.83      0.00
    7   26    1      0.94      0.00
    8   26    1      1.36      0.00
    9   26    1     -0.11      0.00
   10   26    1      2.26      0.00
   11   26    1     -1.41      0.00
   12   26    1      0.49      0.00
   13   26    1     -0.37      0.00
   14   26    1     -0.39      0.00
   15   26    1      0.92      0.00
  -15   27    1     -0.16      0.00
  -14   27    1     -1.47      0.00
  -13   27    1     -0.17      0.00
  -12   27    1      0.72      0.00
  -11   27    1     -0.12      0.00
  -10   27    1      0.61      0.00
   -9   27    1      0.60      0.00
   -8   27    1      0.25      0.00
   -7   27    1     -0.47      0.00
   -6   27    1     -1.03      0.00
   -5   27    1      0.12      0.00
   -4   27    1      2.11      0.00
   -3   27    1     -0.10      0.00
   -2   27    1      2.93      0.00
   -1   27    1     -0.41      0.00
    0   27    1      2.55      0.00
    1   27    1      0.73      0.00
    2   27    1      0.77      0.00
    3   27    1      1.05      0.00
    4   27    1      0.71      0.00
    5   27    1      0.86      0.00
    6   27    1     -0.97      0.00
    7   27    1      0.15      0.00
    8   27    1     -0.84      0.00
    9   27    1      1.47      0.00
   10   27    1     -0.92      0.00
   11   27    1      1.43      0.00
   12   27    1      0.27      0.00
   13   27    1     -0.12      0.00
   14   27    1     -1.03      0.00
   15   27    1      0.42      0.00
  -14   28    1     -0.93      0.00
  -13   28    1      0.85      0.00
  -12   28    1      0.55      0.00
  -11   28    1      0.77      0.00
  -10   28    1      0.17      0.00
   -9   28    1     -1.40      0.00
   -8   28    1     -0.73      0.00
   -7   28    1     -1.04      0.00
   -6   28    1      0.44      0.00
   -5   28    1      0.80      0.00
   -4   28    1      1.05      0.00
   -3   28    1      1.80      0.00
   -2   28    1      2.32      0.00
   -1   28    1     -0.31      0.00
    0   28    1      0.98      0.00
    1   28    1     -0.09      0.00
    2   28    1     -0.71      0.00
    3   28    1      0.10      0.00
    4   28    1     -0.14      0.00
    5   28    1     -1.30      0.00
    6   28    1     -0.79      0.00
    7   28    1     -0.03      0.00
    8   28    1      1.00      0.00
    9   28    1     -0.36      0.00
   10   28    1      1.57      0.00
   11   28    1     -0.73      0.00
   12   28    1      0.35      0.00
   13   28    1     -0.64      0.00
   14   28    1      0.20      0.00
  -14   29    1     -2.18      0.00
  -13   29    1      0.86      0.00
  -12   29    1      0.84      0.00
  -11   29    1     -1.08      0.00
  -10   29    1      1.43      0.00
   -9   29    1     -0.09      0.00
   -8   29    1      0.43      0.00
   -7   29    1      0.66      0.00
   -6   29    1     -1.61      0.00
   -5   29    1      0.65      0.00
   -4   29    1     -1.56      0.00
   -3   29    1      1.06      0.00
   -2   29    1      0.10      0.00
   -1   29    1     -1.09      0.00
    0   29    1      2.54      0.00
    1   29    1     -0.88      0.00
    2   29    1      0.02      0.00
    3   29    1      0.44      0.00
    4   29    1     -1.77      0.00
    5   29    1     -0.06      0.00
    6   29    1     -2.16      0.00
    7   29    1      1.29      0.00
    8   29    1     -1.89      0.00
    9   29    1      1.45      0.00
   10   29    1      0.02      0.00
   11   29    1      0.22      0.00
   12   29    1      0.30      0.00
   13   29    1     -0.18      0.00
   14   29    1     -1.73      0.00
  -13   30    1      1.22      0.00
  -12   30    1     -0.48      0.00
  -11   30    1      0.51      0.00
  -10   30    1      1.29      0.00
   -9   30    1     -1.34      0.00
   -8   30    1      0.85      0.00
   -7   30    1     -0.71      0.00
   -6   30    1      0.37      0.00
   -5   30    1      1.11      0.00
   -4   30    1     -0.37      0.00
   -3   30    1      3.26      0.00
   -2   30    1     -0.71      0.00
   -1   30    1      0.65      0.00
    0   30    1     -0.03      0.00
    1   30    1     -0.66      0.00
    2   30    1      1.06      0.00
    3   30    1     -2.03      0.00
    4   30    1      1.36      0.00
    5   30    1     -2.63      0.00
    6   30    1      0.72      0.00
    7   30    1     -1.13      0.00
    8   30    1      0.68      0.00
    9   30    1     -0.23      0.00
   10   30    1      0.09      0.00
   11   30    1     -0.04      0.00
   12   30    1      0.77      0.00
   13   30    1     -1.27      0.00
  -13   31    1      1.37      0.00
  -12   31    1      1.11      0.00
  -11   31    1     -1.00      0.00
  -10   31    1      1.83      0.00
   -9   31    1     -1.16      0.00
   -8   31    1      1.58      0.00
   -7   31    1      0.07      0.00
   -6   31    1     -0.16      0.00
   -5   31    1     -0.76      0.00
   -4   31    1     -1.89      0.00
   -3   31    1      0.21      0.00
   -2   31    1     -2.59      0.00
   -1   31    1     -0.37      0.00
    0   31    1     -0.20      0.00
    1   31    1     -0.41      0.00
    2   31    1     -2.13      0.00
    3   31    1     -0.68      0.00
    4   31    1     -2.19      0.00
    5   31    1     -1.37      0.00
    6   31    1     -1.34      0.00
    7   31    1      0.55      0.00
    8   31    1     -0.58      0.00
    9   31    1     -0.60      0.00
   10   31    1      1.45      0.00
   11   31    1     -0.34      0.00
   12   31    1      0.15      0.00
   13   31    1      0.27      0.00
  -12   32    1     -0.71      0.00
  -11   32    1      0.99      0.00
  -10   32    1      1.09      0.00
   -9   32    1      0.65      0.00
   -8   32    1      0.97      0.00
   -7   32    1      0.39      0.00
   -6   32    1      0.35      0.00
   -5   32    1     -0.41      0.00
   -4   32    1      0.18      0.00
   -3   32    1      1.12      0.00
   -2   32    1     -1.13      0.00
   -1   32    1     -0.03      0.00
    0   32    1     -0.45      0.00
    1   32    1     -0.27      0.00
    2   32    1      0.66      0.00
    3   32    1     -0.96      0.00
    4   32    1      0.14      0.00
    5   32    1     -1.42      0.00
    6   32    1      0.42      0.00
    7   32    1     -1.12      0.00
    8   32    1      0.29      0.00
    9   32    1     -0.61      0.00
   10   32    1     -0.38      0.00
   11   32    1     -0.09      0.00
   12   32    1      0.70      0.00
  -12   33    1      1.28      0.00
  -11   33    1     -0.85      0.00
  -10   33    1      0.84      0.00
   -9   33    1     -1.41      0.00
   -8   33    1      1.45      0.00
   -7   33    1      0.08      0.00
   -6   33    1      0.21      0.00
   -5   33    1     -1.09      0.00
   -4   33    1      0.16      0.00
   -3   33    1     -1.22      0.00
   -2   33    1     -1.86      0.00
   -1   33    1      0.71      0.00
    0   33    1     -1.49      0.00
    1   33    1      0.79      0.00
    2   33    1     -2.31      0.00
    3   33    1     -1.74      0.00
    4   33    1     -0.57      0.00
    5   33    1     -1.31      0.00
    6   33    1     -0.71      0.00
    7   33    1      0.14      0.00
    8   33    1      0.43      0.00
    9   33    1     -2.03      0.00
   10   33    1      1.40      0.00
   11   33    1     -0.63      0.00
   12   33    1      0.08      0.00
  -11   34    1      0.62      0.00
  -10   34    1      0.37      0.00
   -9   34    1      2.28      0.00
   -8   34    1      0.41      0.00
   -7   34    1      0.73      0.00
   -6   34    1      0.31      0.00
   -5   34    1     -1.07      0.00
   -4   34    1      0.21      0.00
   -3   34    1     -1.23      0.00
   -2   34    1      0.33      0.00
   -1   34    1     -2.57      0.00
    0   34    1      0.10      0.00
    1   34    1      0.67      0.00
    2   34    1     -0.90      0.00
    3   34    1      0.65      0.00
    4   34    1     -0.95      0.00
    5   34    1     -0.35      0.00
    6   34    1     -0.87      0.00
    7   34    1     -0.16      0.00
    8   34    1     -0.19      0.00
    9   34    1     -1.06      0.00
   10   34    1     -0.11      0.00
   11   34    1     -0.09      0.00
  -10   35    1     -0.20      0.00
   -9   35    1     -0.97      0.00
   -8   35    1      0.64      0.00
   -7   35    1      0.27      0.00
   -6   35    1      0.13      0.00
   -5   35    1     -0.40      0.00
   -4   35    1      1.86      0.00
   -3   35    1     -0.74      0.00
   -2   35    1     -0.47      0.00
   -1   35    1      1.23      0.00
    0   35    1     -0.29      0.00
    1   35    1      0.83      0.00
    2   35    1     -1.49      0.00
    3   35    1     -1.59      0.00
    4   35    1      0.97      0.00
    5   35    1     -0.72      0.00
    6   35    1     -0.17      0.00
    7   35    1     -0.04      0.00
    8   35    1      0.51      0.00
    9   35    1     -1.71      0.00
   10   35    1      0.36      0.00
  -10   36    1     -0.27      0.00
   -9   36    1      2.24      0.00
   -8   36    1     -0.06      0.00
   -7   36    1     -0.04      0.00
   -6   36    1      0.62      0.00
   -5   36    1     -0.69      0.00
   -4   36    1     -0.41      0.00
   -3   36    1     -1.70      0.00
   -2   36    1      1.00      0.00
   -1   36    1     -4.19      0.00
    0   36    1      0.69      0.00
    1   36    1      0.90      0.00
    2   36    1     -1.38      0.00
    3   36    1      0.78      0.00
    4   36    1     -0.53      0.00
    5   36    1     -0.28      0.00
    6   36    1     -1.76      0.00
    7   36    1      0.55      0.00
    8   36    1     -0.19      0.00
    9   36    1     -1.23      0.00
   -9   37    1     -0.35      0.00
   -8   37    1      0.55      0.00
   -7   37    1      0.01      0.00
   -6   37    1      0.94      0.00
   -5   37    1     -0.22      0.00
   -4   37    1      2.20      0.00
   -3   37    1      0.86      0.00
   -2   37    1     -0.82      0.00
   -1   37    1      0.93      0.00
    0   37    1      1.41      0.00
    1   37    1     -0.22      0.00
    2   37    1     -1.32      0.00
    3   37    1     -0.42      0.00
    4   37    1      1.49      0.00
    5   37    1     -0.69      0.00
    6   37    1      0.69      0.00
    7   37    1     -0.41      0.00
    8   37    1      0.46      0.00
    9   37    1     -0.58      0.00
   -8   38    1     -0.40      0.00
   -7   38    1     -0.47      0.00
   -6   38    1      0.93      0.00
   -5   38    1     -0.46      0.00
   -4   38    1     -0.16      0.00
   -3   38    1     -1.37      0.00
   -2   38    1      0.33      0.00
   -1   38    1     -3.00      0.00
    0   38    1      0.66      0.00
    1   38    1      0.16      0.00
    2   38    1     -0.46      0.00
    3   38    1      0.41      0.00
    4   38    1      0.07      0.00
    5   38    1      0.07      0.00
    6   38    1     -1.78      0.00
    7   38    1      0.48      0.00
    8   38    1      0.36      0.00
   -6   39    1      1.31      0.00
   -5   39    1     -0.05      0.00
   -4   39    1      1.49      0.00
   -3   39    1      1.37      0.00
   -2   39    1     -1.43      0.00
   -1   39    1      0.33      0.00
    0   39    1      2.03      0.00
    1   39    1     -0.85      0.00
    2   39    1     -1.07      0.00
    3   39    1      0.42      0.00
    4   39    1      1.47      0.00
    5   39    1     -0.66      0.00
    6   39    1      0.66      0.00
   -5   40    1     -0.31      0.00
   -4   40    1      0.26      0.00
   -3   40    1     -0.98      0.00
   -2   40    1     -0.51      0.00
   -1   40    1     -0.26      0.00
    0   40    1      0.43      0.00
    1   40    1     -0.75      0.00
    2   40    1      0.65      0.00
    3   40    1      0.46      0.00
    4   40    1      0.43      0.00
    5   40    1      0.56      0.00
   -3   41    1      0.44      0.00
   -2   41    1     -0.83      0.00
   -1   41    1      0.10      0.00
    0   41    1      1.24      0.00
    1   41    1     -0.43      0.00
    2   41    1     -0.17      0.00
    3   41    1      0.32      0.00
  -20    0    2     -1.71      0.00
  -19    0    2     -1.28      0.00
  -18    0    2     -0.47      0.00
  -17    0    2      2.11      0.00
  -16    0    2     -0.51      0.00
  -15    0    2     -3.46      0.00
  -14    0    2      0.52      0.00
  -13    0    2     -3.65      0.00
  -12    0    2      0.16      0.00
  -11    0    2     -2.08      0.00
  -10    0    2      1.42      0.00
   -9    0    2      1.27      0.00
   -8    0    2     -7.04      0.00
   -7    0    2     12.34      0.00
   -6    0    2    -12.47      0.00
   -5    0    2     18.68      0.00
   -4    0    2     -2.14      0.00
   -3    0    2     -3.58      0.00
   -2    0    2    -40.54      0.00
   -1    0    2    -29.24      0.00
    0    0    2    171.15      0.00
    1    0    2    -21.75      0.00
    2    0    2     92.56      0.00
    3    0    2    -12.24      0.00
    4    0    2     20.74      0.00
    5    0    2      4.98      0.00
    6    0    2     -5.87      0.00
    7    0    2     14.94      0.00
    8    0    2     -9.79      0.00
    9    0    2      8.46      0.00
   10    0    2     -4.82      0.00
   11    0    2      1.75      0.00
   12    0    2      2.19      0.00
   13    0    2     -0.14      0.00
   14    0    2      2.63      0.00
   15    0    2     -1.74      0.00
   16    0    2      0.94      0.00
   17    0    2     -0.70      0.00
   18    0    2     -1.15      0.00
   19    0    2     -1.82      0.00
  -20    1    2     -0.85      0.00
  -19    1    2     -0.29      0.00
  -18    1    2     -0.34      0.00
  -17    1    2      0.02      0.00
  -16    1    2     -0.40      0.00
  -15    1    2     -0.39      0.00
  -14    1    2     -0.08      0.00
  -13    1    2      0.47      0.00
  -12    1    2     -0.40      0.00
  -11    1    2      0.50      0.00
  -10    1    2      1.17      0.00
   -9    1    2     -2.48      0.00
   -8    1    2      5.25      0.00
   -7    1    2      2.59      0.00
   -6    1    2      6.57      0.00
   -4    1    2     -4.19      0.00
   -3    1    2      1.41      0.00
   -2    1    2    -14.31      0.00
   -1    1    2     30.53      0.00
    0    1    2     -6.11      0.00
    2    1    2      4.57      0.00
    3    1    2     -5.53      0.00
    4    1    2     11.02      0.00
    5    1    2      2.21      0.00
    6    1    2      2.68      0.00
    7    1    2     -0.88      0.00
    8    1    2     -4.09      0.00
    9    1    2      0.59      0.00
   10    1    2     -3.38      0.00
   11    1    2      0.84      0.00
   12    1    2     -0.65      0.00
   13    1    2     -0.36      0.00
   14    1    2     -0.33      0.00
   15    1    2     -0.56      0.00
   16    1    2      0.90      0.00
   17    1    2     -0.30      0.00
   18    1    2     -0.02      0.00
   19    1    2      0.48      0.00
  -20    2    2     -1.29      0.00
  -19    2    2     -1.14      0.00
  -18    2    2     -0.07      0.00
  -17    2    2      2.07      0.00
  -16    2    2     -1.01      0.00
  -15    2    2     -1.91      0.00
  -14    2    2     -0.33      0.00
  -13    2    2     -1.48      0.00
  -12    2    2     -1.42      0.00
  -11    2    2      0.17      0.00
  -10    2    2      0.21      0.00
   -9    2    2      0.62      0.00
   -8    2    2     -0.97      0.00
   -7    2    2      3.56      0.00
   -6    2    2     -2.67      0.00
   -5    2    2      1.89      0.00
   -4    2    2      4.35      0.00
   -3    2    2    -10.14      0.00
   -2    2    2    -42.48      0.00
   -1    2    2    -12.23      0.00
    0    2    2    108.53      0.00
    1    2    2      0.50      0.00
    2    2    2     44.53      0.00
    3    2    2      0.49      0.00
    4    2    2     12.65      0.00
    5    2    2     -0.29      0.00
    6    2    2     -1.01      0.00
    7    2    2      4.36      0.00
    8    2    2     -2.07      0.00
    9    2    2      3.10      0.00
   10    2    2     -1.01      0.00
   11    2    2      1.30      0.00
   12    2    2      1.66      0.00
   13    2    2      0.56      0.00
   14    2    2      0.89      0.00
   15    2    2     -0.15      0.00
   16    2    2     -0.11      0.00
   17    2    2     -0.44      0.00
   18    2    2     -1.33      0.00
   19    2    2     -1.68      0.00
  -20    3    2     -1.86      0.00
  -19    3    2     -0.55      0.00
  -18    3    2     -0.35      0.00
  -17    3    2     -0.44      0.00
  -16    3    2     -0.29      0.00
  -15    3    2     -1.22      0.00
  -14    3    2     -0.34      0.00
  -13    3    2      0.87      0.00
  -12    3    2     -1.96      0.00
  -11    3    2      2.73      0.00
  -10    3    2     -1.04      0.00
   -9    3    2     -1.92      0.00
   -8    3    2      7.02      0.00
   -7    3    2      8.03      0.00
   -6    3    2     14.03      0.00
   -5    3    2     17.28      0.00
   -4    3    2     -0.90      0.00
   -3    3    2    -14.50      0.00
   -2    3    2    -15.48      0.00
   -1    3    2     48.92      0.00
    0    3    2     -5.53      0.00
    1    3    2     29.98      0.00
    2    3    2      3.49      0.00
    3    3    2      2.21      0.00
    4    3    2     13.09      0.00
    5    3    2     15.39      0.00
    6    3    2      0.18      0.00
    7    3    2     -0.79      0.00
    8    3    2     -7.68      0.00
    9    3    2     -0.90      0.00
   10    3    2     -4.34      0.00
   11    3    2      0.21      0.00
   12    3    2      0.45      0.00
   13    3    2     -1.49      0.00
   14    3    2      0.18      0.00
   15    3    2     -0.95      0.00
   16    3    2      1.70      0.00
   17    3    2     -0.48      0.00
   18    3    2     -0.25      0.00
   19    3    2      0.48      0.00
  -20    4    2     -0.53      0.00
  -19    4    2     -0.40      0.00
  -18    4    2      0.55      0.00
  -17    4    2      1.95      0.00
  -16    4    2     -1.44      0.00
  -15    4    2      0.46      0.00
  -14    4    2     -1.26      0.00
  -13    4    2      1.30      0.00
  -12    4    2     -3.15      0.00
  -11    4    2      1.94      0.00
  -10    4    2     -2.13      0.00
   -9    4    2     -0.68      0.00
   -8    4    2      7.05      0.00
   -7    4    2     -7.69      0.00
   -6    4    2     10.03      0.00
   -5    4    2    -20.86      0.00
   -4    4    2     10.38      0.00
   -3    4    2    -15.94      0.00
   -2    4    2    -34.53      0.00
   -1    4    2     10.49      0.00
    0    4    2      3.63      0.00
    1    4    2     23.31      0.00
    2    4    2    -33.16      0.00
    3    4    2     17.32      0.00
    4    4    2     -0.77      0.00
    5    4    2     -6.44      0.00
    6    4    2      1.23      0.00
    7    4    2     -9.33      0.00
    8    4    2      6.34      0.00
    9    4    2     -4.23      0.00
   10    4    2      3.89      0.00
   11    4    2      0.35      0.00
   12    4    2      0.40      0.00
   13    4    2      1.14      0.00
   14    4    2     -1.46      0.00
   15    4    2      1.94      0.00
   16    4    2     -1.04      0.00
   17    4    2     -0.09      0.00
   18    4    2     -1.19      0.00
   19    4    2     -1.21      0.00
  -19    5    2     -0.01      0.00
  -18    5    2      0.28      0.00
  -17    5    2     -1.00      0.00
  -16    5    2      1.21      0.00
  -15    5    2     -1.47      0.00
  -14    5    2      0.02      0.00
  -13    5    2      0.15      0.00
  -12    5    2     -2.66      0.00
  -11    5    2      4.28      0.00
  -10    5    2     -6.35      0.00
   -9    5    2      3.01      0.00
   -8    5    2     -2.26      0.00
   -7    5    2      9.69      0.00
   -6    5    2      8.98      0.00
   -5    5    2     13.51      0.00
   -4    5    2     10.16      0.00
   -3    5    2    -41.02      0.00
   -2    5    2      9.93      0.00
   -1    5    2      9.64      0.00
    0    5    2      6.66      0.00
    1    5    2     36.67      0.00
    2    5    2     -3.47      0.00
    3    5    2     27.40      0.00
    4    5    2     -3.89      0.00
    5    5    2     30.12      0.00
    6    5    2     -7.77      0.00
    7    5    2     -0.01      0.00
    8    5    2     -3.79      0.00
    9    5    2     -4.28      0.00
   10    5    2      1.02      0.00
   11    5    2     -2.31      0.00
   12    5    2      2.66      0.00
   13    5    2     -2.24      0.00
   14    5    2      0.96      0.00
   15    5    2     -0.02      0.00
   16    5    2      0.62      0.00
   17    5    2     -0.32      0.00
   18    5    2     -0.41      0.00
   19    5    2     -1.18      0.00
  -19    6    2      0.40      0.00
  -18    6    2      0.08      0.00
  -17    6    2      1.66      0.00
  -16    6    2     -1.00      0.00
  -15    6    2      0.72      0.00
  -14    6    2     -0.57      0.00
  -13    6    2      0.91      0.00
  -12    6    2     -1.26      0.00
  -11    6    2     -1.21      0.00
  -10    6    2     -2.76      0.00
   -9    6    2     -1.51      0.00
   -8    6    2      5.58      0.00
   -7    6    2     -3.68      0.00
   -6    6    2      7.78      0.00
   -4    6    2      2.81      0.00
   -3    6    2     -5.63      0.00
   -2    6    2     -7.08      0.00
   -1    6    2      6.35      0.00
    0    6    2    -29.43      0.00
    1    6    2      1.63      0.00
    2    6    2    -50.45      0.00
    3    6    2     13.90      0.00
    4    6    2     -3.16      0.00
    5    6    2     -1.87      0.00
    6    6    2     -7.60      0.00
    7    6    2     -4.28      0.00
    8    6    2      1.66      0.00
    9    6    2     -2.67      0.00
   10    6    2      3.14      0.00
   11    6    2     -0.49      0.00
   12    6    2     -0.47      0.00
   13    6    2     -0.28      0.00
   14    6    2     -1.09      0.00
   15    6    2      1.03      0.00
   16    6    2     -0.22      0.00
   17    6    2     -0.28      0.00
   18    6    2     -0.51      0.00
   19    6    2     -0.64      0.00
  -19    7    2      0.81      0.00
  -18    7    2      0.44      0.00
  -17    7    2     -0.52      0.00
  -16    7    2      2.05      0.00
  -15    7    2     -0.63      0.00
  -14    7    2      1.08      0.00
  -13    7    2     -1.32      0.00
  -12    7    2     -0.19      0.00
  -11    7    2      0.93      0.00
  -10    7    2     -4.05      0.00
   -9    7    2      0.57      0.00
   -8    7    2     -6.14      0.00
   -7    7    2      3.39      0.00
   -6    7    2     -2.66      0.00
   -5    7    2      9.81      0.00
   -4    7    2      4.83      0.00
   -3    7    2    -29.14      0.00
   -2    7    2      9.13      0.00
   -1    7    2    -17.90      0.00
    0    7    2      3.81      0.00
    1    7    2     35.15      0.00
    2    7    2      6.71      0.00
    3    7    2     28.40      0.00
    4    7    2     -2.49      0.00
    5    7    2     19.47      0.00
    6    7    2     -4.27      0.00
    7    7    2     -3.60      0.00
    8    7    2      1.75      0.00
    9    7    2     -2.95      0.00
   10    7    2      2.36      0.00
   11    7    2     -0.87      0.00
   12    7    2      0.81      0.00
   13    7    2     -0.56      0.00
   14    7    2     -0.12      0.00
   15    7    2      1.33      0.00
   16    7    2     -0.74      0.00
   17    7    2     -0.60      0.00
   18    7    2      0.06      0.00
   19    7    2     -3.18      0.00
  -19    8    2      0.12      0.00
  -18    8    2     -1.30      0.00
  -17    8    2      1.05      0.00
  -16    8    2     -0.40      0.00
  -15    8    2     -0.19      0.00
  -14    8    2      0.42      0.00
  -13    8    2     -0.03      0.00
  -12    8    2      1.85      0.00
  -11    8    2     -3.99      0.00
  -10    8    2     -2.02      0.00
   -9    8    2     -2.49      0.00
   -8    8    2      0.19      0.00
   -7    8    2      4.84      0.00
   -6    8    2      2.44      0.00
   -5    8    2      3.39      0.00
   -4    8    2     -4.35      0.00
   -3    8    2      9.73      0.00
   -2    8    2     18.27      0.00
   -1    8    2     -6.04      0.00
    0    8    2     -4.75      0.00
    1    8    2    -23.78      0.00
    2    8    2    -22.45      0.00
    3    8    2      3.29      0.00
    4    8    2      5.21      0.00
    5    8    2      6.54      0.00
    6    8    2    -10.84      0.00
    7    8    2      8.12      0.00
    8    8    2     -2.77      0.00
    9    8    2      1.94      0.00
   10    8    2      1.06      0.00
   11    8    2     -1.28      0.00
   12    8    2     -0.40      0.00
   13    8    2     -2.04      0.00
   14    8    2      0.43      0.00
   15    8    2     -1.12      0.00
   16    8    2      0.22      0.00
   17    8    2     -0.59      0.00
   18    8    2     -0.01      0.00
   19    8    2     -0.55      0.00
  -19    9    2      0.78      0.00
  -18    9    2      0.05      0.00
  -17    9    2      0.29      0.00
  -16    9    2      0.83      0.00
  -15    9    2      0.60      0.00
  -14    9    2      1.15      0.00
  -13    9    2     -1.76      0.00
  -12    9    2      2.33      0.00
  -11    9    2     -3.61      0.00
  -10    9    2      3.85      0.00
   -9    9    2     -6.79      0.00
   -8    9    2      1.05      0.00
   -7    9    2     -4.68      0.00
   -6    9    2     -7.63      0.00
   -5    9    2      8.55      0.00
   -4    9    2     -8.46      0.00
   -3    9    2     15.30      0.00
   -2    9    2    -15.27      0.00
   -1    9    2     -4.50      0.00
    0    9    2    -11.91      0.00
    1    9    2     30.65      0.00
    2    9    2     25.21      0.00
    4    9    2     13.79      0.00
    5    9    2     -8.19      0.00
    6    9    2      6.15      0.00
    7    9    2     -8.55      0.00
    8    9    2      3.20      0.00
    9    9    2      2.33      0.00
   10    9    2     -1.38      0.00
   11    9    2      3.49      0.00
   12    9    2     -2.59      0.00
   13    9    2      2.07      0.00
   14    9    2     -1.28      0.00
   15    9    2      1.49      0.00
   16    9    2     -0.58      0.00
   17    9    2     -0.86      0.00
   18    9    2      0.51      0.00
   19    9    2     -3.47      0.00
  -19   10    2     -0.93      0.00
  -18   10    2     -1.66      0.00
  -17   10    2      0.08      0.00
  -16   10    2      0.41      0.00
  -15   10    2     -0.45      0.00
  -14   10    2      0.35      0.00
  -13   10    2      0.93      0.00
  -12   10    2      1.76      0.00
  -11   10    2     -1.52      0.00
  -10   10    2     -3.48      0.00
   -9   10    2     -4.19      0.00
   -8   10    2     -1.92      0.00
   -7   10    2      1.69      0.00
   -6   10    2      5.62      0.00
   -5   10    2      8.63      0.00
   -4   10    2      2.88      0.00
   -3   10    2     12.35      0.00
   -2   10    2     21.54      0.00
   -1   10    2     -1.39      0.00
    0   10    2      7.17      0.00
    1   10    2     -8.49      0.00
    2   10    2     -8.36      0.00
    3   10    2      2.71      0.00
    4   10    2     12.05      0.00
    5   10    2      6.65      0.00
    6   10    2     -0.12      0.00
    7   10    2      7.63      0.00
    8   10    2      3.07      0.00
    9   10    2      0.06      0.00
   10   10    2      1.27      0.00
   11   10    2     -1.82      0.00
   12   10    2     -0.67      0.00
   13   10    2     -1.40      0.00
   14   10    2      0.33      0.00
   15   10    2     -0.73      0.00
   16   10    2     -0.55      0.00
   17   10    2     -0.45      0.00
   18   10    2      0.62      0.00
   19   10    2     -0.95      0.00
  -19   11    2     -0.05      0.00
  -18   11    2     -0.18      0.00
  -17   11    2      0.31      0.00
  -16   11    2     -0.70      0.00
  -15   11    2      1.25      0.00
  -14   11    2      0.29      0.00
  -13   11    2      0.08      0.00
  -12   11    2      1.62      0.00
  -11   11    2     -2.19      0.00
  -10   11    2      4.76      0.00
   -9   11    2     -5.94      0.00
   -8   11    2      5.84      0.00
   -7   11    2     -6.38      0.00
   -6   11    2     -3.24      0.00
   -5   11    2      0.34      0.00
   -4   11    2     -5.62      0.00
   -3   11    2     35.90      0.00
   -2   11    2    -13.78      0.00
   -1   11    2      8.95      0.00
    0   11    2    -11.70      0.00
    1   11    2     26.28      0.00
    2   11    2     23.60      0.00
    4   11    2     11.10      0.00
    5   11    2    -16.96      0.00
    6   11    2      5.52      0.00
    7   11    2     -6.30      0.00
    8   11    2      0.71      0.00
    9   11    2      3.98      0.00
   10   11    2     -2.29      0.00
   11   11    2      3.08      0.00
   12   11    2     -1.99      0.00
   13   11    2      1.76      0.00
   14   11    2     -0.59      0.00
   15   11    2      0.26      0.00
   16   11    2     -0.02      0.00
   17   11    2      0.18      0.00
   18   11    2      0.27      0.00
   19   11    2     -1.78      0.00
  -19   12    2     -1.45      0.00
  -18   12    2     -0.83      0.00
  -17   12    2     -1.05      0.00
  -16   12    2      1.48      0.00
  -15   12    2     -0.45      0.00
  -14   12    2      0.10      0.00
  -13   12    2      1.41      0.00
  -12   12    2      0.43      0.00
  -11   12    2      2.44      0.00
  -10   12    2     -5.83      0.00
   -9   12    2     -3.47      0.00
   -8   12    2     -3.73      0.00
   -7   12    2     -5.12      0.00
   -6   12    2      5.58      0.00
   -5   12    2      4.20      0.00
   -4   12    2     11.97      0.00
   -3   12    2      4.33      0.00
   -2   12    2     10.43      0.00
   -1   12    2      4.48      0.00
    0   12    2      0.42      0.00
    1   12    2     14.16      0.00
    2   12    2    -11.51      0.00
    4   12    2     11.21      0.00
    5   12    2      1.16      0.00
    6   12    2      7.68      0.00
    7   12    2      0.14      0.00
    8   12    2      6.26      0.00
    9   12    2     -3.15      0.00
   10   12    2      0.02      0.00
   11   12    2     -1.06      0.00
   12   12    2     -1.70      0.00
   13   12    2      0.39      0.00
   14   12    2     -0.66      0.00
   15   12    2      1.11      0.00
   16   12    2     -0.69      0.00
   17   12    2     -0.37      0.00
   18   12    2      1.43      0.00
   19   12    2     -1.16      0.00
  -19   13    2     -0.50      0.00
  -18   13    2     -0.41      0.00
  -17   13    2     -0.09      0.00
  -16   13    2     -1.03      0.00
  -15   13    2      0.69      0.00
  -14   13    2     -0.36      0.00
  -13   13    2      1.88      0.00
  -12   13    2      0.02      0.00
  -11   13    2      2.25      0.00
  -10   13    2     -1.45      0.00
   -9   13    2      2.01      0.00
   -8   13    2      1.47      0.00
   -7   13    2     -3.29      0.00
   -6   13    2      1.60      0.00
   -5   13    2    -11.02      0.00
   -4   13    2      5.65      0.00
   -3   13    2     19.95      0.00
   -2   13    2     13.19      0.00
   -1   13    2      0.80      0.00
    0   13    2      6.49      0.00
    1   13    2     21.13      0.00
    2   13    2      3.27      0.00
    4   13    2     -7.64      0.00
    5   13    2     -3.73      0.00
    6   13    2     -3.94      0.00
    7   13    2      1.63      0.00
    8   13    2     -1.86      0.00
    9   13    2      1.26      0.00
   10   13    2      0.72      0.00
   11   13    2     -1.46      0.00
   12   13    2      1.05      0.00
   13   13    2     -0.51      0.00
   14   13    2      0.36      0.00
   15   13    2     -0.62      0.00
   16   13    2     -0.65      0.00
   17   13    2      1.73      0.00
   18   13    2     -0.11      0.00
  -18   14    2     -0.26      0.00
  -17   14    2     -1.37      0.00
  -16   14    2      1.53      0.00
  -15   14    2     -0.33      0.00
  -14   14    2     -0.04      0.00
  -13   14    2      0.19      0.00
  -12   14    2      1.39      0.00
  -11   14    2      2.56      0.00
  -10   14    2     -3.78      0.00
   -9   14    2      0.70      0.00
   -8   14    2     -6.52      0.00
   -7   14    2     -2.97      0.00
   -6   14    2     -4.43      0.00
   -5   14    2      4.11      0.00
   -4   14    2      8.85      0.00
   -3   14    2     -0.40      0.00
   -2   14    2      0.45      0.00
   -1   14    2     -4.86      0.00
    0   14    2      2.63      0.00
    1   14    2      4.84      0.00
    2   14    2     -7.18      0.00
    3   14    2     -7.27      0.00
    4   14    2      5.74      0.00
    5   14    2     -1.38      0.00
    6   14    2      2.15      0.00
    7   14    2     -0.99      0.00
    8   14    2     -1.42      0.00
    9   14    2     -0.60      0.00
   10   14    2     -3.25      0.00
   11   14    2      0.35      0.00
   12   14    2     -1.57      0.00
   13   14    2      0.41      0.00
   14   14    2     -0.19      0.00
   15   14    2      1.62      0.00
   16   14    2      0.47      0.00
   17   14    2     -0.01      0.00
   18   14    2      1.30      0.00
  -18   15    2     -0.79      0.00
  -17   15    2     -0.04      0.00
  -16   15    2     -0.93      0.00
  -15   15    2     -0.76      0.00
  -14   15    2     -1.13      0.00
  -13   15    2      1.53      0.00
  -12   15    2      0.35      0.00
  -11   15    2      2.21      0.00
  -10   15    2     -3.27      0.00
   -9   15    2      4.37      0.00
   -8   15    2     -2.80      0.00
   -7   15    2     -1.67      0.00
   -6   15    2      1.67      0.00
   -5   15    2    -12.45      0.00
   -4   15    2      4.30      0.00
   -3   15    2      4.12      0.00
   -2   15    2     21.96      0.00
   -1   15    2     -5.52      0.00
    0   15    2     16.38      0.00
    1   15    2     13.16      0.00
    2   15    2    -10.10      0.00
    3   15    2      2.75      0.00
    4   15    2    -12.79      0.00
    5   15    2      4.06      0.00
    6   15    2     -6.17      0.00
    7   15    2      4.99      0.00
    8   15    2     -1.69      0.00
    9   15    2      0.32      0.00
   10   15    2      1.79      0.00
   11   15    2     -2.25      0.00
   12   15    2      1.63      0.00
   13   15    2     -0.96      0.00
   14   15    2      0.15      0.00
   15   15    2     -0.46      0.00
   16   15    2     -1.18      0.00
   17   15    2      1.63      0.00
   18   15    2      0.01      0.00
  -18   16    2     -0.12      0.00
  -17   16    2     -0.57      0.00
  -16   16    2      0.20      0.00
  -15   16    2      0.47      0.00
  -14   16    2     -0.95      0.00
  -13   16    2     -0.19      0.00
  -12   16    2      2.21      0.00
  -11   16    2      0.11      0.00
  -10   16    2      1.87      0.00
   -9   16    2      3.28      0.00
   -8   16    2     -4.46      0.00
   -7   16    2      1.67      0.00
   -6   16    2    -10.03      0.00
   -5   16    2      3.62      0.00
   -4   16    2      2.03      0.00
   -3   16    2      2.01      0.00
   -2   16    2     -3.78      0.00
   -1   16    2    -11.65      0.00
    0   16    2      8.83      0.00
    1   16    2    -13.05      0.00
    2   16    2      1.23      0.00
    3   16    2    -11.88      0.00
    4   16    2      0.28      0.00
    5   16    2     -1.61      0.00
    6   16    2     -4.82      0.00
    7   16    2     -0.16      0.00
    8   16    2     -7.63      0.00
    9   16    2      2.03      0.00
   10   16    2     -3.12      0.00
   11   16    2      0.49      0.00
   12   16    2      0.27      0.00
   13   16    2     -0.54      0.00
   14   16    2      1.28      0.00
   15   16    2      1.67      0.00
   16   16    2      1.45      0.00
   17   16    2      1.18      0.00
   18   16    2      0.39      0.00
  -18   17    2     -0.56      0.00
  -17   17    2      0.47      0.00
  -16   17    2     -0.61      0.00
  -15   17    2     -1.76      0.00
  -14   17    2     -1.86      0.00
  -13   17    2      0.81      0.00
  -12   17    2      1.18      0.00
  -11   17    2     -0.30      0.00
  -10   17    2      1.12      0.00
   -9   17    2      0.00      0.00
   -8   17    2     -1.82      0.00
   -7   17    2     -2.52      0.00
   -6   17    2     -0.35      0.00
   -5   17    2     -5.90      0.00
   -4   17    2     -4.62      0.00
   -3   17    2      2.91      0.00
   -2   17    2      5.37      0.00
   -1   17    2      1.01      0.00
    0   17    2      8.84      0.00
    1   17    2      4.98      0.00
    2   17    2     -7.59      0.00
    3   17    2     -4.82      0.00
    4   17    2     -2.03      0.00
    5   17    2     -0.10      0.00
    6   17    2     -0.11      0.00
    7   17    2      1.62      0.00
    8   17    2      0.30      0.00
    9   17    2      2.08      0.00
   10   17    2     -0.28      0.00
   11   17    2      0.52      0.00
   12   17    2     -0.11      0.00
   13   17    2     -0.44      0.00
   14   17    2     -0.43      0.00
   15   17    2     -0.38      0.00
   16   17    2     -0.04      0.00
   17   17    2      0.20      0.00
   18   17    2      0.29      0.00
  -18   18    2      0.15      0.00
  -17   18    2     -0.09      0.00
  -16   18    2     -0.97      0.00
  -15   18    2      0.68      0.00
  -14   18    2     -1.62      0.00
  -13   18    2      0.85      0.00
  -12   18    2      0.32      0.00
  -11   18    2     -0.53      0.00
  -10   18    2      4.84      0.00
   -9   18    2      1.88      0.00
   -8   18    2      3.01      0.00
   -7   18    2      0.33      0.00
   -6   18    2     -3.33      0.00
   -5   18    2     -3.02      0.00
   -4   18    2      2.35      0.00
   -3   18    2      3.93      0.00
   -2   18    2     -3.22      0.00
   -1   18    2     -2.56      0.00
    0   18    2      4.00      0.00
    1   18    2     -8.79      0.00
    2   18    2      1.52      0.00
    3   18    2     -4.05      0.00
    4   18    2     -2.24      0.00
    5   18    2     -2.77      0.00
    6   18    2     -3.14      0.00
    7   18    2     -3.39      0.00
    8   18    2     -3.04      0.00
    9   18    2     -0.16      0.00
   10   18    2      1.16      0.00
   11   18    2     -0.06      0.00
   12   18    2      1.19      0.00
   13   18    2     -0.44      0.00
   14   18    2      1.36      0.00
   15   18    2      2.23      0.00
   16   18    2      1.16      0.00
   17   18    2      1.47      0.00
  -17   19    2      1.03      0.00
  -16   19    2      0.26      0.00
  -15   19    2     -1.79      0.00
  -14   19    2     -1.37      0.00
  -13   19    2      0.72      0.00
  -12   19    2      0.62      0.00
  -11   19    2      0.18      0.00
  -10   19    2      3.07      0.00
   -9   19    2     -1.41      0.00
   -8   19    2     -0.86      0.00
   -7   19    2     -2.15      0.00
   -6   19    2     -1.33      0.00
   -5   19    2     -1.94      0.00
   -4   19    2     -4.92      0.00
   -3   19    2      1.33      0.00
   -2   19    2     -6.82      0.00
   -1   19    2      4.80      0.00
    0   19    2     -0.78      0.00
    1   19    2      1.06      0.00
    2   19    2     -1.80      0.00
    3   19    2     -7.70      0.00
    4   19    2      4.09      0.00
    5   19    2     -1.17      0.00
    6   19    2      2.67      0.00
    7   19    2     -1.20      0.00
    8   19    2      1.26      0.00
    9   19    2      2.28      0.00
   10   19    2     -1.12      0.00
   11   19    2      0.80      0.00
   12   19    2     -0.78      0.00
   13   19    2     -1.01      0.00
   14   19    2     -0.78      0.00
   15   19    2     -0.24      0.00
   16   19    2      1.39      0.00
   17   19    2     -0.36      0.00
  -17   20    2     -0.41      0.00
  -16   20    2     -1.00      0.00
  -15   20    2     -0.53      0.00
  -14   20    2     -0.45      0.00
  -13   20    2      0.75      0.00
  -12   20    2     -1.43      0.00
  -11   20    2      0.43      0.00
  -10   20    2      2.69      0.00
   -9   20    2      0.19      0.00
   -8   20    2      7.03      0.00
   -7   20    2     -1.53      0.00
   -6   20    2      3.35      0.00
   -5   20    2     -6.94      0.00
   -4   20    2      4.13      0.00
   -3   20    2      1.72      0.00
   -2   20    2      0.58      0.00
   -1   20    2      7.39      0.00
    0   20    2     -3.31      0.00
    1   20    2      4.40      0.00
    2   20    2     -0.17      0.00
    3   20    2      4.19      0.00
    4   20    2     -1.54      0.00
    5   20    2     -3.27      0.00
    6   20    2      0.86      0.00
    7   20    2     -4.64      0.00
    8   20    2      3.30      0.00
    9   20    2     -1.65      0.00
   10   20    2      3.39      0.00
   11   20    2      0.31      0.00
   12   20    2      0.10      0.00
   13   20    2     -0.29      0.00
   14   20    2      0.13      0.00
   15   20    2      1.93      0.00
   16   20    2      0.22      0.00
   17   20    2     -0.20      0.00
  -17   21    2      1.42      0.00
  -16   21    2      0.80      0.00
  -15   21    2     -1.23      0.00
  -14   21    2     -0.02      0.00
  -13   21    2     -0.24      0.00
  -12   21    2     -0.07      0.00
  -11   21    2      1.27      0.00
  -10   21    2      0.80      0.00
   -9   21    2      1.61      0.00
   -8   21    2     -1.80      0.00
   -7   21    2      0.24      0.00
   -6   21    2     -1.26      0.00
   -5   21    2     -0.74      0.00
   -4   21    2      0.68      0.00
   -3   21    2     -3.15      0.00
   -2   21    2     -4.20      0.00
   -1   21    2      0.04      0.00
    0   21    2     -2.67      0.00
    1   21    2      0.95      0.00
    2   21    2     -0.86      0.00
    3   21    2     -2.90      0.00
    4   21    2      0.90      0.00
    5   21    2      2.79      0.00
    6   21    2      0.06      0.00
    7   21    2     -0.57      0.00
    8   21    2      0.42      0.00
    9   21    2      0.12      0.00
   10   21    2      0.15      0.00
   11   21    2     -1.06      0.00
   12   21    2     -0.27      0.00
   13   21    2     -1.23      0.00
   14   21    2     -1.06      0.00
   15   21    2      0.61      0.00
   16   21    2      1.53      0.00
   17   21    2      0.24      0.00
  -17   22    2     -0.22      0.00
  -16   22    2     -0.65      0.00
  -15   22    2     -1.16      0.00
  -14   22    2      1.07      0.00
  -13   22    2     -0.40      0.00
  -12   22    2     -0.83      0.00
  -11   22    2      0.24      0.00
  -10   22    2     -0.83      0.00
   -9   22    2      0.11      0.00
   -8   22    2      3.49      0.00
   -7   22    2      0.96      0.00
   -6   22    2      1.35      0.00
   -5   22    2     -2.61      0.00
   -4   22    2      0.07      0.00
   -3   22    2      0.03      0.00
   -2   22    2      2.70      0.00
   -1   22    2      6.24      0.00
    0   22    2     -2.61      0.00
    1   22    2      5.62      0.00
    2   22    2      2.49      0.00
    3   22    2      3.61      0.00
    4   22    2     -0.42      0.00
    5   22    2     -2.15      0.00
    6   22    2      0.18      0.00
    7   22    2     -0.73      0.00
    8   22    2      2.28      0.00
    9   22    2      0.71      0.00
   10   22    2      1.44      0.00
   11   22    2      0.54      0.00
   12   22    2     -0.71      0.00
   13   22    2     -1.39      0.00
   14   22    2     -0.50      0.00
   15   22    2      0.51      0.00
   16   22    2     -0.42      0.00
  -16   23    2      0.41      0.00
  -15   23    2     -0.48      0.00
  -14   23    2      0.63      0.00
  -13   23    2     -1.52      0.00
  -12   23    2      0.21      0.00
  -11   23    2     -0.55      0.00
  -10   23    2     -0.11      0.00
   -9   23    2      2.67      0.00
   -8   23    2     -0.80      0.00
   -7   23    2      1.77      0.00
   -6   23    2     -0.81      0.00
   -5   23    2      1.62      0.00
   -4   23    2      1.24      0.00
   -3   23    2     -2.04      0.00
   -2   23    2     -0.88      0.00
   -1   23    2     -3.09      0.00
    0   23    2     -1.49      0.00
    1   23    2      1.07      0.00
    2   23    2     -1.00      0.00
    3   23    2     -1.21      0.00
    4   23    2     -0.95      0.00
    5   23    2      2.62      0.00
    6   23    2     -0.91      0.00
    7   23    2     -0.27      0.00
    8   23    2     -0.48      0.00
    9   23    2     -1.48      0.00
   10   23    2      0.06      0.00
   11   23    2     -0.90      0.00
   12   23    2     -0.55      0.00
   13   23    2     -0.30      0.00
   14   23    2     -0.70      0.00
   15   23    2      0.95      0.00
   16   23    2      1.25      0.00
  -16   24    2     -0.60      0.00
  -15   24    2     -0.15      0.00
  -14   24    2      1.00      0.00
  -13   24    2     -0.27      0.00
  -12   24    2      0.08      0.00
  -11   24    2     -0.47      0.00
  -10   24    2     -1.95      0.00
   -9   24    2     -0.01      0.00
   -8   24    2     -0.99      0.00
   -7   24    2      2.86      0.00
   -6   24    2     -1.78      0.00
   -5   24    2      1.99      0.00
   -4   24    2     -4.94      0.00
   -3   24    2      0.98      0.00
   -2   24    2     -0.28      0.00
   -1   24    2      1.44      0.00
    0   24    2     -0.25      0.00
    1   24    2     -0.26      0.00
    2   24    2      3.59      0.00
    3   24    2     -0.45      0.00
    4   24    2     -0.78      0.00
    5   24    2     -1.37      0.00
    6   24    2     -1.59      0.00
    7   24    2      2.12      0.00
    8   24    2     -1.14      0.00
    9   24    2      1.88      0.00
   10   24    2     -0.12      0.00
   11   24    2     -0.63      0.00
   12   24    2     -0.24      0.00
   13   24    2     -2.17      0.00
   14   24    2     -0.36      0.00
   15   24    2     -0.60      0.00
   16   24    2     -0.43      0.00
  -16   25    2     -0.16      0.00
  -15   25    2     -0.19      0.00
  -14   25    2      0.44      0.00
  -13   25    2     -1.35      0.00
  -12   25    2      0.10      0.00
  -11   25    2     -2.33      0.00
  -10   25    2      0.88      0.00
   -9   25    2      1.14      0.00
   -8   25    2      1.71      0.00
   -7   25    2      1.75      0.00
   -6   25    2     -0.01      0.00
   -5   25    2      2.73      0.00
   -4   25    2     -1.42      0.00
   -3   25    2      1.30      0.00
   -2   25    2     -2.56      0.00
   -1   25    2     -0.96      0.00
    0   25    2     -1.80      0.00
    1   25    2      0.42      0.00
    2   25    2      0.20      0.00
    3   25    2     -3.27      0.00
    4   25    2      0.53      0.00
    5   25    2     -0.68      0.00
    6   25    2      0.91      0.00
    7   25    2     -1.36      0.00
    8   25    2     -0.42      0.00
    9   25    2     -1.11      0.00
   10   25    2     -1.69      0.00
   11   25    2      0.80      0.00
   12   25    2     -1.02      0.00
   13   25    2      0.23      0.00
   14   25    2      0.35      0.00
   15   25    2     -0.02      0.00
  -15   26    2      0.69      0.00
  -14   26    2      0.69      0.00
  -13   26    2      0.33      0.00
  -12   26    2     -0.16      0.00
  -11   26    2      0.04      0.00
  -10   26    2     -1.39      0.00
   -9   26    2     -0.56      0.00
   -8   26    2     -1.40      0.00
   -7   26    2      1.09      0.00
   -6   26    2     -0.05      0.00
   -5   26    2      1.15      0.00
   -4   26    2     -4.12      0.00
   -3   26    2      1.03      0.00
   -2   26    2     -3.60      0.00
   -1   26    2      0.46      0.00
    0   26    2     -1.99      0.00
    1   26    2     -1.82      0.00
    2   26    2      0.47      0.00
    3   26    2     -1.78      0.00
    4   26    2     -1.09      0.00
    5   26    2     -1.24      0.00
    6   26    2     -0.51      0.00
    7   26    2      0.72      0.00
    8   26    2     -0.47      0.00
    9   26    2     -0.66      0.00
   10   26    2      0.72      0.00
   11   26    2     -1.82      0.00
   12   26    2      0.02      0.00
   13   26    2     -1.28      0.00
   14   26    2      0.02      0.00
   15   26    2     -0.77      0.00
  -15   27    2     -0.37      0.00
  -14   27    2      0.52      0.00
  -13   27    2     -0.49      0.00
  -12   27    2     -0.53      0.00
  -11   27    2     -1.46      0.00
  -10   27    2      0.29      0.00
   -9   27    2      0.89      0.00
   -8   27    2      1.60      0.00
   -7   27    2      1.82      0.00
   -6   27    2      0.34      0.00
   -5   27    2      0.65      0.00
   -4   27    2     -1.14      0.00
   -3   27    2     -0.35      0.00
   -2   27    2     -2.80      0.00
   -1   27    2      0.64      0.00
    0   27    2     -2.03      0.00
    1   27    2      0.28      0.00
    2   27    2      0.38      0.00
    3   27    2     -2.33      0.00
    4   27    2      0.08      0.00
    5   27    2     -0.28      0.00
    6   27    2      1.13      0.00
    7   27    2     -0.95      0.00
    8   27    2     -0.25      0.00
    9   27    2      0.12      0.00
   10   27    2     -2.17      0.00
   11   27    2      1.10      0.00
   12   27    2     -0.77      0.00
   13   27    2      0.18      0.00
   14   27    2      0.41      0.00
   15   27    2     -0.79      0.00
  -14   28    2      1.39      0.00
  -13   28    2     -0.27      0.00
  -12   28    2     -0.40      0.00
  -11   28    2      1.00      0.00
  -10   28    2     -1.19      0.00
   -9   28    2     -0.30      0.00
   -8   28    2     -0.53      0.00
   -7   28    2     -0.63      0.00
   -6   28    2      1.74      0.00
   -5   28    2     -0.67      0.00
   -4   28    2     -0.03      0.00
   -3   28    2     -0.94      0.00
   -2   28    2     -1.90      0.00
   -1   28    2      0.99      0.00
    0   28    2     -3.29      0.00
    1   28    2      0.09      0.00
    2   28    2     -1.28      0.00
    3   28    2     -1.22      0.00
    4   28    2      0.08      0.00
    5   28    2     -0.37      0.00
    6   28    2      1.13      0.00
    7   28    2     -1.11      0.00
    8   28    2      1.96      0.00
    9   28    2     -2.66      0.00
   10   28    2      1.32      0.00
   11   28    2     -1.60      0.00
   12   28    2      0.00      0.00
   13   28    2     -0.09      0.00
   14   28    2      0.68      0.00
  -14   29    2      0.84      0.00
  -13   29    2     -0.39      0.00
  -12   29    2     -0.17      0.00
  -11   29    2     -0.35      0.00
  -10   29    2     -1.25      0.00
   -9   29    2      1.44      0.00
   -8   29    2     -0.73      0.00
   -7   29    2      1.75      0.00
   -6   29    2     -0.33      0.00
   -5   29    2     -1.05      0.00
   -4   29    2      0.22      0.00
   -3   29    2     -3.63      0.00
   -2   29    2      0.08      0.00
   -1   29    2     -0.62      0.00
    0   29    2     -0.63      0.00
    1   29    2      0.70      0.00
    2   29    2     -0.80      0.00
    3   29    2      0.98      0.00
    4   29    2     -1.62      0.00
    5   29    2      2.43      0.00
    6   29    2     -0.55      0.00
    7   29    2      0.98      0.00
    8   29    2     -0.59      0.00
    9   29    2      0.86      0.00
   10   29    2     -1.03      0.00
   11   29    2      0.13      0.00
   12   29    2     -0.61      0.00
   13   29    2      0.51      0.00
   14   29    2     -0.59      0.00
  -13   30    2     -0.88      0.00
  -12   30    2     -0.40      0.00
  -11   30    2      1.23      0.00
  -10   30    2     -1.09      0.00
   -9   30    2      0.62      0.00
   -8   30    2     -0.75      0.00
   -7   30    2     -0.27      0.00
   -6   30    2      0.46      0.00
   -5   30    2      0.17      0.00
   -4   30    2      1.42      0.00
   -3   30    2     -1.71      0.00
   -2   30    2      1.59      0.00
   -1   30    2      0.23      0.00
    0   30    2     -1.38      0.00
    1   30    2      0.40      0.00
    2   30    2      0.36      0.00
    3   30    2     -0.64      0.00
    4   30    2      1.33      0.00
    5   30    2      0.93      0.00
    6   30    2      1.37      0.00
    7   30    2     -0.93      0.00
    8   30    2      2.46      0.00
    9   30    2     -1.22      0.00
   10   30    2      0.56      0.00
   11   30    2     -0.77      0.00
   12   30    2      0.52      0.00
   13   30    2      0.05      0.00
  -13   31    2     -0.62      0.00
  -12   31    2      0.44      0.00
  -11   31    2     -0.64      0.00
  -10   31    2     -1.39      0.00
   -9   31    2      0.35      0.00
   -8   31    2     -1.73      0.00
   -7   31    2      0.53      0.00
   -6   31    2     -0.77      0.00
   -5   31    2      0.06      0.00
   -4   31    2     -0.23      0.00
   -3   31    2     -2.72      0.00
   -2   31    2      1.84      0.00
   -1   31    2     -1.20      0.00
    0   31    2      0.68      0.00
    1   31    2      0.47      0.00
    2   31    2     -1.34      0.00
    3   31    2      1.57      0.00
    4   31    2     -1.18      0.00
    5   31    2      2.34      0.00
    6   31    2     -1.06      0.00
    7   31    2      1.43      0.00
    8   31    2     -0.58      0.00
    9   31    2      0.83      0.00
   10   31    2     -0.04      0.00
   11   31    2     -0.30      0.00
   12   31    2     -0.50      0.00
   13   31    2      0.67      0.00
  -12   32    2     -0.99      0.00
  -11   32    2      0.90      0.00
  -10   32    2     -0.41      0.00
   -9   32    2      0.88      0.00
   -8   32    2     -0.81      0.00
   -7   32    2     -0.07      0.00
   -6   32    2     -0.52      0.00
   -5   32    2      1.12      0.00
   -4   32    2     -0.06      0.00
   -3   32    2     -0.21      0.00
   -2   32    2      1.68      0.00
   -1   32    2     -0.69      0.00
    0   32    2      0.36      0.00
    1   32    2     -0.75      0.00
    2   32    2      1.72      0.00
    3   32    2      0.27      0.00
    4   32    2      0.94      0.00
    5   32    2      1.11      0.00
    6   32    2      1.20      0.00
    7   32    2     -0.45      0.00
    8   32    2      1.45      0.00
    9   32    2      1.19      0.00
   10   32    2     -0.33      0.00
   11   32    2     -0.29      0.00
   12   32    2      0.78      0.00
  -12   33    2     -0.09      0.00
  -11   33    2     -0.78      0.00
  -10   33    2     -0.66      0.00
   -9   33    2     -1.47      0.00
   -8   33    2     -1.19      0.00
   -7   33    2     -0.67      0.00
   -6   33    2     -0.40      0.00
   -5   33    2      1.55      0.00
   -4   33    2     -0.56      0.00
   -3   33    2      0.39      0.00
   -2   33    2      1.12      0.00
   -1   33    2      1.11      0.00
    0   33    2      0.29      0.00
    1   33    2     -0.20      0.00
    2   33    2     -0.61      0.00
    3   33    2     -0.12      0.00
    4   33    2      0.42      0.00
    5   33    2      0.49      0.00
    6   33    2      0.28      0.00
    7   33    2      0.02      0.00
    8   33    2      0.36      0.00
    9   33    2      0.52      0.00
   10   33    2      0.19      0.00
   11   33    2     -0.18      0.00
   12   33    2      0.09      0.00
  -11   34    2      0.50      0.00
  -10   34    2      0.24      0.00
   -9   34    2      0.33      0.00
   -8   34    2     -0.38      0.00
   -7   34    2     -0.74      0.00
   -6   34    2      0.20      0.00
   -5   34    2      0.40      0.00
   -4   34    2     -1.48      0.00
   -3   34    2      0.66      0.00
   -2   34    2     -0.22      0.00
   -1   34    2     -1.02      0.00
    0   34    2     -0.29      0.00
    1   34    2     -1.03      0.00
    2   34    2      1.26      0.00
    3   34    2      1.20      0.00
    4   34    2     -0.51      0.00
    5   34    2      0.45      0.00
    6   34    2      0.87      0.00
    7   34    2     -0.44      0.00
    8   34    2      0.32      0.00
    9   34    2      1.90      0.00
   10   34    2     -0.52      0.00
   11   34    2      0.01      0.00
  -10   35    2      0.04      0.00
   -9   35    2     -2.03      0.00
   -8   35    2     -0.66      0.00
   -7   35    2     -0.37      0.00
   -6   35    2     -0.34      0.00
   -5   35    2      1.41      0.00
   -4   35    2      0.35      0.00
   -3   35    2      1.45      0.00
   -2   35    2      0.09      0.00
   -1   35    2      4.09      0.00
    0   35    2     -0.78      0.00
    1   35    2     -0.29      0.00
    2   35    2      0.41      0.00
    3   35    2     -0.59      0.00
    4   35    2      0.81      0.00
    5   35    2      0.18      0.00
    6   35    2      1.57      0.00
    7   35    2     -1.07      0.00
    8   35    2      0.99      0.00
    9   35    2      0.37      0.00
   10   35    2      0.03      0.00
   -9   36    2     -0.10      0.00
   -8   36    2     -0.41      0.00
   -7   36    2     -0.84      0.00
   -6   36    2      0.23      0.00
   -5   36    2     -0.25      0.00
   -4   36    2     -1.88      0.00
   -3   36    2     -0.57      0.00
   -2   36    2     -0.26      0.00
   -1   36    2     -1.25      0.00
    0   36    2     -1.73      0.00
    1   36    2     -0.15      0.00
    2   36    2      0.85      0.00
    3   36    2      1.03      0.00
    4   36    2     -1.35      0.00
    5   36    2      0.29      0.00
    6   36    2      0.06      0.00
    7   36    2      0.01      0.00
    8   36    2     -0.45      0.00
    9   36    2      1.19      0.00
   -9   37    2     -1.38      0.00
   -8   37    2     -0.09      0.00
   -7   37    2      0.60      0.00
   -6   37    2     -0.61      0.00
   -5   37    2      0.70      0.00
   -4   37    2      0.68      0.00
   -3   37    2      0.83      0.00
   -2   37    2      0.09      0.00
   -1   37    2      4.46      0.00
    0   37    2     -1.01      0.00
    1   37    2      0.05      0.00
    2   37    2      0.64      0.00
    3   37    2      0.12      0.00
    4   37    2      0.18      0.00
    5   37    2      0.61      0.00
    6   37    2      1.64      0.00
    7   37    2     -0.90      0.00
    8   37    2      0.25      0.00
   -7   38    2     -0.39      0.00
   -6   38    2     -0.71      0.00
   -5   38    2     -0.13      0.00
   -4   38    2     -1.63      0.00
   -3   38    2     -1.76      0.00
   -2   38    2      1.45      0.00
   -1   38    2     -1.07      0.00
    0   38    2     -1.95      0.00
    1   38    2      0.76      0.00
    2   38    2      1.32      0.00
    3   38    2      0.07      0.00
    4   38    2     -1.27      0.00
    5   38    2      0.48      0.00
    6   38    2     -0.36      0.00
    7   38    2      0.42      0.00
   -6   39    2     -0.32      0.00
   -5   39    2      0.21      0.00
   -4   39    2     -0.12      0.00
   -3   39    2      0.45      0.00
   -2   39    2      0.48      0.00
   -1   39    2      2.00      0.00
    0   39    2     -0.65      0.00
    1   39    2      0.23      0.00
    2   39    2     -0.01      0.00
    3   39    2      0.22      0.00
    4   39    2     -0.33      0.00
    5   39    2      0.22      0.00
    6   39    2      0.87      0.00
   -5   40    2     -0.40      0.00
   -4   40    2     -0.85      0.00
   -3   40    2     -1.26      0.00
   -2   40    2      2.24      0.00
   -1   40    2     -0.37      0.00
    0   40    2     -0.88      0.00
    1   40    2      0.80      0.00
    2   40    2      1.43      0.00
    3   40    2     -0.47      0.00
    4   40    2     -1.18      0.00
    5   40    2      0.22      0.00
   -2   41    2      0.45      0.00
   -1   41    2     -0.64      0.00
    0   41    2     -0.60      0.00
    1   41    2      0.29      0.00
    2   41    2     -0.56      0.00
  -20    1    3      1.46      0.00
  -19    1    3      0.97      0.00
  -18    1    3      0.32      0.00
  -17    1    3     -1.98      0.00
  -16    1    3      0.45      0.00
  -15    1    3      2.31      0.00
  -14    1    3     -0.48      0.00
  -13    1    3      2.98      0.00
  -12    1    3     -0.38      0.00
  -11    1    3      2.37      0.00
  -10    1    3     -2.09      0.00
   -9    1    3     -0.73      0.00
   -8    1    3      1.44      0.00
   -7    1    3     -6.78      0.00
   -6    1    3     10.40      0.00
   -4    1    3     -3.39      0.00
   -3    1    3     -0.44      0.00
   -2    1    3     49.37      0.00
   -1    1    3     24.61      0.00
    0    1    3    -58.87      0.00
    1    1    3     14.00      0.00
    2    1    3    -47.18      0.00
    3    1    3     10.97      0.00
    4    1    3    -17.73      0.00
    5    1    3     -0.23      0.00
    6    1    3      4.31      0.00
    7    1    3    -10.15      0.00
    8    1    3      5.13      0.00
    9    1    3     -7.42      0.00
   10    1    3      4.36      0.00
   11    1    3     -2.15      0.00
   12    1    3     -1.07      0.00
   13    1    3     -0.47      0.00
   14    1    3     -2.20      0.00
   15    1    3      2.02      0.00
   16    1    3     -0.70      0.00
   17    1    3      0.69      0.00
   18    1    3      0.96      0.00
   19    1    3      1.76      0.00
  -19    2    3      0.68      0.00
  -18    2    3      0.95      0.00
  -17    2    3      0.45      0.00
  -16    2    3      0.68      0.00
  -15    2    3      0.91      0.00
  -14    2    3      0.90      0.00
  -13    2    3     -0.40      0.00
  -12    2    3      1.72      0.00
  -11    2    3     -1.77      0.00
  -10    2    3      0.40      0.00
   -9    2    3      2.25      0.00
   -8    2    3     -5.74      0.00
   -7    2    3     -2.46      0.00
   -6    2    3    -13.27      0.00
   -4    2    3     -1.97      0.00
   -3    2    3      3.11      0.00
   -2    2    3     18.91      0.00
   -1    2    3    -31.99      0.00
    0    2    3     10.32      0.00
    1    2    3    -29.23      0.00
    3    2    3      5.16      0.00
    4    2    3    -13.82      0.00
    5    2    3     -3.53      0.00
    6    2    3     -5.23      0.00
    7    2    3     -1.91      0.00
    8    2    3      4.50      0.00
    9    2    3     -1.69      0.00
   10    2    3      4.60      0.00
   11    2    3     -2.09      0.00
   12    2    3      0.44      0.00
   13    2    3     -0.69      0.00
   14    2    3      0.36      0.00
   15    2    3      0.45      0.00
   16    2    3     -1.50      0.00
   17    2    3     -0.49      0.00
   18    2    3     -0.03      0.00
   19    2    3     -2.60      0.00
  -19    3    3      0.66      0.00
  -18    3    3     -0.49      0.00
  -17    3    3     -1.92      0.00
  -16    3    3      1.18      0.00
  -15    3    3      0.45      0.00
  -14    3    3      1.17      0.00
  -13    3    3      0.22      0.00
  -12    3    3      2.87      0.00
  -11    3    3     -0.56      0.00
  -10    3    3      2.55      0.00
   -9    3    3     -0.84      0.00
   -8    3    3     -3.86      0.00
   -7    3    3      2.88      0.00
   -6    3    3     -4.91      0.00
   -4    3    3    -12.84      0.00
   -3    3    3     13.20      0.00
   -2    3    3     34.44      0.00
   -1    3    3      4.48      0.00
    0    3    3     -2.56      0.00
    1    3    3    -12.05      0.00
    2    3    3     15.15      0.00
    3    3    3     -9.57      0.00
    4    3    3     -1.45      0.00
    5    3    3      2.15      0.00
    6    3    3      0.17      0.00
    7    3    3      4.58      0.00
    8    3    3     -3.36      0.00
    9    3    3      2.43      0.00
   10    3    3     -0.93      0.00
   11    3    3     -0.19      0.00
   12    3    3     -0.91      0.00
   13    3    3     -0.84      0.00
   14    3    3      0.21      0.00
   15    3    3     -0.87      0.00
   16    3    3      0.34      0.00
   17    3    3     -0.46      0.00
   18    3    3      0.48      0.00
   19    3    3      1.28      0.00
  -19    4    3      0.41      0.00
  -18    4    3      0.42      0.00
  -17    4    3      0.79      0.00
  -16    4    3     -0.60      0.00
  -15    4    3      0.90      0.00
  -14    4    3      0.46      0.00
  -13    4    3     -0.38      0.00
  -12    4    3      2.48      0.00
  -11    4    3     -3.47      0.00
  -10    4    3      5.17      0.00
   -9    4    3     -1.38      0.00
   -8    4    3      1.06      0.00
   -7    4    3     -4.19      0.00
   -6    4    3    -12.13      0.00
   -4    4    3     -9.02      0.00
   -3    4    3     25.83      0.00
   -2    4    3      3.79      0.00
   -1    4    3     -9.07      0.00
    0    4    3     -1.49      0.00
    1    4    3    -36.70      0.00
    2    4    3      1.76      0.00
    3    4    3    -11.59      0.00
    4    4    3     -6.36      0.00
    5    4    3    -21.61      0.00
    6    4    3      1.98      0.00
    7    4    3     -6.78      0.00
    8    4    3      5.04      0.00
    9    4    3      0.51      0.00
   10    4    3      2.62      0.00
   11    4    3      0.05      0.00
   12    4    3     -1.05      0.00
   13    4    3      0.95      0.00
   14    4    3     -0.40      0.00
   15    4    3      0.84      0.00
   16    4    3     -1.28      0.00
   17    4    3     -0.60      0.00
   18    4    3      0.19      0.00
   19    4    3     -2.03      0.00
  -19    5    3      0.20      0.00
  -18    5    3     -0.53      0.00
  -17    5    3     -1.47      0.00
  -16    5    3      1.47      0.00
  -15    5    3     -0.67      0.00
  -14    5    3      1.55      0.00
  -13    5    3     -1.46      0.00
  -12    5    3      2.79      0.00
  -11    5    3     -0.62      0.00
  -10    5    3      4.26      0.00
   -9    5    3     -0.88      0.00
   -8    5    3     -5.56      0.00
   -7    5    3      4.64      0.00
   -6    5    3    -12.54      0.00
   -5    5    3     17.38      0.00
   -4    5    3     -9.34      0.00
   -3    5    3     15.34      0.00
   -2    5    3     11.00      0.00
   -1    5    3     -5.93      0.00
    0    5    3     29.90      0.00
    1    5    3    -10.29      0.00
    2    5    3     53.99      0.00
    3    5    3    -15.70      0.00
    4    5    3      7.49      0.00
    5    5    3      0.71      0.00
    6    5    3      1.94      0.00
    7    5    3      7.86      0.00
    8    5    3     -4.33      0.00
    9    5    3      5.56      0.00
   10    5    3     -3.60      0.00
   11    5    3      0.54      0.00
   12    5    3     -0.27      0.00
   13    5    3     -0.27      0.00
   14    5    3      1.83      0.00
   15    5    3     -1.69      0.00
   16    5    3      0.54      0.00
   17    5    3     -0.60      0.00
   18    5    3      0.03      0.00
   19    5    3      1.08      0.00
  -19    6    3     -0.70      0.00
  -18    6    3     -0.41      0.00
  -17    6    3      0.72      0.00
  -16    6    3     -2.05      0.00
  -15    6    3      0.41      0.00
  -14    6    3     -0.61      0.00
  -13    6    3      0.77      0.00
  -12    6    3      1.14      0.00
  -11    6    3     -1.78      0.00
  -10    6    3      6.46      0.00
   -9    6    3     -3.41      0.00
   -8    6    3      8.24      0.00
   -7    6    3     -2.20      0.00
   -6    6    3     -1.19      0.00
   -5    6    3    -14.51      0.00
   -3    6    3     33.75      0.00
   -2    6    3    -11.37      0.00
   -1    6    3     28.09      0.00
    0    6    3     -8.70      0.00
    1    6    3    -27.88      0.00
    2    6    3     -1.89      0.00
    3    6    3    -25.17      0.00
    4    6    3      1.47      0.00
    5    6    3    -28.22      0.00
    6    6    3      7.38      0.00
    7    6    3     -5.86      0.00
    8    6    3      0.98      0.00
    9    6    3      2.60      0.00
   10    6    3     -1.96      0.00
   11    6    3      1.34      0.00
   12    6    3     -2.03      0.00
   13    6    3      1.46      0.00
   14    6    3     -0.79      0.00
   15    6    3     -0.07      0.00
   16    6    3      0.32      0.00
   17    6    3     -0.04      0.00
   18    6    3      0.44      0.00
   19    6    3      1.48      0.00
  -19    7    3     -0.06      0.00
  -18    7    3      0.53      0.00
  -17    7    3     -1.08      0.00
  -16    7    3      1.00      0.00
  -15    7    3     -0.32      0.00
  -14    7    3      0.45      0.00
  -13    7    3     -0.82      0.00
  -12    7    3     -0.75      0.00
  -11    7    3      3.13      0.00
  -10    7    3      1.89      0.00
   -9    7    3      1.20      0.00
   -8    7    3     -0.85      0.00
   -7    7    3     -2.12      0.00
   -6    7    3     -7.90      0.00
   -5    7    3      3.61      0.00
   -3    7    3     -0.83      0.00
   -2    7    3    -10.34      0.00
   -1    7    3     -1.90      0.00
    0    7    3      8.68      0.00
    1    7    3     17.05      0.00
    2    7    3     35.90      0.00
    3    7    3     -2.91      0.00
    4    7    3      0.52      0.00
    5    7    3     -3.56      0.00
    6    7    3      7.19      0.00
    7    7    3     -3.51      0.00
    8    7    3      2.67      0.00
    9    7    3     -0.03      0.00
   10    7    3     -1.73      0.00
   11    7    3      0.19      0.00
   12    7    3      0.13      0.00
   13    7    3      1.23      0.00
   14    7    3      0.76      0.00
   15    7    3      0.31      0.00
   16    7    3     -0.33      0.00
   17    7    3     -0.09      0.00
   18    7    3      0.03      0.00
   19    7    3      1.07      0.00
  -19    8    3     -1.42      0.00
  -18    8    3     -0.36      0.00
  -17    8    3      0.07      0.00
  -16    8    3     -1.67      0.00
  -15    8    3     -0.57      0.00
  -14    8    3     -1.23      0.00
  -13    8    3      1.35      0.00
  -12    8    3     -1.45      0.00
  -11    8    3      2.58      0.00
  -10    8    3     -0.45      0.00
   -9    8    3      2.60      0.00
   -8    8    3      2.61      0.00
   -7    8    3      4.03      0.00
   -6    8    3      6.14      0.00
   -5    8    3     -7.52      0.00
   -4    8    3      5.38      0.00
   -3    8    3      3.79      0.00
   -2    8    3      4.68      0.00
   -1    8    3     22.43      0.00
    0    8    3      9.27      0.00
    1    8    3    -21.87      0.00
    2    8    3    -13.55      0.00
    3    8    3    -13.46      0.00
    4    8    3    -10.11      0.00
    5    8    3     -7.20      0.00
    6    8    3     -1.53      0.00
    7    8    3      4.17      0.00
    8    8    3     -3.44      0.00
    9    8    3      1.03      0.00
   10    8    3     -1.77      0.00
   11    8    3     -1.50      0.00
   12    8    3      0.24      0.00
   13    8    3     -0.67      0.00
   14    8    3      0.42      0.00
   15    8    3     -1.44      0.00
   16    8    3      1.28      0.00
   17    8    3      0.74      0.00
   18    8    3      0.23      0.00
   19    8    3      4.13      0.00
  -19    9    3      0.36      0.00
  -18    9    3      1.51      0.00
  -17    9    3     -0.63      0.00
  -16    9    3      0.26      0.00
  -15    9    3      0.07      0.00
  -14    9    3     -0.15      0.00
  -13    9    3     -0.65      0.00
  -12    9    3     -2.21      0.00
  -11    9    3      3.76      0.00
  -10    9    3      1.00      0.00
   -9    9    3      4.28      0.00
   -8    9    3      3.56      0.00
   -7    9    3     -1.97      0.00
   -6    9    3     -5.96      0.00
   -5    9    3     -6.81      0.00
   -4    9    3      4.48      0.00
   -3    9    3    -13.02      0.00
   -2    9    3    -19.06      0.00
   -1    9    3     -1.57      0.00
    0    9    3    -15.26      0.00
    1    9    3     18.21      0.00
    2    9    3     10.81      0.00
    4    9    3     -8.22      0.00
    5    9    3     -4.81      0.00
    6    9    3      3.43      0.00
    7    9    3     -9.07      0.00
    8    9    3      2.09      0.00
    9    9    3     -2.04      0.00
   10    9    3     -1.05      0.00
   11    9    3      0.82      0.00
   12    9    3      0.04      0.00
   13    9    3      1.95      0.00
   14    9    3     -0.41      0.00
   15    9    3      1.29      0.00
   16    9    3     -0.01      0.00
   17    9    3     -0.26      0.00
   18    9    3      0.37      0.00
   19    9    3      1.11      0.00
  -19   10    3     -1.07      0.00
  -18   10    3      0.04      0.00
  -17   10    3     -0.33      0.00
  -16   10    3     -0.27      0.00
  -15   10    3     -1.50      0.00
  -14   10    3     -0.95      0.00
  -13   10    3     -0.16      0.00
  -12   10    3     -2.09      0.00
  -11   10    3      3.49      0.00
  -10   10    3     -5.47      0.00
   -9   10    3      7.47      0.00
   -8   10    3     -6.27      0.00
   -7   10    3      7.59      0.00
   -6   10    3      4.72      0.00
   -5   10    3      1.09      0.00
   -4   10    3     11.94      0.00
   -3   10    3    -26.36      0.00
   -2   10    3     18.67      0.00
   -1   10    3     -4.95      0.00
    0   10    3     23.11      0.00
    1   10    3    -22.05      0.00
    2   10    3    -20.43      0.00
    3   10    3      2.01      0.00
    4   10    3    -18.91      0.00
    5   10    3     12.46      0.00
    6   10    3     -9.43      0.00
    7   10    3     10.34      0.00
    8   10    3     -3.30      0.00
    9   10    3     -1.44      0.00
   10   10    3      1.17      0.00
   11   10    3     -3.31      0.00
   12   10    3      2.40      0.00
   13   10    3     -1.79      0.00
   14   10    3      1.04      0.00
   15   10    3     -1.12      0.00
   16   10    3      0.81      0.00
   17   10    3      0.63      0.00
   18   10    3      0.02      0.00
   19   10    3      3.37      0.00
  -19   11    3      0.93      0.00
  -18   11    3      1.41      0.00
  -17   11    3      0.28      0.00
  -16   11    3     -0.79      0.00
  -15   11    3      0.14      0.00
  -14   11    3     -0.38      0.00
  -13   11    3     -1.41      0.00
  -12   11    3     -1.10      0.00
  -11   11    3     -0.76      0.00
  -10   11    3      3.03      0.00
   -9   11    3      3.95      0.00
   -8   11    3      4.85      0.00
   -7   11    3      5.40      0.00
   -6   11    3     -6.78      0.00
   -5   11    3     -3.34      0.00
   -4   11    3     -6.74      0.00
   -3   11    3     -8.86      0.00
   -2   11    3    -14.20      0.00
   -1   11    3     -4.35      0.00
    0   11    3    -11.17      0.00
    1   11    3     -6.88      0.00
    2   11    3      9.06      0.00
    3   11    3     -5.38      0.00
    4   11    3     -9.13      0.00
    5   11    3     -2.58      0.00
    6   11    3     -6.15      0.00
    7   11    3     -3.75      0.00
    8   11    3     -5.42      0.00
    9   11    3      1.20      0.00
   10   11    3     -1.81      0.00
   11   11    3      1.45      0.00
   12   11    3      0.62      0.00
   13   11    3      1.00      0.00
   14   11    3      0.62      0.00
   15   11    3     -0.05      0.00
   16   11    3      1.35      0.00
   17   11    3     -0.48      0.00
   18   11    3      0.22      0.00
   19   11    3      1.29      0.00
  -19   12    3     -0.33      0.00
  -18   12    3      0.32      0.00
  -17   12    3      0.22      0.00
  -16   12    3      0.58      0.00
  -15   12    3     -0.84      0.00
  -14   12    3      0.07      0.00
  -13   12    3     -1.70      0.00
  -12   12    3     -0.38      0.00
  -11   12    3     -0.18      0.00
  -10   12    3     -1.24      0.00
   -9   12    3      2.72      0.00
   -8   12    3     -5.11      0.00
   -7   12    3      3.73      0.00
   -6   12    3     -0.43      0.00
   -5   12    3     10.62      0.00
   -4   12    3      2.70      0.00
   -3   12    3    -23.13      0.00
   -2   12    3      1.53      0.00
   -1   12    3     -9.55      0.00
    0   12    3      7.95      0.00
    1   12    3    -18.95      0.00
    2   12    3    -12.67      0.00
    3   12    3      0.53      0.00
    4   12    3     -5.26      0.00
    6   12    3     -2.47      0.00
    7   12    3      4.27      0.00
    8   12    3      0.59      0.00
    9   12    3     -1.99      0.00
   10   12    3      0.81      0.00
   11   12    3     -1.05      0.00
   12   12    3      0.55      0.00
   13   12    3     -0.37      0.00
   14   12    3     -0.50      0.00
   15   12    3      0.27      0.00
   16   12    3      0.40      0.00
   17   12    3     -0.59      0.00
   18   12    3      0.30      0.00
  -18   13    3      0.59      0.00
  -17   13    3      0.87      0.00
  -16   13    3     -1.71      0.00
  -15   13    3      0.38      0.00
  -14   13    3     -0.88      0.00
  -13   13    3     -0.54      0.00
  -12   13    3     -1.01      0.00
  -11   13    3     -2.99      0.00
  -10   13    3      3.45      0.00
   -9   13    3      0.18      0.00
   -8   13    3      6.15      0.00
   -7   13    3      6.50      0.00
   -6   13    3      0.79      0.00
   -5   13    3     -0.95      0.00
   -4   13    3     -9.81      0.00
   -3   13    3     -2.30      0.00
   -2   13    3     -5.35      0.00
   -1   13    3      0.99      0.00
    0   13    3     -3.76      0.00
    1   13    3    -13.77      0.00
    2   13    3      8.35      0.00
    3   13    3     -3.14      0.00
    4   13    3     -6.23      0.00
    5   13    3      0.12      0.00
    6   13    3     -6.68      0.00
    7   13    3      0.75      0.00
    8   13    3     -4.18      0.00
    9   13    3      1.65      0.00
   10   13    3      0.73      0.00
   11   13    3      0.57      0.00
   12   13    3      1.65      0.00
   13   13    3     -0.25      0.00
   14   13    3      1.45      0.00
   15   13    3     -1.31      0.00
   16   13    3      0.81      0.00
   17   13    3     -0.35      0.00
   18   13    3     -0.59      0.00
  -18   14    3      0.56      0.00
  -17   14    3      0.75      0.00
  -16   14    3      0.51      0.00
  -15   14    3      0.88      0.00
  -14   14    3      1.15      0.00
  -13   14    3     -1.46      0.00
  -12   14    3      0.32      0.00
  -11   14    3     -2.43      0.00
  -10   14    3      3.70      0.00
   -9   14    3     -3.40      0.00
   -8   14    3      1.52      0.00
   -7   14    3     -0.90      0.00
   -6   14    3     -2.37      0.00
   -5   14    3     13.44      0.00
   -4   14    3     -3.98      0.00
   -3   14    3     -5.83      0.00
   -2   14    3    -17.46      0.00
   -1   14    3      0.93      0.00
    0   14    3    -13.97      0.00
    1   14    3    -11.35      0.00
    2   14    3     -0.69      0.00
    3   14    3     -4.92      0.00
    4   14    3      9.93      0.00
    5   14    3     -3.63      0.00
    6   14    3      6.26      0.00
    7   14    3     -3.78      0.00
    8   14    3      2.71      0.00
    9   14    3     -1.52      0.00
   10   14    3     -1.24      0.00
   11   14    3      1.21      0.00
   12   14    3     -1.88      0.00
   13   14    3      0.95      0.00
   14   14    3     -1.59      0.00
   15   14    3      0.86      0.00
   16   14    3      0.86      0.00
   17   14    3     -1.21      0.00
   18   14    3      0.37      0.00
  -18   15    3      0.19      0.00
  -17   15    3      0.71      0.00
  -16   15    3     -1.08      0.00
  -15   15    3      0.54      0.00
  -14   15    3     -0.43      0.00
  -13   15    3      0.94      0.00
  -12   15    3     -1.76      0.00
  -11   15    3     -0.22      0.00
  -10   15    3     -0.37      0.00
   -9   15    3     -2.55      0.00
   -8   15    3      5.28      0.00
   -7   15    3      0.31      0.00
   -6   15    3     10.39      0.00
   -5   15    3     -3.32      0.00
   -4   15    3     -3.33      0.00
   -3   15    3     -3.66      0.00
   -2   15    3      0.01      0.00
   -1   15    3      7.72      0.00
    0   15    3     -7.50      0.00
    1   15    3      2.28      0.00
    2   15    3     -2.38      0.00
    3   15    3      7.06      0.00
    4   15    3     -3.62      0.00
    5   15    3      1.84      0.00
    6   15    3      1.05      0.00
    7   15    3      1.06      0.00
    8   15    3      4.53      0.00
    9   15    3     -0.79      0.00
   10   15    3      3.89      0.00
   11   15    3     -0.28      0.00
   12   15    3      1.32      0.00
   13   15    3     -0.29      0.00
   14   15    3      0.13      0.00
   15   15    3     -1.17      0.00
   16   15    3     -1.43      0.00
   17   15    3     -0.62      0.00
   18   15    3     -0.96      0.00
  -18   16    3      0.52      0.00
  -17   16    3      0.31      0.00
  -16   16    3      0.13      0.00
  -15   16    3      1.84      0.00
  -14   16    3      2.05      0.00
  -13   16    3     -0.61      0.00
  -12   16    3     -0.54      0.00
  -11   16    3     -0.99      0.00
  -10   16    3      1.33      0.00
   -9   16    3     -1.94      0.00
   -8   16    3      3.04      0.00
   -7   16    3      0.18      0.00
   -6   16    3     -0.49      0.00
   -5   16    3      8.64      0.00
   -4   16    3      1.41      0.00
   -3   16    3     -0.28      0.00
   -2   16    3    -10.08      0.00
   -1   16    3      0.69      0.00
    0   16    3    -15.19      0.00
    1   16    3     -5.46      0.00
    2   16    3      2.95      0.00
    3   16    3     -0.02      0.00
    4   16    3      6.41      0.00
    5   16    3     -2.99      0.00
    6   16    3      3.36      0.00
    7   16    3     -3.30      0.00
    9   16    3     -1.56      0.00
   10   16    3     -0.69      0.00
   11   16    3      0.34      0.00
   12   16    3     -1.06      0.00
   13   16    3      0.86      0.00
   14   16    3     -0.35      0.00
   15   16    3      0.94      0.00
   16   16    3      0.93      0.00
   17   16    3      0.21      0.00
   18   16    3     -0.10      0.00
  -18   17    3      0.19      0.00
  -17   17    3      0.62      0.00
  -16   17    3      0.65      0.00
  -15   17    3      0.50      0.00
  -14   17    3      0.92      0.00
  -13   17    3      0.21      0.00
  -12   17    3     -0.52      0.00
  -11   17    3      1.53      0.00
  -10   17    3     -4.27      0.00
   -9   17    3     -2.14      0.00
   -8   17    3     -1.24      0.00
   -7   17    3     -2.46      0.00
   -6   17    3      7.98      0.00
   -5   17    3     -0.30      0.00
   -4   17    3     -0.92      0.00
   -3   17    3     -5.34      0.00
   -2   17    3      0.93      0.00
   -1   17    3      3.80      0.00
    0   17    3     -7.52      0.00
    1   17    3      8.95      0.00
    2   17    3     -7.31      0.00
    3   17    3      7.32      0.00
    4   17    3     -1.02      0.00
    5   17    3      2.15      0.00
    6   17    3      4.29      0.00
    7   17    3      2.44      0.00
    8   17    3      5.69      0.00
    9   17    3     -0.35      0.00
   10   17    3      1.74      0.00
   11   17    3      0.01      0.00
   12   17    3     -0.19      0.00
   13   17    3      0.01      0.00
   14   17    3     -1.23      0.00
   15   17    3     -1.27      0.00
   16   17    3     -2.31      0.00
   17   17    3     -1.16      0.00
   18   17    3     -0.70      0.00
  -18   18    3      0.06      0.00
  -17   18    3     -0.63      0.00
  -16   18    3     -0.23      0.00
  -15   18    3      1.72      0.00
  -14   18    3      2.31      0.00
  -13   18    3     -0.17      0.00
  -12   18    3     -0.43      0.00
  -11   18    3     -0.14      0.00
  -10   18    3     -2.69      0.00
   -9   18    3      1.24      0.00
   -8   18    3      0.59      0.00
   -7   18    3      2.57      0.00
   -6   18    3      1.35      0.00
   -5   18    3      3.34      0.00
   -4   18    3      5.12      0.00
   -3   18    3     -1.14      0.00
   -2   18    3      5.27      0.00
   -1   18    3     -5.20      0.00
    0   18    3     -2.81      0.00
    1   18    3     -2.91      0.00
    2   18    3      1.44      0.00
    3   18    3      6.69      0.00
    4   18    3     -2.85      0.00
    5   18    3      1.58      0.00
    6   18    3     -2.68      0.00
    7   18    3      0.96      0.00
    8   18    3     -1.77      0.00
    9   18    3     -1.76      0.00
   10   18    3      0.92      0.00
   11   18    3     -0.87      0.00
   12   18    3      0.50      0.00
   13   18    3      0.88      0.00
   14   18    3      1.39      0.00
   15   18    3      1.14      0.00
   16   18    3      0.01      0.00
   17   18    3      1.91      0.00
  -17   19    3      0.81      0.00
  -16   19    3      1.37      0.00
  -15   19    3      0.80      0.00
  -14   19    3      0.81      0.00
  -13   19    3     -1.10      0.00
  -12   19    3      1.53      0.00
  -11   19    3     -0.06      0.00
  -10   19    3     -3.33      0.00
   -9   19    3     -0.55      0.00
   -8   19    3     -7.28      0.00
   -7   19    3     -0.15      0.00
   -6   19    3     -1.24      0.00
   -5   19    3      5.88      0.00
   -4   19    3     -3.78      0.00
   -3   19    3     -1.88      0.00
   -2   19    3     -1.82      0.00
   -1   19    3     -5.09      0.00
    0   19    3     -0.64      0.00
    1   19    3     -0.75      0.00
    2   19    3     -3.63      0.00
    3   19    3     -1.81      0.00
    4   19    3      0.69      0.00
    5   19    3      1.20      0.00
    6   19    3      1.57      0.00
    7   19    3      4.35      0.00
    8   19    3     -0.90      0.00
    9   19    3      1.81      0.00
   10   19    3     -2.57      0.00
   11   19    3     -0.29      0.00
   12   19    3     -0.71      0.00
   13   19    3     -0.28      0.00
   14   19    3     -0.98      0.00
   15   19    3     -2.18      0.00
   16   19    3     -1.31      0.00
   17   19    3     -0.77      0.00
  -17   20    3     -1.31      0.00
  -16   20    3     -0.47      0.00
  -15   20    3      0.99      0.00
  -14   20    3      1.42      0.00
  -13   20    3      0.37      0.00
  -12   20    3      0.30      0.00
  -11   20    3     -1.09      0.00
  -10   20    3     -2.06      0.00
   -9   20    3     -0.64      0.00
   -8   20    3      0.21      0.00
   -7   20    3      1.04      0.00
   -6   20    3      1.83      0.00
   -5   20    3      0.81      0.00
   -4   20    3      0.62      0.00
   -3   20    3      1.36      0.00
   -2   20    3      6.39      0.00
   -1   20    3     -3.16      0.00
    0   20    3      3.91      0.00
    1   20    3     -1.76      0.00
    2   20    3      1.65      0.00
    3   20    3      5.48      0.00
    4   20    3     -2.85      0.00
    5   20    3     -0.39      0.00
    6   20    3     -1.73      0.00
    7   20    3      1.26      0.00
    8   20    3     -1.21      0.00
    9   20    3     -0.78      0.00
   10   20    3      0.79      0.00
   11   20    3      0.25      0.00
   12   20    3      0.29      0.00
   13   20    3      1.36      0.00
   14   20    3      1.86      0.00
   15   20    3      0.55      0.00
   16   20    3     -0.82      0.00
   17   20    3      1.36      0.00
  -17   21    3      0.63      0.00
  -16   21    3      0.98      0.00
  -15   21    3      1.12      0.00
  -14   21    3     -0.81      0.00
  -13   21    3     -0.47      0.00
  -12   21    3      1.13      0.00
  -11   21    3     -1.05      0.00
  -10   21    3      0.45      0.00
   -9   21    3      0.03      0.00
   -8   21    3     -5.67      0.00
   -7   21    3      0.20      0.00
   -6   21    3     -3.43      0.00
   -5   21    3      4.91      0.00
   -4   21    3     -2.56      0.00
   -3   21    3      1.16      0.00
   -2   21    3     -4.57      0.00
   -1   21    3     -6.86      0.00
    0   21    3      1.73      0.00
    1   21    3     -6.66      0.00
    2   21    3     -2.67      0.00
    3   21    3     -5.84      0.00
    4   21    3      0.29      0.00
    5   21    3      0.25      0.00
    6   21    3      0.13      0.00
    7   21    3      2.65      0.00
    8   21    3     -3.57      0.00
    9   21    3      0.77      0.00
   10   21    3     -2.67      0.00
   11   21    3     -1.45      0.00
   12   21    3     -0.02      0.00
   13   21    3      0.34      0.00
   14   21    3     -0.25      0.00
   15   21    3     -1.85      0.00
   16   21    3     -0.12      0.00
   17   21    3      0.47      0.00
  -16   22    3     -0.24      0.00
  -15   22    3      0.14      0.00
  -14   22    3      0.44      0.00
  -13   22    3      1.15      0.00
  -12   22    3     -0.08      0.00
  -11   22    3     -0.18      0.00
  -10   22    3     -0.13      0.00
   -9   22    3     -2.97      0.00
   -8   22    3      0.57      0.00
   -7   22    3     -1.74      0.00
   -6   22    3      1.54      0.00
   -5   22    3     -1.41      0.00
   -4   22    3     -2.55      0.00
   -3   22    3      1.83      0.00
   -2   22    3      0.65      0.00
   -1   22    3      1.61      0.00
    0   22    3      2.84      0.00
    1   22    3     -1.22      0.00
    2   22    3      2.31      0.00
    3   22    3      2.04      0.00
    4   22    3      0.72      0.00
    5   22    3     -2.92      0.00
    6   22    3      1.49      0.00
    7   22    3     -0.32      0.00
    8   22    3      0.26      0.00
    9   22    3      1.06      0.00
   10   22    3      0.06      0.00
   11   22    3      1.30      0.00
   12   22    3     -0.13      0.00
   13   22    3      0.85      0.00
   14   22    3      1.15      0.00
   15   22    3     -0.71      0.00
   16   22    3     -1.10      0.00
  -16   23    3      0.71      0.00
  -15   23    3      0.51      0.00
  -14   23    3     -1.26      0.00
  -13   23    3      0.43      0.00
  -12   23    3     -0.53      0.00
  -11   23    3     -0.09      0.00
  -10   23    3      2.34      0.00
   -9   23    3      0.12      0.00
   -8   23    3      0.04      0.00
   -7   23    3     -1.78      0.00
   -6   23    3      0.24      0.00
   -5   23    3     -0.75      0.00
   -4   23    3      2.79      0.00
   -3   23    3      0.01      0.00
   -2   23    3     -2.60      0.00
   -1   23    3     -2.74      0.00
    0   23    3     -0.32      0.00
    1   23    3     -2.24      0.00
    2   23    3     -4.41      0.00
    3   23    3     -2.17      0.00
    4   23    3     -0.37      0.00
    5   23    3      0.55      0.00
    6   23    3      1.16      0.00
    7   23    3     -0.58      0.00
    8   23    3     -0.38      0.00
    9   23    3     -1.51      0.00
   10   23    3     -0.07      0.00
   11   23    3     -1.21      0.00
   12   23    3      0.31      0.00
   13   23    3      2.00      0.00
   14   23    3     -0.06      0.00
   15   23    3      0.09      0.00
   16   23    3      0.29      0.00
  -16   24    3      0.18      0.00
  -15   24    3     -0.07      0.00
  -14   24    3      0.36      0.00
  -13   24    3      1.16      0.00
  -12   24    3     -0.48      0.00
  -11   24    3      2.34      0.00
  -10   24    3     -0.33      0.00
   -9   24    3     -1.23      0.00
   -8   24    3     -1.17      0.00
   -7   24    3     -2.14      0.00
   -6   24    3      0.34      0.00
   -5   24    3     -3.11      0.00
   -4   24    3     -0.72      0.00
   -3   24    3     -1.76      0.00
   -2   24    3     -0.05      0.00
   -1   24    3      0.96      0.00
    0   24    3      1.60      0.00
    1   24    3     -1.15      0.00
    2   24    3      0.99      0.00
    3   24    3      2.39      0.00
    4   24    3      0.49      0.00
    5   24    3     -0.64      0.00
    6   24    3      0.75      0.00
    7   24    3      0.28      0.00
    8   24    3     -0.14      0.00
    9   24    3      1.88      0.00
   10   24    3      0.55      0.00
   11   24    3      0.22      0.00
   12   24    3      0.38      0.00
   13   24    3     -0.19      0.00
   14   24    3      0.11      0.00
   15   24    3     -0.82      0.00
   16   24    3     -1.26      0.00
  -15   25    3     -0.64      0.00
  -14   25    3     -0.45      0.00
  -13   25    3     -0.13      0.00
  -12   25    3     -0.74      0.00
  -11   25    3      0.20      0.00
  -10   25    3      1.87      0.00
   -9   25    3      0.64      0.00
   -8   25    3      2.69      0.00
   -7   25    3     -1.31      0.00
   -6   25    3      0.77      0.00
   -5   25    3     -1.95      0.00
   -4   25    3      4.36      0.00
   -3   25    3     -1.30      0.00
   -2   25    3      1.92      0.00
   -1   25    3     -0.43      0.00
    0   25    3      0.53      0.00
    1   25    3      1.88      0.00
    2   25    3     -2.18      0.00
    3   25    3      1.35      0.00
    4   25    3      0.51      0.00
    5   25    3      1.36      0.00
    6   25    3      1.29      0.00
    7   25    3     -1.03      0.00
    8   25    3      1.45      0.00
    9   25    3     -0.44      0.00
   10   25    3      0.31      0.00
   11   25    3      0.51      0.00
   12   25    3      0.01      0.00
   13   25    3      2.18      0.00
   14   25    3     -0.08      0.00
   15   25    3      1.37      0.00
  -15   26    3      0.37      0.00
  -14   26    3      0.21      0.00
  -13   26    3      0.15      0.00
  -12   26    3      0.06      0.00
  -11   26    3      2.33      0.00
  -10   26    3     -0.42      0.00
   -9   26    3      0.76      0.00
   -8   26    3     -2.21      0.00
   -7   26    3     -1.62      0.00
   -6   26    3     -0.74      0.00
   -5   26    3     -1.80      0.00
   -4   26    3      0.37      0.00
   -3   26    3     -1.88      0.00
   -2   26    3      1.36      0.00
   -1   26    3     -1.32      0.00
    0   26    3      1.88      0.00
    1   26    3     -1.22      0.00
    2   26    3     -0.45      0.00
    3   26    3      2.76      0.00
    4   26    3     -0.29      0.00
    5   26    3      1.04      0.00
    6   26    3     -0.91      0.00
    7   26    3      1.11      0.00
    8   26    3     -0.94      0.00
    9   26    3      1.05      0.00
   10   26    3      1.50      0.00
   11   26    3     -0.72      0.00
   12   26    3      0.69      0.00
   13   26    3     -0.33      0.00
   14   26    3     -0.19      0.00
   15   26    3      0.07      0.00
  -15   27    3     -1.15      0.00
  -14   27    3     -0.52      0.00
  -13   27    3     -0.59      0.00
  -12   27    3     -0.39      0.00
  -11   27    3     -0.93      0.00
  -10   27    3      1.02      0.00
   -9   27    3      0.64      0.00
   -8   27    3      1.68      0.00
   -7   27    3      0.65      0.00
   -6   27    3     -1.51      0.00
   -5   27    3      0.45      0.00
   -4   27    3      1.12      0.00
   -3   27    3      0.37      0.00
   -2   27    3      2.61      0.00
   -1   27    3     -0.48      0.00
    0   27    3      2.89      0.00
    1   27    3      1.12      0.00
    2   27    3      1.58      0.00
    3   27    3      1.80      0.00
    4   27    3      1.17      0.00
    5   27    3      1.00      0.00
    6   27    3      0.12      0.00
    7   27    3      0.26      0.00
    8   27    3     -0.45      0.00
    9   27    3      2.28      0.00
   10   27    3     -1.21      0.00
   11   27    3      1.50      0.00
   12   27    3     -0.17      0.00
   13   27    3      0.78      0.00
   14   27    3     -0.06      0.00
  -14   28    3     -0.30      0.00
  -13   28    3     -0.52      0.00
  -12   28    3      0.31      0.00
  -11   28    3      0.21      0.00
  -10   28    3      0.79      0.00
   -9   28    3      0.02      0.00
   -8   28    3     -0.44      0.00
   -7   28    3     -2.01      0.00
   -6   28    3     -0.35      0.00
   -5   28    3      0.53      0.00
   -4   28    3     -0.55      0.00
   -3   28    3      2.24      0.00
   -2   28    3     -0.01      0.00
   -1   28    3     -0.14      0.00
    0   28    3      1.23      0.00
    1   28    3     -0.91      0.00
    2   28    3     -0.01      0.00
    3   28    3      0.44      0.00
    4   28    3      1.20      0.00
    5   28    3     -0.92      0.00
    6   28    3      0.08      0.00
    7   28    3     -0.07      0.00
    8   28    3     -0.27      0.00
    9   28    3     -0.29      0.00
   10   28    3      1.28      0.00
   11   28    3     -0.09      0.00
   12   28    3      0.22      0.00
   13   28    3     -0.15      0.00
   14   28    3      0.40      0.00
  -14   29    3     -1.05      0.00
  -13   29    3     -0.13      0.00
  -12   29    3     -0.59      0.00
  -11   29    3     -1.70      0.00
  -10   29    3      0.45      0.00
   -9   29    3     -0.19      0.00
   -8   29    3      0.31      0.00
   -7   29    3      0.66      0.00
   -6   29    3     -1.54      0.00
   -5   29    3      0.38      0.00
   -4   29    3     -1.16      0.00
   -3   29    3      1.99      0.00
   -2   29    3     -0.55      0.00
   -1   29    3     -0.04      0.00
    0   29    3      2.11      0.00
    1   29    3     -0.16      0.00
    2   29    3      1.42      0.00
    3   29    3      1.54      0.00
    4   29    3      0.14      0.00
    5   29    3     -0.11      0.00
    6   29    3     -0.69      0.00
    7   29    3      0.71      0.00
    8   29    3     -2.39      0.00
    9   29    3      2.51      0.00
   10   29    3     -1.67      0.00
   11   29    3      1.41      0.00
   12   29    3     -0.54      0.00
   13   29    3      0.22      0.00
  -13   30    3     -0.18      0.00
  -12   30    3     -0.06      0.00
  -11   30    3     -0.35      0.00
  -10   30    3      1.44      0.00
   -9   30    3     -0.54      0.00
   -8   30    3      1.50      0.00
   -7   30    3     -1.67      0.00
   -6   30    3      0.67      0.00
   -5   30    3      0.53      0.00
   -4   30    3     -0.12      0.00
   -3   30    3      3.59      0.00
   -2   30    3     -1.83      0.00
   -1   30    3      1.95      0.00
    0   30    3     -0.25      0.00
    1   30    3     -0.08      0.00
    2   30    3      1.20      0.00
    3   30    3     -1.20      0.00
    4   30    3      1.98      0.00
    5   30    3     -2.20      0.00
    6   30    3      1.25      0.00
    7   30    3     -1.12      0.00
    8   30    3      0.36      0.00
    9   30    3     -0.94      0.00
   10   30    3      0.21      0.00
   11   30    3      0.51      0.00
   12   30    3     -0.23      0.00
   13   30    3     -0.29      0.00
  -13   31    3     -0.17      0.00
  -12   31    3     -0.23      0.00
  -11   31    3     -1.55      0.00
  -10   31    3     -0.10      0.00
   -9   31    3     -0.50      0.00
   -8   31    3     -0.28      0.00
   -7   31    3     -0.03      0.00
   -6   31    3     -0.06      0.00
   -5   31    3     -1.37      0.00
   -4   31    3     -0.26      0.00
   -3   31    3      0.93      0.00
   -2   31    3     -1.84      0.00
   -1   31    3      0.64      0.00
    0   31    3      0.15      0.00
    1   31    3      0.38      0.00
    2   31    3     -0.82      0.00
    3   31    3      1.26      0.00
    4   31    3     -0.80      0.00
    5   31    3     -0.34      0.00
    6   31    3     -0.95      0.00
    7   31    3      0.65      0.00
    8   31    3     -2.37      0.00
    9   31    3      0.36      0.00
   10   31    3     -1.01      0.00
   11   31    3      1.04      0.00
   12   31    3     -1.23      0.00
  -12   32    3      0.07      0.00
  -11   32    3      0.43      0.00
  -10   32    3      0.96      0.00
   -9   32    3      0.60      0.00
   -8   32    3      1.72      0.00
   -7   32    3      0.06      0.00
   -6   32    3      0.89      0.00
   -5   32    3     -0.79      0.00
   -4   32    3      1.11      0.00
   -3   32    3      0.90      0.00
   -2   32    3     -1.58      0.00
   -1   32    3      0.93      0.00
    0   32    3     -0.60      0.00
    1   32    3      0.53      0.00
    2   32    3      1.51      0.00
    3   32    3     -0.36      0.00
    4   32    3      0.65      0.00
    5   32    3     -0.77      0.00
    6   32    3      0.22      0.00
    7   32    3      0.02      0.00
    8   32    3     -0.48      0.00
    9   32    3     -0.61      0.00
   10   32    3     -0.32      0.00
   11   32    3      0.33      0.00
   12   32    3     -0.32      0.00
  -11   33    3     -1.07      0.00
  -10   33    3     -0.58      0.00
   -9   33    3      0.13      0.00
   -8   33    3     -0.45      0.00
   -7   33    3      0.66      0.00
   -6   33    3     -0.10      0.00
   -5   33    3     -0.95      0.00
   -4   33    3      1.07      0.00
   -3   33    3     -0.45      0.00
   -2   33    3      0.29      0.00
   -1   33    3      0.87      0.00
    0   33    3      0.73      0.00
    1   33    3      1.14      0.00
    2   33    3     -1.04      0.00
    3   33    3      0.19      0.00
    4   33    3     -0.04      0.00
    5   33    3      0.10      0.00
    6   33    3     -1.01      0.00
    7   33    3      0.58      0.00
    8   33    3     -1.43      0.00
    9   33    3     -1.52      0.00
   10   33    3     -0.46      0.00
   11   33    3      0.42      0.00
  -11   34    3      0.30      0.00
  -10   34    3      0.22      0.00
   -9   34    3      1.33      0.00
   -8   34    3      1.12      0.00
   -7   34    3      0.68      0.00
   -6   34    3      0.73      0.00
   -5   34    3     -1.27      0.00
   -4   34    3      0.59      0.00
   -3   34    3     -1.00      0.00
   -2   34    3     -0.67      0.00
   -1   34    3     -2.24      0.00
    0   34    3      0.38      0.00
    1   34    3      0.55      0.00
    2   34    3      0.95      0.00
    3   34    3      0.71      0.00
    4   34    3     -0.30      0.00
    5   34    3      0.43      0.00
    6   34    3     -1.19      0.00
    7   34    3      1.69      0.00
    8   34    3     -1.44      0.00
    9   34    3     -0.05      0.00
   10   34    3     -0.15      0.00
   11   34    3      0.24      0.00
  -10   35    3     -0.55      0.00
   -9   35    3      0.80      0.00
   -8   35    3     -0.10      0.00
   -7   35    3      1.46      0.00
   -6   35    3     -0.83      0.00
   -5   35    3      0.46      0.00
   -4   35    3      1.01      0.00
   -3   35    3      0.12      0.00
   -2   35    3      1.38      0.00
   -1   35    3      1.12      0.00
    0   35    3      2.45      0.00
    1   35    3      0.77      0.00
    2   35    3     -0.13      0.00
    3   35    3     -0.79      0.00
    4   35    3      1.14      0.00
    5   35    3      0.12      0.00
    6   35    3     -0.51      0.00
    7   35    3      0.09      0.00
    8   35    3     -0.23      0.00
    9   35    3     -1.74      0.00
   10   35    3      0.01      0.00
   -9   36    3      0.99      0.00
   -8   36    3      0.47      0.00
   -7   36    3     -0.43      0.00
   -6   36    3      0.94      0.00
   -5   36    3     -1.01      0.00
   -4   36    3     -0.59      0.00
   -3   36    3     -0.41      0.00
   -2   36    3     -0.59      0.00
   -1   36    3     -3.91      0.00
    0   36    3      1.01      0.00
    1   36    3      0.53      0.00
    2   36    3      0.08      0.00
    3   36    3      0.51      0.00
    4   36    3      0.07      0.00
    5   36    3     -0.07      0.00
    6   36    3     -1.27      0.00
    7   36    3      1.70      0.00
    8   36    3     -0.91      0.00
    9   36    3     -0.01      0.00
   -8   37    3      0.53      0.00
   -7   37    3      1.15      0.00
   -6   37    3     -0.45      0.00
   -5   37    3      0.34      0.00
   -4   37    3      0.58      0.00
   -3   37    3      1.27      0.00
   -2   37    3     -0.58      0.00
   -1   37    3      1.15      0.00
    0   37    3      2.39      0.00
    1   37    3     -0.25      0.00
    2   37    3     -0.64      0.00
    3   37    3     -0.48      0.00
    4   37    3      1.16      0.00
    5   37    3     -0.05      0.00
    6   37    3      0.16      0.00
    7   37    3     -0.37      0.00
    8   37    3      0.73      0.00
   -7   38    3     -0.98      0.00
   -6   38    3      0.87      0.00
   -5   38    3     -0.52      0.00
   -4   38    3     -0.33      0.00
   -3   38    3      0.35      0.00
   -2   38    3     -0.82      0.00
   -1   38    3     -2.74      0.00
    0   38    3      0.62      0.00
    1   38    3      0.71      0.00
    2   38    3     -0.51      0.00
    3   38    3     -0.03      0.00
    4   38    3      0.34      0.00
    5   38    3     -0.63      0.00
    6   38    3     -0.62      0.00
    7   38    3      0.52      0.00
   -6   39    3      0.36      0.00
   -5   39    3     -0.19      0.00
   -4   39    3      0.61      0.00
   -3   39    3      1.33      0.00
   -2   39    3     -2.50      0.00
   -1   39    3      0.55      0.00
    0   39    3      0.84      0.00
    1   39    3     -0.78      0.00
    2   39    3     -1.83      0.00
    3   39    3      0.39      0.00
    4   39    3      0.63      0.00
    5   39    3      0.11      0.00
    6   39    3      0.01      0.00
   -4   40    3      0.57      0.00
   -3   40    3      0.15      0.00
   -2   40    3     -0.63      0.00
   -1   40    3     -0.47      0.00
    0   40    3      0.36      0.00
    1   40    3      0.70      0.00
    2   40    3     -0.31      0.00
    3   40    3     -0.01      0.00
    4   40    3      0.21      0.00
   -1   41    3     -0.14      0.00
    0   41    3     -0.45      0.00
    1   41    3     -0.44      0.00
  -19    0    4     -0.44      0.00
  -18    0    4     -0.20      0.00
  -17    0    4      1.41      0.00
  -16    0    4      0.12      0.00
  -15    0    4     -1.75      0.00
  -14    0    4      0.34      0.00
  -13    0    4     -2.96      0.00
  -12    0    4      1.44      0.00
   -9    0    4     -0.12      0.00
   -8    0    4      0.61      0.00
   -7    0    4      5.97      0.00
   -6    0    4    -13.67      0.00
   -5    0    4     17.46      0.00
   -4    0    4      3.33      0.00
   -3    0    4     12.40      0.00
   -2    0    4    -35.19      0.00
   -1    0    4    -20.66      0.00
    0    0    4     11.01      0.00
    1    0    4    -13.38      0.00
    2    0    4     21.94      0.00
    3    0    4    -17.17      0.00
    4    0    4     17.45      0.00
    5    0    4     -4.42      0.00
    6    0    4     -5.99      0.00
    7    0    4      8.01      0.00
    8    0    4     -5.92      0.00
    9    0    4      7.55      0.00
   10    0    4     -5.63      0.00
   11    0    4      2.43      0.00
   12    0    4     -0.87      0.00
   13    0    4      0.80      0.00
   14    0    4      2.06      0.00
   15    0    4     -1.95      0.00
   16    0    4      0.12      0.00
   17    0    4     -0.46      0.00
   18    0    4     -1.09      0.00
   19    0    4     -0.62      0.00
  -19    1    4     -0.33      0.00
  -18    1    4     -0.62      0.00
  -17    1    4     -0.04      0.00
  -16    1    4     -0.07      0.00
  -15    1    4     -0.26      0.00
  -14    1    4     -0.14      0.00
  -13    1    4      0.31      0.00
  -12    1    4     -0.96      0.00
  -11    1    4      0.76      0.00
  -10    1    4     -0.18      0.00
   -9    1    4     -1.61      0.00
   -8    1    4      1.95      0.00
   -7    1    4     -1.02      0.00
   -6    1    4      6.01      0.00
   -5    1    4     10.21      0.00
   -4    1    4      2.46      0.00
   -3    1    4      2.66      0.00
   -2    1    4    -11.46      0.00
   -1    1    4     11.67      0.00
    0    1    4     -7.48      0.00
    1    1    4     14.67      0.00
    2    1    4     -1.89      0.00
    4    1    4      7.85      0.00
    5    1    4     -2.53      0.00
    6    1    4      5.32      0.00
    7    1    4      0.67      0.00
    8    1    4     -0.78      0.00
    9    1    4      1.35      0.00
   10    1    4     -2.58      0.00
   11    1    4      0.99      0.00
   12    1    4     -0.59      0.00
   13    1    4      0.75      0.00
   14    1    4     -0.55      0.00
   15    1    4     -0.45      0.00
   16    1    4      0.59      0.00
   17    1    4      0.30      0.00
   18    1    4      0.29      0.00
   19    1    4      2.48      0.00
  -19    2    4     -0.55      0.00
  -18    2    4      0.09      0.00
  -17    2    4      1.38      0.00
  -16    2    4     -0.42      0.00
  -15    2    4     -0.81      0.00
  -14    2    4     -0.43      0.00
  -13    2    4     -1.24      0.00
  -12    2    4     -0.46      0.00
  -11    2    4     -1.39      0.00
  -10    2    4      0.92      0.00
   -9    2    4      1.14      0.00
   -8    2    4      2.91      0.00
   -7    2    4      1.50      0.00
   -6    2    4     -4.05      0.00
   -5    2    4      4.69      0.00
   -4    2    4      9.58      0.00
   -3    2    4     -0.11      0.00
   -2    2    4    -27.13      0.00
   -1    2    4    -13.82      0.00
    0    2    4     -7.17      0.00
    1    2    4     -0.40      0.00
    2    2    4     -6.77      0.00
    3    2    4     -4.01      0.00
    4    2    4      6.60      0.00
    5    2    4     -2.19      0.00
    6    2    4     -3.03      0.00
    7    2    4      1.14      0.00
    8    2    4     -0.13      0.00
    9    2    4      1.80      0.00
   10    2    4     -2.12      0.00
   11    2    4      0.95      0.00
   12    2    4     -0.35      0.00
   13    2    4      0.37      0.00
   14    2    4      0.69      0.00
   15    2    4     -0.62      0.00
   16    2    4     -0.51      0.00
   17    2    4      0.16      0.00
   18    2    4     -0.47      0.00
   19    2    4     -0.51      0.00
  -19    3    4     -0.63      0.00
  -18    3    4     -1.01      0.00
  -17    3    4     -0.48      0.00
  -16    3    4      0.28      0.00
  -15    3    4     -0.72      0.00
  -14    3    4     -0.28      0.00
  -13    3    4      0.21      0.00
  -12    3    4     -2.29      0.00
  -11    3    4      2.01      0.00
  -10    3    4     -2.76      0.00
   -9    3    4     -0.23      0.00
   -8    3    4     -0.11      0.00
   -7    3    4     -0.56      0.00
   -6    3    4     11.18      0.00
   -5    3    4     22.43      0.00
   -4    3    4      9.32      0.00
   -3    3    4     -4.58      0.00
   -2    3    4    -13.68      0.00
   -1    3    4      5.71      0.00
    0    3    4     -6.71      0.00
    1    3    4     26.15      0.00
    2    3    4     -4.51      0.00
    3    3    4     -0.98      0.00
    4    3    4     10.35      0.00
    5    3    4      4.26      0.00
    6    3    4      4.89      0.00
    7    3    4      5.97      0.00
    8    3    4     -2.20      0.00
    9    3    4      2.58      0.00
   10    3    4     -3.63      0.00
   11    3    4      1.45      0.00
   12    3    4      0.12      0.00
   13    3    4      1.11      0.00
   14    3    4     -0.11      0.00
   15    3    4     -1.26      0.00
   16    3    4      1.15      0.00
   17    3    4      0.69      0.00
   18    3    4      0.46      0.00
   19    3    4      4.78      0.00
  -19    4    4     -0.51      0.00
  -18    4    4      0.50      0.00
  -17    4    4      1.11      0.00
  -16    4    4     -1.15      0.00
  -15    4    4      0.42      0.00
  -14    4    4     -1.61      0.00
  -13    4    4      0.94      0.00
  -12    4    4     -2.99      0.00
  -11    4    4      1.19      0.00
  -10    4    4     -4.03      0.00
   -9    4    4      2.23      0.00
   -8    4    4      4.76      0.00
   -7    4    4     -3.24      0.00
   -6    4    4     10.17      0.00
   -5    4    4    -11.68      0.00
   -4    4    4     14.13      0.00
   -3    4    4    -15.25      0.00
   -2    4    4     -9.72      0.00
   -1    4    4     -1.06      0.00
    0    4    4    -28.09      0.00
    1    4    4     11.19      0.00
    2    4    4    -47.48      0.00
    3    4    4     11.38      0.00
    4    4    4     -9.30      0.00
    5    4    4      1.02      0.00
    6    4    4     -1.04      0.00
    7    4    4     -7.33      0.00
    8    4    4      5.19      0.00
    9    4    4     -6.00      0.00
   10    4    4      2.40      0.00
   11    4    4     -1.03      0.00
   12    4    4      0.26      0.00
   13    4    4     -0.25      0.00
   14    4    4     -1.35      0.00
   15    4    4      1.32      0.00
   16    4    4     -0.62      0.00
   17    4    4      1.07      0.00
   18    4    4      0.92      0.00
   19    4    4     -0.45      0.00
  -19    5    4      0.00      0.00
  -18    5    4     -0.22      0.00
  -17    5    4     -0.82      0.00
  -16    5    4      1.46      0.00
  -15    5    4     -0.56      0.00
  -14    5    4      0.38      0.00
  -13    5    4     -0.65      0.00
  -12    5    4     -1.70      0.00
  -11    5    4      1.27      0.00
  -10    5    4     -5.72      0.00
   -9    5    4      4.25      0.00
   -8    5    4     -7.81      0.00
   -7    5    4      0.41      0.00
   -6    5    4      4.38      0.00
   -5    5    4     19.06      0.00
   -4    5    4     11.53      0.00
   -3    5    4    -19.72      0.00
   -2    5    4      4.34      0.00
   -1    5    4    -31.03      0.00
    0    5    4      7.20      0.00
    1    5    4     13.34      0.00
    2    5    4     -2.26      0.00
    3    5    4     10.91      0.00
    4    5    4      1.09      0.00
    5    5    4     19.83      0.00
    6    5    4     -5.57      0.00
    7    5    4     11.44      0.00
    8    5    4     -1.93      0.00
    9    5    4      0.96      0.00
   10    5    4      0.19      0.00
   11    5    4     -0.21      0.00
   12    5    4      1.99      0.00
   13    5    4     -0.07      0.00
   14    5    4      1.25      0.00
   15    5    4     -1.22      0.00
   16    5    4      0.25      0.00
   17    5    4      0.66      0.00
   18    5    4      0.15      0.00
   19    5    4      2.36      0.00
  -19    6    4     -0.35      0.00
  -18    6    4      0.05      0.00
  -17    6    4      0.64      0.00
  -16    6    4     -1.21      0.00
  -15    6    4      0.34      0.00
  -14    6    4     -1.44      0.00
  -13    6    4      0.77      0.00
  -12    6    4     -1.74      0.00
  -11    6    4     -1.54      0.00
  -10    6    4     -3.51      0.00
   -9    6    4      0.16      0.00
   -8    6    4      1.30      0.00
   -7    6    4      0.15      0.00
   -6    6    4     11.42      0.00
   -5    6    4     -7.11      0.00
   -4    6    4      3.82      0.00
   -3    6    4     -7.89      0.00
   -2    6    4      3.77      0.00
   -1    6    4      6.05      0.00
    0    6    4    -13.76      0.00
    1    6    4     -4.45      0.00
    2    6    4    -43.35      0.00
    3    6    4      4.21      0.00
    4    6    4     -8.39      0.00
    5    6    4      1.76      0.00
    6    6    4     -4.12      0.00
    7    6    4     -2.60      0.00
    8    6    4     -0.24      0.00
    9    6    4     -4.12      0.00
   10    6    4      1.86      0.00
   11    6    4     -0.77      0.00
   12    6    4      0.23      0.00
   13    6    4     -0.84      0.00
   14    6    4     -1.34      0.00
   15    6    4      0.73      0.00
   16    6    4      0.82      0.00
   17    6    4      0.93      0.00
   18    6    4      1.46      0.00
   19    6    4     -0.73      0.00
  -19    7    4      1.06      0.00
  -18    7    4      0.54      0.00
  -17    7    4     -0.35      0.00
  -16    7    4      2.00      0.00
  -15    7    4      0.49      0.00
  -14    7    4      1.34      0.00
  -13    7    4     -0.87      0.00
  -12    7    4      0.45      0.00
  -11    7    4     -2.10      0.00
  -10    7    4     -2.54      0.00
   -9    7    4      1.64      0.00
   -8    7    4     -7.00      0.00
   -7    7    4     -3.62      0.00
   -6    7    4     -4.33      0.00
   -5    7    4      8.01      0.00
   -4    7    4      0.51      0.00
   -2    7    4      3.60      0.00
   -1    7    4    -40.29      0.00
    0    7    4      0.24      0.00
    1    7    4      3.13      0.00
    2    7    4      4.79      0.00
    3    7    4     12.65      0.00
    5    7    4     16.48      0.00
    6    7    4     -4.04      0.00
    7    7    4      5.11      0.00
    8    7    4      1.34      0.00
    9    7    4     -1.34      0.00
   10    7    4      2.09      0.00
   11    7    4     -0.62      0.00
   12    7    4      1.13      0.00
   13    7    4     -0.40      0.00
   14    7    4      0.55      0.00
   15    7    4      0.17      0.00
   16    7    4     -1.50      0.00
   17    7    4      0.26      0.00
   18    7    4     -0.18      0.00
   19    7    4     -1.77      0.00
  -19    8    4     -0.54      0.00
  -18    8    4     -1.04      0.00
  -17    8    4      0.29      0.00
  -16    8    4     -0.69      0.00
  -15    8    4      0.05      0.00
  -14    8    4     -0.18      0.00
  -13    8    4      0.46      0.00
  -12    8    4      1.37      0.00
  -11    8    4     -3.88      0.00
  -10    8    4      0.65      0.00
   -9    8    4     -3.13      0.00
   -8    8    4     -3.36      0.00
   -7    8    4      2.65      0.00
   -6    8    4      6.51      0.00
   -5    8    4      4.14      0.00
   -4    8    4     -5.44      0.00
   -3    8    4      7.54      0.00
   -1    8    4      7.16      0.00
    0    8    4     12.97      0.00
    1    8    4    -18.28      0.00
    2    8    4    -14.60      0.00
    3    8    4     -5.80      0.00
    4    8    4      2.82      0.00
    5    8    4      1.77      0.00
    6    8    4     -3.22      0.00
    7    8    4      7.13      0.00
    8    8    4     -3.90      0.00
    9    8    4      1.80      0.00
   10    8    4      0.64      0.00
   11    8    4      0.12      0.00
   12    8    4      0.31      0.00
   13    8    4     -1.62      0.00
   14    8    4     -0.04      0.00
   15    8    4     -1.41      0.00
   16    8    4      1.37      0.00
   17    8    4      0.48      0.00
   18    8    4      0.06      0.00
   19    8    4     -1.03      0.00
  -19    9    4      1.43      0.00
  -18    9    4      0.37      0.00
  -17    9    4      0.12      0.00
  -16    9    4      0.81      0.00
  -15    9    4      1.30      0.00
  -14    9    4      1.18      0.00
  -13    9    4      0.30      0.00
  -12    9    4      1.58      0.00
  -11    9    4     -4.13      0.00
  -10    9    4      3.81      0.00
   -9    9    4     -5.49      0.00
   -8    9    4      3.72      0.00
   -7    9    4     -7.80      0.00
   -6    9    4     -4.24      0.00
   -5    9    4     -1.50      0.00
   -4    9    4    -11.15      0.00
   -3    9    4     12.46      0.00
   -2    9    4    -13.61      0.00
   -1    9    4    -11.25      0.00
    0    9    4    -22.88      0.00
    1    9    4      6.53      0.00
    2    9    4      9.41      0.00
    3    9    4      2.29      0.00
    4    9    4     16.29      0.00
    5    9    4     -3.04      0.00
    6    9    4      7.57      0.00
    7    9    4     -7.15      0.00
    8    9    4      4.20      0.00
    9    9    4     -1.33      0.00
   10    9    4      0.50      0.00
   11    9    4      1.35      0.00
   12    9    4     -1.20      0.00
   13    9    4      0.82      0.00
   14    9    4     -1.00      0.00
   15    9    4      1.32      0.00
   16    9    4     -1.96      0.00
   17    9    4     -0.28      0.00
   18    9    4     -0.23      0.00
  -19   10    4     -0.69      0.00
  -18   10    4     -1.28      0.00
  -17   10    4      0.16      0.00
  -16   10    4      0.31      0.00
  -15   10    4      0.32      0.00
  -14   10    4      0.92      0.00
  -13   10    4      1.21      0.00
  -12   10    4      1.72      0.00
  -11   10    4     -0.93      0.00
  -10   10    4      1.08      0.00
   -9   10    4     -3.85      0.00
   -8   10    4     -5.25      0.00
   -7   10    4     -3.35      0.00
   -6   10    4      5.44      0.00
   -5   10    4      2.89      0.00
   -4   10    4      0.98      0.00
   -3   10    4      9.53      0.00
   -2   10    4      7.51      0.00
   -1   10    4      6.39      0.00
    0   10    4     17.32      0.00
    1   10    4     -3.94      0.00
    2   10    4     -4.42      0.00
    3   10    4      1.48      0.00
    4   10    4      6.69      0.00
    5   10    4      2.22      0.00
    6   10    4      3.88      0.00
    7   10    4      7.12      0.00
    8   10    4      2.19      0.00
    9   10    4      1.55      0.00
   10   10    4      1.96      0.00
   11   10    4     -0.33      0.00
   12   10    4      0.49      0.00
   13   10    4     -1.53      0.00
   14   10    4      0.10      0.00
   15   10    4     -1.28      0.00
   16   10    4     -0.10      0.00
   17   10    4      0.97      0.00
   18   10    4     -1.43      0.00
  -19   11    4      1.06      0.00
  -18   11    4     -0.11      0.00
  -17   11    4     -0.16      0.00
  -16   11    4     -0.38      0.00
  -15   11    4      0.86      0.00
  -14   11    4      0.50      0.00
  -13   11    4      1.72      0.00
  -12   11    4      0.87      0.00
  -11   11    4     -1.64      0.00
  -10   11    4      3.68      0.00
   -9   11    4     -5.67      0.00
   -8   11    4      8.24      0.00
   -7   11    4     -4.86      0.00
   -6   11    4      1.02      0.00
   -5   11    4     -8.27      0.00
   -4   11    4     -8.29      0.00
   -3   11    4     19.97      0.00
   -2   11    4    -11.33      0.00
   -1   11    4      9.62      0.00
    0   11    4    -23.31      0.00
    1   11    4     10.18      0.00
    2   11    4      8.18      0.00
    3   11    4     -1.71      0.00
    4   11    4     12.04      0.00
    5   11    4     -8.93      0.00
    6   11    4      8.18      0.00
    7   11    4     -8.32      0.00
    8   11    4      2.03      0.00
    9   11    4      0.29      0.00
   10   11    4     -0.66      0.00
   11   11    4      1.81      0.00
   12   11    4     -1.19      0.00
   13   11    4      0.89      0.00
   14   11    4     -0.28      0.00
   15   11    4      0.62      0.00
   16   11    4     -0.72      0.00
   17   11    4     -0.12      0.00
   18   11    4     -0.04      0.00
  -18   12    4     -0.65      0.00
  -17   12    4     -0.01      0.00
  -16   12    4      1.29      0.00
  -15   12    4      0.20      0.00
  -14   12    4      1.72      0.00
  -13   12    4      0.71      0.00
  -12   12    4      0.70      0.00
  -11   12    4      2.45      0.00
  -10   12    4     -1.25      0.00
   -9   12    4     -1.01      0.00
   -8   12    4     -5.74      0.00
   -7   12    4     -7.95      0.00
   -6   12    4      1.69      0.00
   -5   12    4     -2.09      0.00
   -4   12    4      8.90      0.00
   -3   12    4      3.67      0.00
   -2   12    4      5.78      0.00
   -1   12    4      1.64      0.00
    0   12    4      7.38      0.00
    1   12    4     12.49      0.00
    2   12    4     -7.02      0.00
    3   12    4      9.25      0.00
    4   12    4      3.94      0.00
    5   12    4      1.73      0.00
    6   12    4      7.17      0.00
    7   12    4      1.00      0.00
    8   12    4      6.03      0.00
    9   12    4     -1.40      0.00
   10   12    4      1.30      0.00
   11   12    4     -0.73      0.00
   12   12    4     -0.46      0.00
   13   12    4     -0.23      0.00
   14   12    4     -1.28      0.00
   15   12    4      0.64      0.00
   16   12    4     -1.25      0.00
   17   12    4      1.34      0.00
   18   12    4     -1.03      0.00
  -18   13    4     -0.27      0.00
  -17   13    4     -0.74      0.00
  -16   13    4     -0.09      0.00
  -15   13    4     -0.71      0.00
  -14   13    4      0.08      0.00
  -13   13    4      1.53      0.00
  -12   13    4      0.21      0.00
  -11   13    4      1.62      0.00
  -10   13    4     -1.96      0.00
   -9   13    4      0.50      0.00
   -8   13    4      1.23      0.00
   -7   13    4      1.36      0.00
   -6   13    4      2.79      0.00
   -5   13    4    -11.36      0.00
   -4   13    4      0.56      0.00
   -3   13    4      6.77      0.00
   -2   13    4      7.87      0.00
   -1   13    4      4.66      0.00
    0   13    4      1.31      0.00
    1   13    4      6.90      0.00
    2   13    4      5.30      0.00
    3   13    4      3.36      0.00
    4   13    4     -3.00      0.00
    5   13    4      1.71      0.00
    6   13    4     -1.92      0.00
    7   13    4      0.77      0.00
    8   13    4     -2.22      0.00
    9   13    4      1.19      0.00
   10   13    4      0.23      0.00
   11   13    4     -0.13      0.00
   12   13    4      0.80      0.00
   13   13    4     -0.61      0.00
   14   13    4      1.66      0.00
   15   13    4     -0.78      0.00
   16   13    4     -0.03      0.00
   17   13    4      0.46      0.00
   18   13    4      0.03      0.00
  -18   14    4     -0.37      0.00
  -17   14    4     -0.04      0.00
  -16   14    4      1.01      0.00
  -15   14    4     -0.46      0.00
  -14   14    4      1.89      0.00
  -13   14    4     -1.15      0.00
  -12   14    4      1.21      0.00
  -11   14    4      1.00      0.00
  -10   14    4      0.00      0.00
   -9   14    4      2.04      0.00
   -8   14    4     -4.83      0.00
   -7   14    4     -3.00      0.00
   -6   14    4     -7.69      0.00
   -5   14    4      0.09      0.00
   -4   14    4      4.54      0.00
   -3   14    4      3.04      0.00
   -2   14    4      2.18      0.00
   -1   14    4     -5.37      0.00
    0   14    4      4.19      0.00
    1   14    4      5.70      0.00
    2   14    4     -0.57      0.00
    3   14    4      2.15      0.00
    4   14    4      3.63      0.00
    5   14    4     -0.04      0.00
    6   14    4      2.89      0.00
    7   14    4     -1.43      0.00
    8   14    4      0.35      0.00
    9   14    4     -0.55      0.00
   10   14    4     -2.35      0.00
   11   14    4     -0.18      0.00
   12   14    4     -1.59      0.00
   13   14    4      0.72      0.00
   14   14    4     -1.79      0.00
   15   14    4      1.00      0.00
   16   14    4     -0.11      0.00
   17   14    4      0.74      0.00
   18   14    4      0.27      0.00
  -18   15    4     -0.17      0.00
  -17   15    4     -0.81      0.00
  -16   15    4      0.58      0.00
  -15   15    4     -2.08      0.00
  -14   15    4     -0.87      0.00
  -13   15    4      0.07      0.00
  -12   15    4      0.32      0.00
  -11   15    4      1.45      0.00
  -10   15    4     -3.21      0.00
   -9   15    4      2.84      0.00
   -8   15    4     -4.27      0.00
   -7   15    4      2.55      0.00
   -6   15    4      0.89      0.00
   -5   15    4     -8.53      0.00
   -4   15    4      0.88      0.00
   -3   15    4     -2.11      0.00
   -2   15    4     11.74      0.00
   -1   15    4     -1.17      0.00
    0   15    4     15.69      0.00
    1   15    4      2.89      0.00
    2   15    4      3.67      0.00
    3   15    4      2.99      0.00
    4   15    4     -7.00      0.00
    5   15    4      6.22      0.00
    6   15    4     -4.93      0.00
    7   15    4      4.89      0.00
    8   15    4     -1.95      0.00
    9   15    4      1.25      0.00
   10   15    4      1.11      0.00
   11   15    4     -0.64      0.00
   12   15    4      1.57      0.00
   13   15    4     -1.08      0.00
   14   15    4      1.49      0.00
   15   15    4     -1.18      0.00
   16   15    4     -0.84      0.00
   17   15    4     -0.30      0.00
   18   15    4      0.00      0.00
  -18   16    4     -0.47      0.00
  -17   16    4      0.10      0.00
  -16   16    4     -0.55      0.00
  -15   16    4     -0.80      0.00
  -14   16    4      0.70      0.00
  -13   16    4     -1.40      0.00
  -12   16    4      0.79      0.00
  -11   16    4     -1.98      0.00
  -10   16    4      3.36      0.00
   -9   16    4      1.86      0.00
   -8   16    4     -0.23      0.00
   -7   16    4      3.06      0.00
   -6   16    4    -10.53      0.00
   -5   16    4      1.48      0.00
   -4   16    4     -1.56      0.00
   -3   16    4      5.06      0.00
   -2   16    4     -0.21      0.00
   -1   16    4     -5.19      0.00
    0   16    4      5.34      0.00
    1   16    4     -5.80      0.00
    2   16    4      8.08      0.00
    3   16    4     -5.59      0.00
    4   16    4      4.27      0.00
    5   16    4     -1.32      0.00
    6   16    4     -1.91      0.00
    7   16    4     -1.76      0.00
    8   16    4     -4.82      0.00
    9   16    4      0.62      0.00
   10   16    4     -2.98      0.00
   11   16    4     -0.01      0.00
   12   16    4     -0.82      0.00
   13   16    4      0.82      0.00
   14   16    4     -0.24      0.00
   15   16    4      0.29      0.00
   16   16    4      1.78      0.00
   17   16    4      0.42      0.00
   18   16    4      0.81      0.00
  -18   17    4      0.06      0.00
  -17   17    4     -0.06      0.00
  -16   17    4      0.73      0.00
  -15   17    4     -1.92      0.00
  -14   17    4     -1.93      0.00
  -13   17    4     -0.53      0.00
  -12   17    4      0.12      0.00
  -11   17    4      0.28      0.00
  -10   17    4      0.80      0.00
   -9   17    4      0.40      0.00
   -8   17    4     -1.86      0.00
   -7   17    4     -0.93      0.00
   -6   17    4     -1.01      0.00
   -5   17    4     -3.54      0.00
   -4   17    4     -3.49      0.00
   -3   17    4     -0.56      0.00
   -2   17    4     -1.31      0.00
   -1   17    4      2.98      0.00
    0   17    4      7.63      0.00
    1   17    4      2.22      0.00
    2   17    4      1.91      0.00
    3   17    4     -3.76      0.00
    4   17    4      0.32      0.00
    5   17    4      0.58      0.00
    6   17    4      1.00      0.00
    7   17    4      0.81      0.00
    8   17    4      1.55      0.00
    9   17    4      1.25      0.00
   10   17    4      0.27      0.00
   11   17    4      0.61      0.00
   12   17    4      0.50      0.00
   13   17    4     -0.52      0.00
   14   17    4     -0.80      0.00
   15   17    4     -1.04      0.00
   16   17    4     -1.41      0.00
   17   17    4     -2.22      0.00
  -17   18    4     -0.25      0.00
  -16   18    4     -1.86      0.00
  -15   18    4     -1.00      0.00
  -14   18    4     -0.52      0.00
  -13   18    4      0.22      0.00
  -12   18    4     -1.70      0.00
  -11   18    4     -1.28      0.00
  -10   18    4      3.09      0.00
   -9   18    4      0.05      0.00
   -8   18    4      5.78      0.00
   -7   18    4      2.62      0.00
   -6   18    4     -2.42      0.00
   -5   18    4     -3.44      0.00
   -4   18    4      0.54      0.00
   -3   18    4      2.44      0.00
   -2   18    4      1.81      0.00
   -1   18    4      2.27      0.00
    0   18    4      2.19      0.00
    1   18    4     -1.99      0.00
    2   18    4      7.12      0.00
    3   18    4     -1.03      0.00
    4   18    4      2.11      0.00
    5   18    4     -0.28      0.00
    6   18    4     -2.42      0.00
    7   18    4     -3.33      0.00
    8   18    4     -1.80      0.00
    9   18    4     -1.18      0.00
   10   18    4      0.83      0.00
   11   18    4     -0.09      0.00
   12   18    4      0.71      0.00
   13   18    4      0.79      0.00
   14   18    4      1.17      0.00
   15   18    4      0.72      0.00
   16   18    4      1.82      0.00
   17   18    4      0.74      0.00
  -17   19    4      0.86      0.00
  -16   19    4      0.55      0.00
  -15   19    4     -0.77      0.00
  -14   19    4     -1.86      0.00
  -13   19    4     -0.39      0.00
  -12   19    4     -0.55      0.00
  -11   19    4      0.78      0.00
  -10   19    4      2.37      0.00
   -9   19    4      0.39      0.00
   -8   19    4      0.98      0.00
   -7   19    4     -2.12      0.00
   -6   19    4     -2.18      0.00
   -5   19    4     -0.94      0.00
   -4   19    4     -2.45      0.00
   -3   19    4     -0.04      0.00
   -2   19    4     -7.48      0.00
   -1   19    4      4.62      0.00
    0   19    4     -3.06      0.00
    1   19    4      2.47      0.00
    2   19    4     -0.94      0.00
    3   19    4     -5.73      0.00
    4   19    4      3.82      0.00
    5   19    4     -1.44      0.00
    6   19    4      3.28      0.00
    7   19    4     -1.79      0.00
    8   19    4      2.16      0.00
    9   19    4      1.09      0.00
   10   19    4     -0.89      0.00
   11   19    4      0.46      0.00
   12   19    4     -0.03      0.00
   13   19    4     -0.73      0.00
   14   19    4     -2.21      0.00
   15   19    4     -0.97      0.00
   16   19    4     -0.86      0.00
   17   19    4     -2.73      0.00
  -17   20    4     -0.79      0.00
  -16   20    4     -1.94      0.00
  -15   20    4     -1.26      0.00
  -14   20    4     -0.04      0.00
  -13   20    4      0.68      0.00
  -12   20    4     -2.32      0.00
  -11   20    4      0.96      0.00
  -10   20    4     -0.17      0.00
   -9   20    4     -0.42      0.00
   -8   20    4      6.80      0.00
   -7   20    4      0.55      0.00
   -6   20    4      4.21      0.00
   -5   20    4     -5.79      0.00
   -4   20    4      3.03      0.00
   -3   20    4     -1.85      0.00
   -2   20    4      5.13      0.00
   -1   20    4      6.16      0.00
    0   20    4     -0.95      0.00
    1   20    4      6.00      0.00
    2   20    4      3.62      0.00
    3   20    4      6.18      0.00
    4   20    4      0.37      0.00
    5   20    4      1.80      0.00
    6   20    4     -1.24      0.00
    7   20    4     -3.24      0.00
    8   20    4      2.74      0.00
    9   20    4     -1.89      0.00
   10   20    4      2.92      0.00
   11   20    4      0.93      0.00
   12   20    4      0.67      0.00
   13   20    4      0.37      0.00
   14   20    4      1.09      0.00
   15   20    4      1.29      0.00
   16   20    4      0.46      0.00
   17   20    4      0.57      0.00
  -17   21    4      0.97      0.00
  -16   21    4      0.08      0.00
  -15   21    4      0.05      0.00
  -14   21    4     -1.34      0.00
  -13   21    4     -0.73      0.00
  -12   21    4     -0.56      0.00
  -11   21    4      0.38      0.00
  -10   21    4      0.21      0.00
   -9   21    4      2.74      0.00
   -8   21    4      0.53      0.00
   -7   21    4      0.44      0.00
   -6   21    4     -2.53      0.00
   -5   21    4      0.69      0.00
   -4   21    4      1.62      0.00
   -3   21    4     -0.97      0.00
   -2   21    4     -2.00      0.00
   -1   21    4      0.69      0.00
    0   21    4     -4.05      0.00
    1   21    4      1.97      0.00
    2   21    4     -2.91      0.00
    3   21    4     -2.35      0.00
    4   21    4      0.98      0.00
    5   21    4      1.69      0.00
    6   21    4     -0.25      0.00
    7   21    4      0.16      0.00
    8   21    4      0.19      0.00
    9   21    4      0.21      0.00
   10   21    4     -0.62      0.00
   11   21    4     -0.93      0.00
   12   21    4      0.56      0.00
   13   21    4     -1.02      0.00
   14   21    4     -1.55      0.00
   15   21    4     -0.45      0.00
   16   21    4     -0.09      0.00
  -16   22    4     -1.26      0.00
  -15   22    4     -0.79      0.00
  -14   22    4      0.97      0.00
  -13   22    4     -0.34      0.00
  -12   22    4     -0.08      0.00
  -11   22    4      0.59      0.00
  -10   22    4     -1.93      0.00
   -9   22    4     -0.33      0.00
   -8   22    4      1.88      0.00
   -7   22    4      1.20      0.00
   -6   22    4      2.21      0.00
   -5   22    4     -1.40      0.00
   -4   22    4     -0.43      0.00
   -3   22    4     -1.89      0.00
   -2   22    4      4.60      0.00
   -1   22    4      3.19      0.00
    0   22    4      0.18      0.00
    1   22    4      4.52      0.00
    2   22    4      4.32      0.00
    3   22    4      5.43      0.00
    4   22    4      0.91      0.00
    5   22    4      1.82      0.00
    6   22    4     -1.21      0.00
    7   22    4     -0.67      0.00
    8   22    4      1.80      0.00
    9   22    4      0.27      0.00
   10   22    4      0.89      0.00
   11   22    4      2.00      0.00
   12   22    4     -0.08      0.00
   13   22    4     -0.74      0.00
   14   22    4      0.83      0.00
   15   22    4      0.12      0.00
   16   22    4     -0.15      0.00
  -16   23    4     -0.36      0.00
  -15   23    4      0.23      0.00
  -14   23    4     -1.31      0.00
  -13   23    4     -0.64      0.00
  -12   23    4      0.15      0.00
  -11   23    4     -1.98      0.00
  -10   23    4     -0.77      0.00
   -9   23    4      1.84      0.00
   -8   23    4      0.82      0.00
   -7   23    4      1.88      0.00
   -6   23    4     -1.27      0.00
   -5   23    4      2.42      0.00
   -4   23    4      2.09      0.00
   -3   23    4      1.64      0.00
   -2   23    4      2.01      0.00
   -1   23    4     -0.43      0.00
    0   23    4     -1.35      0.00
    1   23    4      1.83      0.00
    2   23    4     -1.98      0.00
    3   23    4     -0.77      0.00
    4   23    4     -0.38      0.00
    5   23    4      1.76      0.00
    6   23    4     -1.76      0.00
    7   23    4      1.17      0.00
    8   23    4     -0.03      0.00
    9   23    4     -1.10      0.00
   10   23    4     -0.05      0.00
   11   23    4     -1.06      0.00
   12   23    4      0.52      0.00
   13   23    4     -0.15      0.00
   14   23    4     -0.28      0.00
   15   23    4      0.42      0.00
   16   23    4      0.63      0.00
  -16   24    4     -0.65      0.00
  -15   24    4      0.32      0.00
  -14   24    4      0.67      0.00
  -13   24    4     -0.37      0.00
  -12   24    4      1.31      0.00
  -11   24    4     -0.61      0.00
  -10   24    4     -1.22      0.00
   -9   24    4     -0.85      0.00
   -8   24    4     -2.77      0.00
   -7   24    4      1.53      0.00
   -6   24    4     -0.92      0.00
   -5   24    4      1.86      0.00
   -4   24    4     -3.57      0.00
   -3   24    4      0.34      0.00
   -2   24    4      0.57      0.00
   -1   24    4     -0.04      0.00
    0   24    4      0.86      0.00
    1   24    4     -0.96      0.00
    2   24    4      3.88      0.00
    3   24    4      0.75      0.00
    4   24    4      0.67      0.00
    5   24    4     -0.07      0.00
    6   24    4     -1.46      0.00
    7   24    4      1.03      0.00
    8   24    4     -1.13      0.00
    9   24    4      1.18      0.00
   10   24    4     -0.82      0.00
   11   24    4      1.23      0.00
   12   24    4     -0.13      0.00
   13   24    4     -1.34      0.00
   14   24    4      0.75      0.00
   15   24    4     -1.81      0.00
  -15   25    4     -0.10      0.00
  -14   25    4     -1.09      0.00
  -13   25    4      0.52      0.00
  -12   25    4      0.39      0.00
  -11   25    4     -2.64      0.00
  -10   25    4     -0.17      0.00
   -9   25    4     -1.35      0.00
   -8   25    4      2.35      0.00
   -7   25    4      0.96      0.00
   -6   25    4      0.70      0.00
   -5   25    4      2.03      0.00
   -4   25    4      0.73      0.00
   -3   25    4      3.35      0.00
   -2   25    4      0.92      0.00
   -1   25    4      1.76      0.00
    0   25    4     -0.82      0.00
    1   25    4      2.14      0.00
    2   25    4      0.35      0.00
    3   25    4     -1.50      0.00
    4   25    4      0.68      0.00
    5   25    4     -0.85      0.00
    6   25    4      0.01      0.00
    7   25    4     -0.11      0.00
    8   25    4      1.30      0.00
    9   25    4     -1.37      0.00
   10   25    4     -0.51      0.00
   11   25    4     -0.08      0.00
   12   25    4     -0.02      0.00
   13   25    4      0.83      0.00
   14   25    4      0.12      0.00
   15   25    4      0.72      0.00
  -15   26    4      0.93      0.00
  -14   26    4      0.00      0.00
  -13   26    4      0.50      0.00
  -12   26    4      0.86      0.00
  -11   26    4      0.14      0.00
  -10   26    4     -0.20      0.00
   -9   26    4     -0.91      0.00
   -8   26    4     -3.16      0.00
   -7   26    4      0.09      0.00
   -6   26    4      0.37      0.00
   -5   26    4      0.35      0.00
   -4   26    4     -1.45      0.00
   -3   26    4      0.25      0.00
   -2   26    4     -1.62      0.00
   -1   26    4     -0.24      0.00
    0   26    4     -0.96      0.00
    1   26    4     -1.96      0.00
    2   26    4     -0.08      0.00
    3   26    4     -1.37      0.00
    4   26    4     -1.11      0.00
    5   26    4     -1.12      0.00
    6   26    4     -0.94      0.00
    7   26    4      0.57      0.00
    8   26    4     -1.00      0.00
    9   26    4     -0.97      0.00
   10   26    4      0.07      0.00
   11   26    4     -0.48      0.00
   12   26    4     -0.02      0.00
   13   26    4     -0.59      0.00
   14   26    4      0.21      0.00
   15   26    4     -2.25      0.00
  -14   27    4     -0.28      0.00
  -13   27    4      1.31      0.00
  -12   27    4      0.00      0.00
  -11   27    4     -0.48      0.00
  -10   27    4     -0.78      0.00
   -9   27    4     -2.07      0.00
   -8   27    4      1.60      0.00
   -7   27    4      0.78      0.00
   -6   27    4      1.07      0.00
   -5   27    4     -0.07      0.00
   -4   27    4      0.91      0.00
   -3   27    4      0.10      0.00
   -2   27    4      0.47      0.00
   -1   27    4      1.52      0.00
    0   27    4     -0.95      0.00
    1   27    4      1.63      0.00
    2   27    4      1.20      0.00
    3   27    4     -0.93      0.00
    4   27    4      0.16      0.00
    5   27    4     -0.65      0.00
    6   27    4      0.47      0.00
    7   27    4     -0.17      0.00
    8   27    4      1.22      0.00
    9   27    4     -0.25      0.00
   10   27    4     -0.98      0.00
   11   27    4     -0.11      0.00
   12   27    4      0.31      0.00
   13   27    4      0.65      0.00
   14   27    4     -0.51      0.00
  -14   28    4      0.26      0.00
  -13   28    4      0.67      0.00
  -12   28    4      0.90      0.00
  -11   28    4      1.60      0.00
  -10   28    4      0.19      0.00
   -9   28    4     -0.05      0.00
   -8   28    4     -1.30      0.00
   -7   28    4     -0.54      0.00
   -6   28    4      2.02      0.00
   -5   28    4     -0.66      0.00
   -4   28    4      1.50      0.00
   -3   28    4     -1.17      0.00
   -2   28    4      0.22      0.00
   -1   28    4      0.09      0.00
    0   28    4     -1.37      0.00
    1   28    4     -0.17      0.00
    2   28    4     -2.01      0.00
    3   28    4     -1.57      0.00
    4   28    4     -1.42      0.00
    5   28    4     -0.83      0.00
    6   28    4     -0.09      0.00
    7   28    4     -0.43      0.00
    8   28    4      1.14      0.00
    9   28    4     -2.69      0.00
   10   28    4      1.24      0.00
   11   28    4     -1.15      0.00
   12   28    4      0.18      0.00
   13   28    4      0.09      0.00
   14   28    4     -0.06      0.00
  -13   29    4      0.94      0.00
  -12   29    4     -0.01      0.00
  -11   29    4      1.10      0.00
  -10   29    4     -1.73      0.00
   -9   29    4     -0.80      0.00
   -8   29    4     -0.83      0.00
   -7   29    4      1.45      0.00
   -6   29    4     -0.25      0.00
   -5   29    4     -0.84      0.00
   -4   29    4      0.70      0.00
   -3   29    4     -3.05      0.00
   -2   29    4      1.55      0.00
   -1   29    4     -1.15      0.00
    0   29    4     -0.02      0.00
    1   29    4      0.15      0.00
    2   29    4      0.18      0.00
    3   29    4      0.48      0.00
    4   29    4     -1.39      0.00
    5   29    4      1.34      0.00
    6   29    4     -0.77      0.00
    7   29    4      0.88      0.00
    8   29    4      0.09      0.00
    9   29    4      0.59      0.00
   10   29    4     -0.47      0.00
   11   29    4     -1.00      0.00
   12   29    4      1.01      0.00
   13   29    4      0.05      0.00
  -13   30    4      0.63      0.00
  -12   30    4      1.48      0.00
  -11   30    4      2.19      0.00
  -10   30    4      0.56      0.00
   -9   30    4      0.50      0.00
   -8   30    4      0.33      0.00
   -7   30    4      0.02      0.00
   -6   30    4      1.19      0.00
   -5   30    4      0.97      0.00
   -4   30    4      0.97      0.00
   -3   30    4     -0.84      0.00
   -2   30    4      1.83      0.00
   -1   30    4     -0.46      0.00
    0   30    4      0.04      0.00
    1   30    4      0.12      0.00
    2   30    4     -0.12      0.00
    3   30    4     -1.81      0.00
    4   30    4      0.32      0.00
    5   30    4     -0.61      0.00
    6   30    4      0.78      0.00
    7   30    4     -0.74      0.00
    8   30    4      2.33      0.00
    9   30    4     -1.46      0.00
   10   30    4      1.31      0.00
   11   30    4     -0.82      0.00
   12   30    4      0.98      0.00
   13   30    4     -0.38      0.00
  -12   31    4      0.21      0.00
  -11   31    4      0.52      0.00
  -10   31    4     -1.17      0.00
   -9   31    4     -0.35      0.00
   -8   31    4     -1.62      0.00
   -7   31    4      0.97      0.00
   -6   31    4     -0.99      0.00
   -5   31    4      0.05      0.00
   -4   31    4     -0.86      0.00
   -3   31    4     -1.85      0.00
   -2   31    4      1.32      0.00
   -1   31    4     -1.95      0.00
    0   31    4      0.52      0.00
    1   31    4     -1.14      0.00
    2   31    4     -1.35      0.00
    3   31    4      0.23      0.00
    4   31    4     -1.57      0.00
    5   31    4      1.06      0.00
    6   31    4     -0.79      0.00
    7   31    4      0.14      0.00
    8   31    4      0.28      0.00
    9   31    4      0.32      0.00
   10   31    4      0.27      0.00
   11   31    4     -0.85      0.00
   12   31    4      0.99      0.00
  -12   32    4      0.83      0.00
  -11   32    4      1.98      0.00
  -10   32    4      0.94      0.00
   -9   32    4     -0.03      0.00
   -8   32    4      1.18      0.00
   -7   32    4     -0.23      0.00
   -6   32    4      0.48      0.00
   -5   32    4      1.57      0.00
   -4   32    4     -0.59      0.00
   -3   32    4      0.63      0.00
   -2   32    4      0.35      0.00
   -1   32    4     -0.81      0.00
    0   32    4     -0.16      0.00
    1   32    4     -0.82      0.00
    2   32    4      1.25      0.00
    3   32    4     -1.27      0.00
    4   32    4      1.11      0.00
    5   32    4     -0.73      0.00
    6   32    4      1.16      0.00
    7   32    4     -0.48      0.00
    8   32    4      1.88      0.00
    9   32    4      0.86      0.00
   10   32    4      0.96      0.00
   11   32    4     -0.33      0.00
   12   32    4      1.39      0.00
  -11   33    4     -0.28      0.00
  -10   33    4     -0.17      0.00
   -9   33    4     -0.66      0.00
   -8   33    4     -0.92      0.00
   -7   33    4     -0.04      0.00
   -6   33    4     -0.85      0.00
   -5   33    4      0.59      0.00
   -4   33    4     -1.32      0.00
   -3   33    4      0.41      0.00
   -2   33    4      0.15      0.00
   -1   33    4      0.19      0.00
    0   33    4     -0.24      0.00
    1   33    4     -1.33      0.00
    2   33    4     -1.98      0.00
    3   33    4     -0.92      0.00
    4   33    4     -0.89      0.00
    5   33    4     -0.63      0.00
    6   33    4      0.52      0.00
    7   33    4     -1.88      0.00
    8   33    4      1.48      0.00
    9   33    4     -0.09      0.00
   10   33    4      0.34      0.00
   11   33    4      0.01      0.00
  -10   34    4      0.92      0.00
   -9   34    4     -1.02      0.00
   -8   34    4      0.96      0.00
   -7   34    4     -1.29      0.00
   -6   34    4      0.96      0.00
   -5   34    4      0.12      0.00
   -4   34    4     -0.17      0.00
   -3   34    4      0.75      0.00
   -2   34    4     -1.26      0.00
   -1   34    4     -0.79      0.00
    0   34    4     -2.05      0.00
    1   34    4     -0.97      0.00
    2   34    4      0.32      0.00
    3   34    4      0.20      0.00
    4   34    4     -0.07      0.00
    5   34    4     -0.51      0.00
    6   34    4      0.55      0.00
    7   34    4      0.12      0.00
    8   34    4      0.62      0.00
    9   34    4      1.85      0.00
   10   34    4      0.51      0.00
  -10   35    4      0.22      0.00
   -9   35    4     -0.71      0.00
   -8   35    4     -0.46      0.00
   -7   35    4      0.09      0.00
   -6   35    4     -1.36      0.00
   -5   35    4      0.42      0.00
   -4   35    4     -0.33      0.00
   -3   35    4      0.29      0.00
   -2   35    4      0.00      0.00
   -1   35    4      2.42      0.00
    0   35    4     -0.88      0.00
    1   35    4     -1.02      0.00
    2   35    4     -0.97      0.00
    3   35    4     -1.05      0.00
    4   35    4     -0.61      0.00
    5   35    4     -0.80      0.00
    6   35    4      1.14      0.00
    7   35    4     -2.44      0.00
    8   35    4      1.41      0.00
    9   35    4     -0.02      0.00
   -9   36    4     -1.32      0.00
   -8   36    4      0.06      0.00
   -7   36    4     -1.65      0.00
   -6   36    4      0.89      0.00
   -5   36    4     -0.54      0.00
   -4   36    4      0.81      0.00
   -3   36    4     -0.35      0.00
   -2   36    4     -0.24      0.00
   -1   36    4     -0.89      0.00
    0   36    4     -2.76      0.00
    1   36    4     -0.24      0.00
    2   36    4     -0.17      0.00
    3   36    4      0.78      0.00
    4   36    4     -0.86      0.00
    5   36    4     -0.13      0.00
    6   36    4     -0.22      0.00
    7   36    4      0.66      0.00
    8   36    4     -0.43      0.00
    9   36    4      1.41      0.00
   -8   37    4     -0.06      0.00
   -7   37    4      0.73      0.00
   -6   37    4     -1.92      0.00
   -5   37    4      0.37      0.00
   -4   37    4      0.08      0.00
   -3   37    4     -0.73      0.00
   -2   37    4      0.57      0.00
   -1   37    4      2.48      0.00
    0   37    4     -0.53      0.00
    1   37    4     -1.29      0.00
    2   37    4      0.65      0.00
    3   37    4     -0.55      0.00
    4   37    4     -0.56      0.00
    5   37    4      0.08      0.00
    6   37    4      0.65      0.00
    7   37    4     -1.16      0.00
    8   37    4     -0.03      0.00
   -7   38    4     -1.06      0.00
   -6   38    4      0.09      0.00
   -5   38    4      0.30      0.00
   -4   38    4      0.52      0.00
   -3   38    4     -0.79      0.00
   -2   38    4      1.67      0.00
   -1   38    4     -0.63      0.00
    0   38    4     -1.54      0.00
    1   38    4      0.47      0.00
    2   38    4      1.03      0.00
    3   38    4     -0.05      0.00
    4   38    4     -0.27      0.00
    5   38    4     -0.24      0.00
    6   38    4     -0.15      0.00
   -5   39    4      0.14      0.00
   -4   39    4     -0.43      0.00
   -3   39    4     -0.57      0.00
   -2   39    4      0.68      0.00
   -1   39    4      1.08      0.00
    0   39    4     -0.14      0.00
    1   39    4     -1.64      0.00
    2   39    4      1.17      0.00
    3   39    4     -0.33      0.00
    4   39    4     -0.37      0.00
    5   39    4      0.33      0.00
   -3   40    4     -0.37      0.00
   -2   40    4      1.89      0.00
   -1   40    4      0.07      0.00
    0   40    4     -0.11      0.00
    1   40    4      0.63      0.00
    2   40    4      1.84      0.00
    3   40    4     -0.65      0.00
  -19    1    5      0.01      0.00
  -18    1    5     -0.17      0.00
  -17    1    5     -0.59      0.00
  -16    1    5     -0.81      0.00
  -15    1    5      1.27      0.00
  -14    1    5     -0.35      0.00
  -13    1    5      1.72      0.00
  -12    1    5     -1.67      0.00
  -11    1    5      3.32      0.00
   -9    1    5      0.43      0.00
   -8    1    5     -3.25      0.00
   -7    1    5     -4.07      0.00
   -6    1    5     10.10      0.00
   -5    1    5    -11.25      0.00
   -4    1    5     -0.84      0.00
   -3    1    5    -14.82      0.00
   -2    1    5     14.18      0.00
   -1    1    5     10.59      0.00
    0    1    5      7.28      0.00
    1    1    5      3.28      0.00
    2    1    5      2.47      0.00
    3    1    5     13.85      0.00
    4    1    5    -13.42      0.00
    5    1    5      5.09      0.00
    6    1    5      3.37      0.00
    7    1    5     -2.94      0.00
    8    1    5      3.48      0.00
    9    1    5     -4.10      0.00
   10    1    5      3.46      0.00
   11    1    5     -1.44      0.00
   12    1    5      1.84      0.00
   13    1    5      0.09      0.00
   14    1    5     -1.31      0.00
   15    1    5      0.81      0.00
   16    1    5      1.13      0.00
   17    1    5      0.52      0.00
   18    1    5      1.04      0.00
   19    1    5     -0.63      0.00
  -19    2    5      0.48      0.00
  -18    2    5      0.95      0.00
  -17    2    5     -0.06      0.00
  -16    2    5     -0.36      0.00
  -15    2    5      0.49      0.00
  -14    2    5     -0.57      0.00
  -13    2    5     -0.08      0.00
  -12    2    5      1.71      0.00
  -11    2    5     -1.33      0.00
  -10    2    5      0.43      0.00
   -9    2    5      1.28      0.00
   -8    2    5     -0.96      0.00
   -7    2    5      2.82      0.00
   -6    2    5     -6.66      0.00
   -5    2    5    -14.81      0.00
   -4    2    5     -7.93      0.00
   -3    2    5     -8.62      0.00
   -2    2    5     14.05      0.00
   -1    2    5     -5.59      0.00
    0    2    5     10.53      0.00
    1    2    5    -14.48      0.00
    2    2    5      7.09      0.00
    4    2    5     -7.71      0.00
    5    2    5      6.59      0.00
    6    2    5     -7.55      0.00
    7    2    5     -1.24      0.00
    8    2    5     -1.13      0.00
    9    2    5     -3.21      0.00
   10    2    5      2.14      0.00
   11    2    5     -1.07      0.00
   12    2    5     -0.11      0.00
   13    2    5     -1.64      0.00
   14    2    5      0.04      0.00
   15    2    5      1.71      0.00
   16    2    5     -0.71      0.00
   17    2    5      0.73      0.00
   18    2    5     -0.85      0.00
   19    2    5     -4.02      0.00
  -19    3    5      0.33      0.00
  -18    3    5     -0.47      0.00
  -17    3    5     -0.42      0.00
  -16    3    5      0.29      0.00
  -15    3    5      0.28      0.00
  -14    3    5      1.05      0.00
  -13    3    5      0.34      0.00
  -12    3    5      1.86      0.00
  -11    3    5     -0.04      0.00
  -10    3    5      0.78      0.00
   -9    3    5     -1.37      0.00
   -8    3    5     -3.77      0.00
   -7    3    5      0.77      0.00
   -6    3    5     -4.01      0.00
   -5    3    5      3.02      0.00
   -4    3    5    -11.53      0.00
   -3    3    5      4.23      0.00
   -2    3    5      2.41      0.00
   -1    3    5      5.04      0.00
    0    3    5     17.58      0.00
    1    3    5     -8.09      0.00
    2    3    5     32.30      0.00
    4    3    5      5.20      0.00
    5    3    5     -0.23      0.00
    6    3    5      3.41      0.00
    7    3    5      5.18      0.00
    8    3    5     -2.00      0.00
    9    3    5      3.93      0.00
   10    3    5     -0.30      0.00
   11    3    5      0.67      0.00
   12    3    5      0.64      0.00
   13    3    5      0.68      0.00
   14    3    5      0.17      0.00
   15    3    5     -1.01      0.00
   16    3    5      1.14      0.00
   17    3    5     -0.69      0.00
   18    3    5     -0.73      0.00
   19    3    5     -0.72      0.00
  -19    4    5      0.34      0.00
  -18    4    5      0.51      0.00
  -17    4    5      0.14      0.00
  -16    4    5     -1.38      0.00
  -15    4    5      0.38      0.00
  -14    4    5     -1.21      0.00
  -13    4    5      0.55      0.00
  -12    4    5      1.91      0.00
  -11    4    5     -0.65      0.00
  -10    4    5      3.45      0.00
   -9    4    5     -1.90      0.00
   -8    4    5      5.85      0.00
   -7    4    5      2.39      0.00
   -6    4    5     -3.24      0.00
   -5    4    5    -17.17      0.00
   -4    4    5    -11.94      0.00
   -3    4    5     -1.31      0.00
   -2    4    5      4.70      0.00
   -1    4    5     18.89      0.00
    0    4    5     -0.94      0.00
    1    4    5     -5.30      0.00
    2    4    5      4.99      0.00
    3    4    5      0.04      0.00
    4    4    5     -3.86      0.00
    5    4    5     -4.51      0.00
    6    4    5      0.29      0.00
    7    4    5     -8.43      0.00
    8    4    5      0.76      0.00
    9    4    5     -3.19      0.00
   10    4    5      1.34      0.00
   11    4    5      0.58      0.00
   12    4    5     -0.78      0.00
   13    4    5     -1.04      0.00
   14    4    5     -1.04      0.00
   15    4    5      2.68      0.00
   16    4    5     -0.66      0.00
   17    4    5      0.57      0.00
   18    4    5     -1.17      0.00
   19    4    5     -4.42      0.00
  -19    5    5      0.77      0.00
  -18    5    5     -0.33      0.00
  -17    5    5      0.17      0.00
  -16    5    5      0.95      0.00
  -15    5    5     -0.36      0.00
  -14    5    5      1.44      0.00
  -13    5    5     -0.65      0.00
  -12    5    5      2.80      0.00
  -11    5    5     -0.91      0.00
  -10    5    5      3.89      0.00
   -9    5    5     -1.56      0.00
   -8    5    5     -1.61      0.00
   -7    5    5      0.97      0.00
   -6    5    5    -11.35      0.00
   -5    5    5      7.67      0.00
   -4    5    5    -10.66      0.00
   -3    5    5     12.55      0.00
   -2    5    5     -3.57      0.00
   -1    5    5     -2.33      0.00
    0    5    5     14.21      0.00
    1    5    5     -4.38      0.00
    2    5    5     41.64      0.00
    3    5    5     -4.63      0.00
    4    5    5     13.34      0.00
    5    5    5     -3.07      0.00
    6    5    5      3.78      0.00
    7    5    5      5.64      0.00
    8    5    5     -2.06      0.00
    9    5    5      5.92      0.00
   10    5    5     -1.81      0.00
   11    5    5      1.36      0.00
   12    5    5      0.04      0.00
   13    5    5      1.21      0.00
   14    5    5      1.62      0.00
   15    5    5     -1.31      0.00
   16    5    5      0.12      0.00
   17    5    5     -0.89      0.00
   18    5    5     -2.21      0.00
   19    5    5     -0.23      0.00
  -19    6    5     -0.21      0.00
  -18    6    5     -0.41      0.00
  -17    6    5      0.58      0.00
  -16    6    5     -1.89      0.00
  -15    6    5      0.08      0.00
  -14    6    5     -1.38      0.00
  -13    6    5      1.21      0.00
  -12    6    5      0.55      0.00
  -11    6    5      2.08      0.00
  -10    6    5      3.58      0.00
   -9    6    5     -3.73      0.00
   -8    6    5      9.03      0.00
   -7    6    5      2.06      0.00
   -6    6    5      3.28      0.00
   -5    6    5     -9.18      0.00
   -4    6    5     -6.50      0.00
   -3    6    5      4.74      0.00
   -2    6    5     -5.41      0.00
   -1    6    5     41.34      0.00
    0    6    5     -7.34      0.00
    1    6    5     12.41      0.00
    2    6    5     -0.09      0.00
    3    6    5     -3.45      0.00
    5    6    5    -13.46      0.00
    6    6    5      7.57      0.00
    7    6    5    -10.17      0.00
    8    6    5      0.60      0.00
    9    6    5     -0.87      0.00
   10    6    5     -1.30      0.00
   11    6    5      1.94      0.00
   12    6    5     -1.37      0.00
   13    6    5      0.04      0.00
   14    6    5     -1.58      0.00
   15    6    5      1.63      0.00
   16    6    5      0.84      0.00
   17    6    5     -0.33      0.00
   18    6    5     -0.49      0.00
  -19    7    5      0.96      0.00
  -18    7    5      0.41      0.00
  -17    7    5      0.58      0.00
  -16    7    5      0.75      0.00
  -15    7    5     -0.28      0.00
  -14    7    5      0.50      0.00
  -13    7    5     -0.37      0.00
  -12    7    5      0.41      0.00
  -11    7    5      1.92      0.00
  -10    7    5      0.08      0.00
   -9    7    5      1.49      0.00
   -8    7    5      2.74      0.00
   -7    7    5     -2.41      0.00
   -6    7    5     -6.77      0.00
   -5    7    5     -1.25      0.00
   -4    7    5     -0.06      0.00
   -3    7    5      1.15      0.00
   -2    7    5     -0.31      0.00
   -1    7    5     -9.07      0.00
    0    7    5     -4.92      0.00
    2    7    5     18.75      0.00
    3    7    5      6.59      0.00
    4    7    5      3.96      0.00
    5    7    5     -0.49      0.00
    6    7    5      3.20      0.00
    7    7    5     -2.43      0.00
    8    7    5      2.80      0.00
    9    7    5      0.12      0.00
   10    7    5     -0.51      0.00
   11    7    5      0.08      0.00
   12    7    5     -0.22      0.00
   13    7    5      1.20      0.00
   14    7    5      0.91      0.00
   15    7    5      0.51      0.00
   16    7    5     -1.85      0.00
   17    7    5     -0.21      0.00
   18    7    5     -1.64      0.00
  -19    8    5     -0.65      0.00
  -18    8    5     -0.77      0.00
  -17    8    5      0.58      0.00
  -16    8    5     -1.16      0.00
  -15    8    5     -0.50      0.00
  -14    8    5     -0.99      0.00
  -13    8    5      0.15      0.00
  -12    8    5     -0.79      0.00
  -11    8    5      4.02      0.00
  -10    8    5     -1.38      0.00
   -9    8    5      1.34      0.00
   -8    8    5      0.29      0.00
   -7    8    5      5.18      0.00
   -6    8    5      3.10      0.00
   -5    8    5      0.47      0.00
   -4    8    5      4.88      0.00
   -3    8    5     -5.14      0.00
   -2    8    5      3.94      0.00
   -1    8    5     26.26      0.00
    0    8    5     11.36      0.00
    1    8    5     12.90      0.00
    2    8    5     -0.69      0.00
    3    8    5      1.21      0.00
    4    8    5     -7.14      0.00
    5    8    5     -3.48      0.00
    6    8    5     -0.50      0.00
    7    8    5      0.22      0.00
    8    8    5     -3.17      0.00
    9    8    5      1.33      0.00
   10    8    5     -1.66      0.00
   11    8    5      0.91      0.00
   12    8    5     -0.38      0.00
   13    8    5     -0.07      0.00
   14    8    5     -0.11      0.00
   15    8    5     -0.58      0.00
   16    8    5      2.38      0.00
   17    8    5     -1.00      0.00
   18    8    5      0.21      0.00
  -19    9    5      0.89      0.00
  -18    9    5      1.03      0.00
  -17    9    5      0.43      0.00
  -16    9    5      0.21      0.00
  -15    9    5     -0.31      0.00
  -14    9    5     -0.65      0.00
  -13    9    5     -0.31      0.00
  -12    9    5     -1.05      0.00
  -11    9    5      2.20      0.00
  -10    9    5     -3.23      0.00
   -9    9    5      3.56      0.00
   -8    9    5      5.08      0.00
   -7    9    5     -0.10      0.00
   -6    9    5     -2.74      0.00
   -5    9    5     -4.29      0.00
   -4    9    5      0.44      0.00
   -3    9    5     -7.82      0.00
   -2    9    5      1.39      0.00
   -1    9    5    -11.25      0.00
    0    9    5    -15.19      0.00
    1    9    5      8.35      0.00
    2    9    5      1.04      0.00
    3    9    5      5.78      0.00
    4    9    5     -3.44      0.00
    5    9    5      0.93      0.00
    6    9    5     -0.53      0.00
    7    9    5     -6.26      0.00
    8    9    5      1.36      0.00
    9    9    5     -2.66      0.00
   10    9    5     -0.96      0.00
   11    9    5     -0.44      0.00
   12    9    5     -0.87      0.00
   13    9    5      1.03      0.00
   14    9    5     -0.65      0.00
   15    9    5      1.65      0.00
   16    9    5     -2.23      0.00
   17    9    5     -0.39      0.00
   18    9    5      0.47      0.00
  -19   10    5     -0.83      0.00
  -18   10    5     -0.63      0.00
  -17   10    5      0.21      0.00
  -16   10    5     -0.13      0.00
  -15   10    5     -0.82      0.00
  -14   10    5     -0.57      0.00
  -13   10    5     -1.73      0.00
  -12   10    5     -0.88      0.00
  -11   10    5      2.61      0.00
  -10   10    5     -3.97      0.00
   -9   10    5      6.17      0.00
   -8   10    5     -8.07      0.00
   -7   10    5      6.22      0.00
   -6   10    5     -1.60      0.00
   -5   10    5      6.79      0.00
   -4   10    5      8.84      0.00
   -3   10    5    -14.01      0.00
   -2   10    5     11.20      0.00
   -1   10    5     -2.20      0.00
    0   10    5     25.63      0.00
    1   10    5      1.46      0.00
    2   10    5      0.30      0.00
    3   10    5      4.48      0.00
    4   10    5    -10.58      0.00
    5   10    5      6.87      0.00
    6   10    5     -8.78      0.00
    7   10    5      8.10      0.00
    8   10    5     -3.81      0.00
    9   10    5      1.65      0.00
   10   10    5      0.36      0.00
   11   10    5     -0.19      0.00
   12   10    5      0.98      0.00
   13   10    5     -0.18      0.00
   14   10    5      1.08      0.00
   15   10    5     -1.15      0.00
   16   10    5      1.77      0.00
   17   10    5     -0.80      0.00
   18   10    5     -0.06      0.00
  -18   11    5      0.84      0.00
  -17   11    5     -0.01      0.00
  -16   11    5     -0.50      0.00
  -15   11    5     -0.61      0.00
  -14   11    5     -1.90      0.00
  -13   11    5     -0.59      0.00
  -12   11    5     -0.87      0.00
  -11   11    5     -1.42      0.00
  -10   11    5     -2.15      0.00
   -9   11    5      1.10      0.00
   -8   11    5      4.69      0.00
   -7   11    5      5.61      0.00
   -6   11    5     -1.15      0.00
   -5   11    5      2.23      0.00
   -4   11    5     -6.65      0.00
   -3   11    5     -4.01      0.00
   -2   11    5     -0.90      0.00
   -1   11    5     -5.22      0.00
    0   11    5     -8.28      0.00
    1   11    5     -5.70      0.00
    2   11    5      2.99      0.00
    3   11    5     -6.93      0.00
    4   11    5     -1.76      0.00
    5   11    5     -1.91      0.00
    6   11    5     -4.88      0.00
    7   11    5     -3.11      0.00
    8   11    5     -4.97      0.00
    9   11    5     -0.21      0.00
   10   11    5     -2.15      0.00
   11   11    5      0.24      0.00
   12   11    5     -0.64      0.00
   13   11    5      0.62      0.00
   14   11    5      0.01      0.00
   15   11    5      0.56      0.00
   16   11    5     -0.17      0.00
   17   11    5     -1.22      0.00
   18   11    5      1.71      0.00
  -18   12    5     -0.25      0.00
  -17   12    5      0.31      0.00
  -16   12    5      0.12      0.00
  -15   12    5      0.41      0.00
  -14   12    5     -0.41      0.00
  -13   12    5     -1.54      0.00
  -12   12    5     -0.60      0.00
  -11   12    5     -0.43      0.00
  -10   12    5     -0.44      0.00
   -9   12    5      2.89      0.00
   -8   12    5     -4.52      0.00
   -7   12    5      0.59      0.00
   -6   12    5     -3.78      0.00
   -5   12    5      8.11      0.00
   -4   12    5      2.39      0.00
   -3   12    5     -7.24      0.00
   -2   12    5     -0.17      0.00
   -1   12    5     -8.03      0.00
    0   12    5     11.56      0.00
    1   12    5     -2.49      0.00
    2   12    5     -1.59      0.00
    3   12    5      1.21      0.00
    4   12    5     -1.29      0.00
    5   12    5      1.52      0.00
    6   12    5     -3.22      0.00
    7   12    5      2.58      0.00
    8   12    5      0.39      0.00
    9   12    5      0.05      0.00
   10   12    5      0.75      0.00
   11   12    5      0.14      0.00
   12   12    5      0.16      0.00
   13   12    5      0.57      0.00
   14   12    5     -0.32      0.00
   15   12    5      0.32      0.00
   16   12    5     -0.05      0.00
   17   12    5     -0.35      0.00
   18   12    5     -0.56      0.00
  -18   13    5      0.23      0.00
  -17   13    5     -0.67      0.00
  -16   13    5     -0.67      0.00
  -15   13    5     -0.49      0.00
  -14   13    5     -2.67      0.00
  -13   13    5      0.54      0.00
  -12   13    5     -1.04      0.00
  -11   13    5     -1.99      0.00
  -10   13    5     -0.77      0.00
   -9   13    5     -2.08      0.00
   -8   13    5      3.64      0.00
   -7   13    5      4.58      0.00
   -6   13    5      4.76      0.00
   -5   13    5      3.71      0.00
   -4   13    5     -5.25      0.00
   -3   13    5     -0.96      0.00
   -2   13    5     -1.76      0.00
    0   13    5     -0.80      0.00
    1   13    5     -6.99      0.00
    2   13    5      3.81      0.00
    3   13    5     -8.47      0.00
    4   13    5     -0.86      0.00
    5   13    5     -2.89      0.00
    6   13    5     -4.52      0.00
    7   13    5      0.37      0.00
    8   13    5     -4.44      0.00
    9   13    5      0.91      0.00
   10   13    5     -0.01      0.00
   11   13    5      0.29      0.00
   12   13    5      0.71      0.00
   13   13    5     -0.49      0.00
   14   13    5      1.80      0.00
   15   13    5     -0.96      0.00
   16   13    5      1.15      0.00
   17   13    5     -1.22      0.00
   18   13    5      0.95      0.00
  -18   14    5     -0.05      0.00
  -17   14    5      0.59      0.00
  -16   14    5     -0.58      0.00
  -15   14    5      2.02      0.00
  -14   14    5     -0.25      0.00
  -13   14    5      0.31      0.00
  -12   14    5     -0.92      0.00
  -11   14    5     -1.42      0.00
  -10   14    5      2.61      0.00
   -9   14    5     -2.55      0.00
   -8   14    5      3.44      0.00
   -7   14    5     -4.31      0.00
   -6   14    5     -1.74      0.00
   -5   14    5      5.52      0.00
   -4   14    5     -1.98      0.00
   -3   14    5      2.62      0.00
   -2   14    5     -9.91      0.00
   -1   14    5      0.19      0.00
    0   14    5     -9.05      0.00
    1   14    5      0.50      0.00
    2   14    5     -5.14      0.00
    3   14    5     -0.95      0.00
    4   14    5      6.32      0.00
    5   14    5     -6.28      0.00
    6   14    5      4.08      0.00
    7   14    5     -4.95      0.00
    8   14    5      2.54      0.00
    9   14    5     -1.03      0.00
   10   14    5     -0.81      0.00
   11   14    5      0.70      0.00
   12   14    5     -1.45      0.00
   13   14    5      1.11      0.00
   14   14    5     -1.89      0.00
   15   14    5      1.27      0.00
   16   14    5     -0.31      0.00
   17   14    5     -0.11      0.00
  -18   15    5      0.25      0.00
  -17   15    5     -1.17      0.00
  -16   15    5      0.62      0.00
  -15   15    5      0.08      0.00
  -14   15    5     -1.76      0.00
  -13   15    5      1.82      0.00
  -12   15    5     -0.86      0.00
  -11   15    5      1.51      0.00
  -10   15    5     -1.96      0.00
   -9   15    5     -1.71      0.00
   -8   15    5      0.86      0.00
   -7   15    5     -2.04      0.00
   -6   15    5      9.82      0.00
   -5   15    5     -0.65      0.00
   -4   15    5      2.34      0.00
   -3   15    5     -3.77      0.00
   -2   15    5     -0.38      0.00
   -1   15    5      6.04      0.00
    0   15    5     -0.47      0.00
    1   15    5      2.96      0.00
    2   15    5     -3.41      0.00
    3   15    5      1.28      0.00
    4   15    5     -3.49      0.00
    5   15    5     -0.11      0.00
    7   15    5      1.66      0.00
    8   15    5      1.78      0.00
    9   15    5     -0.32      0.00
   10   15    5      2.57      0.00
   11   15    5     -0.07      0.00
   12   15    5      1.04      0.00
   13   15    5     -1.39      0.00
   14   15    5      1.58      0.00
   15   15    5     -0.65      0.00
   16   15    5      0.07      0.00
   17   15    5     -0.33      0.00
  -18   16    5     -0.23      0.00
  -17   16    5      0.21      0.00
  -16   16    5     -1.23      0.00
  -15   16    5      2.00      0.00
  -14   16    5      0.43      0.00
  -13   16    5      1.11      0.00
  -12   16    5     -0.66      0.00
  -11   16    5     -0.42      0.00
  -10   16    5      0.65      0.00
   -9   16    5     -2.54      0.00
   -8   16    5      4.21      0.00
   -7   16    5     -1.87      0.00
   -6   16    5      1.16      0.00
   -5   16    5      2.33      0.00
   -4   16    5      1.17      0.00
   -3   16    5      2.92      0.00
   -2   16    5     -2.61      0.00
   -1   16    5      0.51      0.00
    0   16    5    -10.55      0.00
    1   16    5      0.30      0.00
    2   16    5     -5.81      0.00
    3   16    5      2.07      0.00
    4   16    5      2.17      0.00
    5   16    5     -3.77      0.00
    6   16    5      1.22      0.00
    8   16    5     -0.24      0.00
    9   16    5     -0.67      0.00
   10   16    5     -1.08      0.00
   11   16    5      0.23      0.00
   12   16    5     -1.26      0.00
   13   16    5      0.60      0.00
   14   16    5     -0.68      0.00
   15   16    5      0.81      0.00
   16   16    5      1.20      0.00
   17   16    5      0.81      0.00
  -17   17    5     -0.82      0.00
  -16   17    5      2.28      0.00
  -15   17    5      0.59      0.00
  -14   17    5     -0.01      0.00
  -13   17    5      0.93      0.00
  -12   17    5      1.21      0.00
  -11   17    5      2.36      0.00
  -10   17    5     -2.30      0.00
   -9   17    5      0.36      0.00
   -8   17    5     -4.08      0.00
   -7   17    5     -4.68      0.00
   -6   17    5      5.20      0.00
   -5   17    5      0.32      0.00
   -4   17    5      3.48      0.00
   -3   17    5     -2.99      0.00
   -2   17    5     -0.53      0.00
   -1   17    5      0.93      0.00
    0   17    5      0.21      0.00
    1   17    5      4.35      0.00
    2   17    5     -6.16      0.00
    3   17    5      3.32      0.00
    4   17    5     -3.82      0.00
    5   17    5      0.40      0.00
    6   17    5      1.30      0.00
    7   17    5      2.34      0.00
    8   17    5      2.89      0.00
    9   17    5      0.13      0.00
   10   17    5      0.84      0.00
   11   17    5      0.16      0.00
   12   17    5     -0.32      0.00
   13   17    5     -1.21      0.00
   14   17    5     -0.46      0.00
   15   17    5      0.46      0.00
   16   17    5     -1.12      0.00
   17   17    5      0.02      0.00
  -17   18    5     -0.53      0.00
  -16   18    5     -0.99      0.00
  -15   18    5      0.83      0.00
  -14   18    5      1.16      0.00
  -13   18    5      0.69      0.00
  -12   18    5      0.67      0.00
  -11   18    5     -0.02      0.00
  -10   18    5     -1.65      0.00
   -9   18    5     -0.98      0.00
   -8   18    5     -0.05      0.00
   -7   18    5      1.96      0.00
   -6   18    5      2.56      0.00
   -5   18    5      0.60      0.00
   -4   18    5      3.36      0.00
   -3   18    5     -0.22      0.00
   -2   18    5      6.68      0.00
   -1   18    5     -3.59      0.00
    0   18    5     -0.13      0.00
    1   18    5     -2.11      0.00
    2   18    5     -1.78      0.00
    3   18    5      4.52      0.00
    4   18    5     -3.37      0.00
    5   18    5      0.97      0.00
    6   18    5     -3.63      0.00
    7   18    5      1.63      0.00
    8   18    5     -2.45      0.00
    9   18    5     -0.85      0.00
   10   18    5      0.29      0.00
   11   18    5     -0.47      0.00
   12   18    5     -0.32      0.00
   13   18    5      0.07      0.00
   14   18    5      1.53      0.00
   15   18    5      0.53      0.00
   16   18    5      2.28      0.00
   17   18    5      2.16      0.00
  -17   19    5      0.01      0.00
  -16   19    5      2.48      0.00
  -15   19    5      0.72      0.00
  -14   19    5      0.41      0.00
  -13   19    5     -0.40      0.00
  -12   19    5      2.92      0.00
  -11   19    5     -0.19      0.00
  -10   19    5      0.38      0.00
   -9   19    5      1.08      0.00
   -8   19    5     -6.47      0.00
   -7   19    5     -2.27      0.00
   -6   19    5     -3.12      0.00
   -5   19    5      4.71      0.00
   -4   19    5     -0.66      0.00
   -3   19    5      2.29      0.00
   -2   19    5     -3.09      0.00
   -1   19    5     -3.78      0.00
    0   19    5      2.60      0.00
    1   19    5     -3.28      0.00
    2   19    5     -3.14      0.00
    3   19    5     -3.93      0.00
    4   19    5     -1.61      0.00
    5   19    5     -2.73      0.00
    6   19    5      1.19      0.00
    7   19    5      2.46      0.00
    8   19    5     -1.21      0.00
    9   19    5      1.73      0.00
   10   19    5     -2.24      0.00
   11   19    5     -0.15      0.00
   12   19    5     -1.26      0.00
   13   19    5     -0.63      0.00
   14   19    5     -1.92      0.00
   15   19    5      0.51      0.00
   16   19    5     -0.77      0.00
  -17   20    5     -0.79      0.00
  -16   20    5     -0.32      0.00
  -15   20    5     -0.04      0.00
  -14   20    5      1.21      0.00
  -13   20    5      0.35      0.00
  -12   20    5      1.12      0.00
  -11   20    5      0.04      0.00
  -10   20    5     -0.47      0.00
   -9   20    5     -2.37      0.00
   -8   20    5     -1.62      0.00
   -7   20    5      0.99      0.00
   -6   20    5      2.99      0.00
   -5   20    5     -0.30      0.00
   -4   20    5      0.74      0.00
   -3   20    5     -0.38      0.00
   -2   20    5      4.47      0.00
   -1   20    5     -2.35      0.00
    0   20    5      4.38      0.00
    1   20    5     -2.26      0.00
    2   20    5      2.86      0.00
    3   20    5      2.52      0.00
    4   20    5     -2.28      0.00
    5   20    5     -0.23      0.00
    6   20    5     -1.86      0.00
    7   20    5      0.99      0.00
    8   20    5     -0.87      0.00
    9   20    5     -1.51      0.00
   10   20    5      0.92      0.00
   11   20    5      0.09      0.00
   12   20    5     -0.39      0.00
   13   20    5      0.31      0.00
   14   20    5      1.65      0.00
   15   20    5      0.85      0.00
   16   20    5      1.66      0.00
  -16   21    5      1.57      0.00
  -15   21    5      0.30      0.00
  -14   21    5     -0.45      0.00
  -13   21    5      0.05      0.00
  -12   21    5      1.48      0.00
  -11   21    5     -0.84      0.00
  -10   21    5      2.11      0.00
   -9   21    5      0.82      0.00
   -8   21    5     -3.58      0.00
   -7   21    5     -0.93      0.00
   -6   21    5     -4.39      0.00
   -5   21    5      3.38      0.00
   -4   21    5     -0.93      0.00
   -3   21    5      4.09      0.00
   -2   21    5     -4.34      0.00
   -1   21    5     -2.89      0.00
    0   21    5      1.90      0.00
    1   21    5     -5.52      0.00
    2   21    5     -2.69      0.00
    3   21    5     -7.11      0.00
    4   21    5     -1.09      0.00
    5   21    5     -4.21      0.00
    6   21    5      1.26      0.00
    7   21    5      1.15      0.00
    8   21    5     -2.48      0.00
    9   21    5      1.02      0.00
   10   21    5     -1.62      0.00
   11   21    5     -1.45      0.00
   12   21    5     -0.58      0.00
   13   21    5     -0.12      0.00
   14   21    5     -1.87      0.00
   15   21    5      0.65      0.00
   16   21    5     -0.09      0.00
  -16   22    5      0.18      0.00
  -15   22    5     -0.17      0.00
  -14   22    5      1.28      0.00
  -13   22    5     -0.15      0.00
  -12   22    5      0.13      0.00
  -11   22    5      1.48      0.00
  -10   22    5      1.25      0.00
   -9   22    5     -2.83      0.00
   -8   22    5     -1.02      0.00
   -7   22    5     -1.35      0.00
   -6   22    5      2.30      0.00
   -5   22    5     -1.30      0.00
   -4   22    5     -1.36      0.00
   -3   22    5     -1.14      0.00
   -2   22    5     -1.56      0.00
   -1   22    5      0.01      0.00
    0   22    5      1.71      0.00
    1   22    5     -1.61      0.00
    2   22    5      3.37      0.00
    3   22    5     -0.23      0.00
    4   22    5     -0.11      0.00
    5   22    5     -2.08      0.00
    6   22    5      1.50      0.00
    7   22    5     -1.47      0.00
    8   22    5      0.55      0.00
    9   22    5     -0.82      0.00
   10   22    5      0.10      0.00
   11   22    5      0.98      0.00
   12   22    5     -0.70      0.00
   13   22    5      0.13      0.00
   14   22    5      0.18      0.00
   15   22    5      0.60      0.00
   16   22    5      0.25      0.00
  -16   23    5      0.89      0.00
  -15   23    5     -0.37      0.00
  -14   23    5     -0.64      0.00
  -13   23    5      0.76      0.00
  -12   23    5     -0.78      0.00
  -11   23    5      0.88      0.00
  -10   23    5      0.54      0.00
   -9   23    5      1.00      0.00
   -8   23    5      0.79      0.00
   -7   23    5     -1.56      0.00
   -6   23    5     -0.55      0.00
   -5   23    5     -1.13      0.00
   -4   23    5      1.92      0.00
   -3   23    5      1.41      0.00
   -2   23    5     -2.15      0.00
   -1   23    5      0.37      0.00
    0   23    5     -0.40      0.00
    1   23    5     -0.55      0.00
    2   23    5     -4.05      0.00
    3   23    5     -3.36      0.00
    4   23    5     -1.61      0.00
    5   23    5     -2.10      0.00
    6   23    5      1.64      0.00
    7   23    5     -0.60      0.00
    8   23    5      0.30      0.00
    9   23    5     -0.90      0.00
   10   23    5      0.95      0.00
   11   23    5     -1.76      0.00
   12   23    5      0.32      0.00
   13   23    5      0.08      0.00
   14   23    5     -1.16      0.00
   15   23    5      1.95      0.00
  -15   24    5      0.18      0.00
  -14   24    5      1.58      0.00
  -13   24    5     -1.22      0.00
  -12   24    5     -0.46      0.00
  -11   24    5      2.64      0.00
  -10   24    5      1.32      0.00
   -9   24    5      0.18      0.00
   -8   24    5     -1.56      0.00
   -7   24    5     -0.82      0.00
   -6   24    5      0.12      0.00
   -5   24    5     -1.35      0.00
   -4   24    5     -1.04      0.00
   -3   24    5     -3.16      0.00
   -2   24    5     -2.53      0.00
   -1   24    5     -1.35      0.00
    0   24    5     -0.39      0.00
    1   24    5     -2.09      0.00
    2   24    5      0.40      0.00
    3   24    5     -0.53      0.00
    4   24    5     -1.10      0.00
    5   24    5     -0.19      0.00
    6   24    5      0.79      0.00
    7   24    5     -1.01      0.00
    8   24    5     -0.73      0.00
    9   24    5      0.37      0.00
   10   24    5     -0.31      0.00
   11   24    5      0.71      0.00
   12   24    5     -0.27      0.00
   13   24    5     -0.85      0.00
   14   24    5     -0.34      0.00
   15   24    5     -0.26      0.00
  -15   25    5     -0.72      0.00
  -14   25    5      0.00      0.00
  -13   25    5      0.17      0.00
  -12   25    5     -0.87      0.00
  -11   25    5      1.23      0.00
  -10   25    5     -1.27      0.00
   -9   25    5      1.22      0.00
   -8   25    5      2.71      0.00
   -7   25    5     -1.09      0.00
   -6   25    5      0.78      0.00
   -5   25    5     -1.57      0.00
   -4   25    5      1.55      0.00
   -3   25    5     -0.32      0.00
   -2   25    5      0.35      0.00
   -1   25    5      1.16      0.00
    0   25    5     -0.56      0.00
    1   25    5      2.31      0.00
    2   25    5     -2.15      0.00
    3   25    5      0.05      0.00
    4   25    5     -0.20      0.00
    5   25    5      0.25      0.00
    6   25    5      1.56      0.00
    7   25    5     -1.19      0.00
    8   25    5      1.78      0.00
    9   25    5     -0.61      0.00
   10   25    5      1.13      0.00
   11   25    5     -0.54      0.00
   12   25    5      0.33      0.00
   13   25    5     -0.63      0.00
   14   25    5     -0.49      0.00
   15   25    5      2.75      0.00
  -15   26    5      0.45      0.00
  -14   26    5      0.91      0.00
  -13   26    5     -2.00      0.00
  -12   26    5     -0.35      0.00
  -11   26    5      1.07      0.00
  -10   26    5      1.45      0.00
   -9   26    5      2.55      0.00
   -8   26    5     -1.57      0.00
   -7   26    5      0.56      0.00
   -6   26    5     -1.31      0.00
   -5   26    5      0.17      0.00
   -4   26    5     -0.95      0.00
   -3   26    5     -1.80      0.00
   -2   26    5     -1.06      0.00
   -1   26    5     -2.49      0.00
    0   26    5     -0.06      0.00
    1   26    5     -2.19      0.00
    2   26    5     -2.04      0.00
    3   26    5      0.03      0.00
    4   26    5     -1.95      0.00
    5   26    5      1.44      0.00
    6   26    5     -1.03      0.00
    7   26    5      0.06      0.00
    8   26    5     -1.64      0.00
    9   26    5      0.17      0.00
   10   26    5      0.56      0.00
   11   26    5      0.39      0.00
   12   26    5     -0.17      0.00
   13   26    5     -1.20      0.00
   14   26    5      0.46      0.00
  -14   27    5      0.08      0.00
  -13   27    5     -0.50      0.00
  -12   27    5     -0.53      0.00
  -11   27    5     -0.31      0.00
  -10   27    5     -1.35      0.00
   -9   27    5      0.49      0.00
   -8   27    5      2.21      0.00
   -7   27    5     -0.11      0.00
   -6   27    5     -0.61      0.00
   -5   27    5      0.27      0.00
   -4   27    5     -1.17      0.00
   -3   27    5      0.31      0.00
   -2   27    5      0.01      0.00
   -1   27    5      0.13      0.00
    0   27    5      0.06      0.00
    1   27    5      0.58      0.00
    2   27    5      0.78      0.00
    3   27    5      0.66      0.00
    4   27    5      1.44      0.00
    5   27    5      0.80      0.00
    6   27    5      0.74      0.00
    7   27    5     -0.45      0.00
    8   27    5     -0.17      0.00
    9   27    5      1.31      0.00
   10   27    5     -0.50      0.00
   11   27    5      0.43      0.00
   12   27    5      0.02      0.00
   13   27    5     -1.30      0.00
   14   27    5     -0.05      0.00
  -14   28    5     -0.31      0.00
  -13   28    5     -1.66      0.00
  -12   28    5     -0.61      0.00
  -11   28    5     -1.36      0.00
  -10   28    5      1.90      0.00
   -9   28    5      1.81      0.00
   -8   28    5      0.18      0.00
   -7   28    5      0.04      0.00
   -6   28    5     -0.50      0.00
   -5   28    5      1.09      0.00
   -4   28    5     -1.07      0.00
   -3   28    5      1.76      0.00
   -2   28    5     -0.90      0.00
   -1   28    5     -0.42      0.00
    0   28    5      0.14      0.00
    1   28    5     -0.48      0.00
    2   28    5     -1.72      0.00
    3   28    5      0.24      0.00
    4   28    5     -0.37      0.00
    5   28    5      0.33      0.00
    6   28    5     -0.35      0.00
    7   28    5     -0.66      0.00
    8   28    5     -0.48      0.00
    9   28    5     -0.65      0.00
   10   28    5      0.94      0.00
   11   28    5      1.07      0.00
   12   28    5     -1.19      0.00
   13   28    5     -0.59      0.00
  -13   29    5     -0.37      0.00
  -12   29    5     -1.42      0.00
  -11   29    5     -1.49      0.00
  -10   29    5     -1.03      0.00
   -9   29    5     -0.46      0.00
   -8   29    5      0.68      0.00
   -7   29    5     -0.34      0.00
   -6   29    5     -1.29      0.00
   -5   29    5     -0.39      0.00
   -4   29    5     -1.66      0.00
   -3   29    5      0.20      0.00
   -2   29    5     -1.52      0.00
   -1   29    5     -0.18      0.00
    0   29    5     -0.64      0.00
    1   29    5     -0.89      0.00
    2   29    5      0.51      0.00
    3   29    5      1.13      0.00
    4   29    5      0.52      0.00
    5   29    5      1.03      0.00
    6   29    5     -0.55      0.00
    7   29    5      0.78      0.00
    8   29    5     -2.35      0.00
    9   29    5      1.77      0.00
   10   29    5     -1.01      0.00
   11   29    5      0.32      0.00
   12   29    5     -0.31      0.00
   13   29    5     -0.56      0.00
  -13   30    5     -0.69      0.00
  -12   30    5     -0.95      0.00
  -11   30    5     -1.42      0.00
  -10   30    5      1.27      0.00
   -9   30    5      0.67      0.00
   -8   30    5      1.26      0.00
   -7   30    5     -0.96      0.00
   -6   30    5      0.58      0.00
   -5   30    5      0.22      0.00
   -4   30    5     -0.08      0.00
   -3   30    5      2.23      0.00
   -2   30    5     -0.88      0.00
   -1   30    5      1.55      0.00
    0   30    5     -0.30      0.00
    1   30    5      1.50      0.00
    2   30    5      0.37      0.00
    3   30    5      0.75      0.00
    4   30    5      1.46      0.00
    5   30    5     -0.68      0.00
    6   30    5      0.96      0.00
    7   30    5     -0.97      0.00
    8   30    5      0.22      0.00
    9   30    5     -0.37      0.00
   10   30    5      0.10      0.00
   11   30    5      1.38      0.00
   12   30    5     -1.68      0.00
  -12   31    5     -1.77      0.00
  -11   31    5     -1.73      0.00
  -10   31    5     -1.03      0.00
   -9   31    5     -0.31      0.00
   -8   31    5     -0.85      0.00
   -7   31    5     -0.39      0.00
   -6   31    5     -1.21      0.00
   -5   31    5     -1.77      0.00
   -4   31    5     -0.26      0.00
   -3   31    5     -1.32      0.00
   -2   31    5     -1.18      0.00
   -1   31    5      0.19      0.00
    0   31    5     -0.98      0.00
    1   31    5     -0.09      0.00
    2   31    5     -1.26      0.00
    3   31    5      1.60      0.00
    4   31    5     -1.40      0.00
    5   31    5      1.50      0.00
    6   31    5     -1.35      0.00
    7   31    5      1.17      0.00
    8   31    5     -2.18      0.00
    9   31    5      0.03      0.00
   10   31    5     -0.50      0.00
   11   31    5     -0.21      0.00
   12   31    5     -0.79      0.00
  -11   32    5      0.06      0.00
  -10   32    5      0.08      0.00
   -9   32    5      0.71      0.00
   -8   32    5      0.71      0.00
   -7   32    5     -0.78      0.00
   -6   32    5      0.67      0.00
   -5   32    5     -0.46      0.00
   -4   32    5      0.90      0.00
   -3   32    5      0.15      0.00
   -2   32    5      0.20      0.00
   -1   32    5      0.58      0.00
    0   32    5     -0.06      0.00
    1   32    5      1.69      0.00
    2   32    5      1.99      0.00
    3   32    5      1.22      0.00
    4   32    5      1.71      0.00
    5   32    5      0.01      0.00
    6   32    5      0.50      0.00
    7   32    5      0.76      0.00
    8   32    5     -0.76      0.00
    9   32    5      0.51      0.00
   10   32    5     -0.34      0.00
   11   32    5      0.46      0.00
  -11   33    5     -1.55      0.00
  -10   33    5     -1.03      0.00
   -9   33    5      0.65      0.00
   -8   33    5     -1.42      0.00
   -7   33    5      0.72      0.00
   -6   33    5     -1.29      0.00
   -5   33    5     -0.78      0.00
   -4   33    5     -0.09      0.00
   -3   33    5     -1.68      0.00
   -2   33    5      0.34      0.00
   -1   33    5      0.53      0.00
    0   33    5      0.53      0.00
    1   33    5      0.83      0.00
    2   33    5     -1.14      0.00
    3   33    5      0.41      0.00
    4   33    5     -1.49      0.00
    5   33    5      0.93      0.00
    6   33    5     -1.02      0.00
    7   33    5      0.04      0.00
    8   33    5     -0.74      0.00
    9   33    5     -1.84      0.00
   10   33    5     -0.39      0.00
  -10   34    5     -0.42      0.00
   -9   34    5      0.75      0.00
   -8   34    5      0.02      0.00
   -7   34    5     -0.49      0.00
   -6   34    5      1.07      0.00
   -5   34    5      0.00      0.00
   -4   34    5      0.77      0.00
   -3   34    5     -0.32      0.00
   -2   34    5      1.08      0.00
   -1   34    5     -1.46      0.00
    0   34    5      0.85      0.00
    1   34    5      0.91      0.00
    2   34    5      1.73      0.00
    3   34    5      1.01      0.00
    4   34    5      1.17      0.00
    5   34    5      0.70      0.00
    6   34    5     -0.70      0.00
    7   34    5      2.34      0.00
    8   34    5     -1.47      0.00
    9   34    5      0.44      0.00
   10   34    5      0.05      0.00
   -9   35    5      1.21      0.00
   -8   35    5     -0.91      0.00
   -7   35    5      1.52      0.00
   -6   35    5     -1.00      0.00
   -5   35    5      0.55      0.00
   -4   35    5     -1.25      0.00
   -3   35    5     -0.52      0.00
   -2   35    5      0.27      0.00
   -1   35    5      0.74      0.00
    0   35    5      2.03      0.00
    1   35    5      0.48      0.00
    2   35    5      0.06      0.00
    3   35    5     -1.09      0.00
    4   35    5     -0.29      0.00
    5   35    5     -0.15      0.00
    6   35    5     -0.08      0.00
    7   35    5     -1.18      0.00
    8   35    5      0.23      0.00
    9   35    5     -1.96      0.00
   -8   36    5     -0.22      0.00
   -7   36    5     -0.67      0.00
   -6   36    5      2.11      0.00
   -5   36    5      0.28      0.00
   -4   36    5      0.51      0.00
   -3   36    5      0.77      0.00
   -2   36    5      0.83      0.00
   -1   36    5     -2.06      0.00
    0   36    5      1.02      0.00
    1   36    5      1.00      0.00
    2   36    5     -0.12      0.00
    3   36    5      0.51      0.00
    4   36    5      0.75      0.00
    5   36    5      0.38      0.00
    6   36    5     -0.95      0.00
    7   36    5      1.82      0.00
    8   36    5     -0.61      0.00
   -7   37    5      1.24      0.00
   -6   37    5     -0.20      0.00
   -5   37    5     -0.06      0.00
   -4   37    5     -1.56      0.00
   -3   37    5      0.04      0.00
   -2   37    5     -1.11      0.00
   -1   37    5      0.57      0.00
    0   37    5      1.94      0.00
    1   37    5     -0.37      0.00
    2   37    5     -0.05      0.00
    3   37    5     -0.68      0.00
    4   37    5      0.10      0.00
    5   37    5     -0.08      0.00
    6   37    5      0.36      0.00
    7   37    5     -0.95      0.00
   -6   38    5      2.12      0.00
   -5   38    5      0.10      0.00
   -4   38    5      0.67      0.00
   -3   38    5      0.86      0.00
   -2   38    5      0.07      0.00
   -1   38    5     -1.44      0.00
    0   38    5      0.32      0.00
    1   38    5      1.56      0.00
    2   38    5     -1.67      0.00
    3   38    5      0.19      0.00
    4   38    5      0.48      0.00
    5   38    5      0.00      0.00
    6   38    5     -0.40      0.00
   -4   39    5     -0.59      0.00
   -3   39    5     -0.29      0.00
   -2   39    5     -1.41      0.00
   -1   39    5      0.06      0.00
    0   39    5      1.14      0.00
    1   39    5     -0.77      0.00
    2   39    5     -1.00      0.00
    3   39    5      0.56      0.00
    4   39    5     -0.24      0.00
   -1   40    5     -0.72      0.00
    0   40    5     -0.01      0.00
    1   40    5      1.32      0.00
  -19    0    6      0.61      0.00
  -18    0    6      0.19      0.00
  -17    0    6      0.04      0.00
  -16    0    6      1.64      0.00
  -15    0    6     -2.05      0.00
  -14    0    6      0.88      0.00
  -13    0    6     -1.95      0.00
  -12    0    6      1.76      0.00
  -11    0    6     -4.21      0.00
  -10    0    6      9.95      0.00
   -9    0    6     -2.74      0.00
   -8    0    6      4.14      0.00
   -7    0    6      4.87      0.00
   -6    0    6     -8.38      0.00
   -5    0    6     10.82      0.00
   -4    0    6     -7.33      0.00
   -3    0    6     21.67      0.00
   -2    0    6     -5.22      0.00
   -1    0    6     -1.85      0.00
    0    0    6     -0.78      0.00
    1    0    6      1.49      0.00
    2    0    6      2.23      0.00
    3    0    6    -16.36      0.00
    4    0    6     17.50      0.00
    5    0    6     -7.88      0.00
    6    0    6     -0.29      0.00
    7    0    6      2.29      0.00
    8    0    6     -5.05      0.00
    9    0    6      3.57      0.00
   10    0    6     -2.62      0.00
   11    0    6      1.30      0.00
   12    0    6     -1.38      0.00
   13    0    6     -0.49      0.00
   14    0    6      2.51      0.00
   15    0    6     -0.46      0.00
   16    0    6     -0.58      0.00
   17    0    6     -1.08      0.00
   18    0    6     -0.71      0.00
  -19    1    6     -0.18      0.00
  -18    1    6     -0.22      0.00
  -17    1    6      0.47      0.00
  -16    1    6      0.51      0.00
  -15    1    6      0.04      0.00
  -14    1    6      0.86      0.00
  -13    1    6      0.02      0.00
  -12    1    6     -1.11      0.00
  -11    1    6      0.86      0.00
  -10    1    6     -0.18      0.00
   -9    1    6     -1.49      0.00
   -8    1    6      0.71      0.00
   -7    1    6     -2.88      0.00
   -6    1    6      1.75      0.00
   -5    1    6      4.60      0.00
   -4    1    6      4.12      0.00
   -3    1    6      7.66      0.00
   -2    1    6     -6.78      0.00
   -1    1    6      5.29      0.00
    0    1    6     -5.94      0.00
    1    1    6      7.29      0.00
    2    1    6     -4.03      0.00
    3    1    6     -1.34      0.00
    4    1    6      3.94      0.00
    5    1    6     -5.77      0.00
    6    1    6      5.21      0.00
    7    1    6     -1.64      0.00
    8    1    6      1.14      0.00
    9    1    6      1.40      0.00
   10    1    6     -1.22      0.00
   11    1    6     -0.21      0.00
   12    1    6     -0.37      0.00
   13    1    6      0.73      0.00
   14    1    6     -0.18      0.00
   15    1    6     -1.21      0.00
   16    1    6      0.27      0.00
   17    1    6     -1.22      0.00
   18    1    6      0.54      0.00
  -19    2    6      0.26      0.00
  -18    2    6      0.45      0.00
  -17    2    6     -0.09      0.00
  -16    2    6      1.05      0.00
  -15    2    6     -1.16      0.00
  -14    2    6      0.43      0.00
  -13    2    6     -0.95      0.00
  -12    2    6      0.27      0.00
  -11    2    6     -1.39      0.00
   -9    2    6     -0.73      0.00
   -8    2    6      3.47      0.00
   -7    2    6      1.81      0.00
   -6    2    6     -1.47      0.00
   -5    2    6      2.84      0.00
   -4    2    6      0.05      0.00
   -3    2    6      8.51      0.00
   -2    2    6      0.16      0.00
   -1    2    6     -3.47      0.00
    0    2    6     -4.56      0.00
    1    2    6      5.82      0.00
    2    2    6    -11.59      0.00
    4    2    6      5.96      0.00
    5    2    6     -2.01      0.00
    6    2    6     -1.29      0.00
    7    2    6     -0.91      0.00
    8    2    6     -1.41      0.00
    9    2    6     -0.46      0.00
   10    2    6     -0.70      0.00
   11    2    6      0.12      0.00
   12    2    6     -1.02      0.00
   13    2    6     -1.06      0.00
   14    2    6      1.21      0.00
   15    2    6      0.23      0.00
   16    2    6     -1.23      0.00
   17    2    6     -0.44      0.00
   18    2    6     -0.13      0.00
  -19    3    6     -0.46      0.00
  -18    3    6     -0.38      0.00
  -17    3    6      0.61      0.00
  -16    3    6      1.19      0.00
  -15    3    6     -0.02      0.00
  -14    3    6      1.81      0.00
  -13    3    6     -0.48      0.00
  -12    3    6     -2.15      0.00
  -11    3    6      1.29      0.00
  -10    3    6     -1.47      0.00
   -8    3    6     -1.90      0.00
   -7    3    6     -3.87      0.00
   -6    3    6      1.38      0.00
   -5    3    6     10.24      0.00
   -4    3    6     10.15      0.00
   -3    3    6     13.44      0.00
   -2    3    6     -8.73      0.00
   -1    3    6     -1.70      0.00
    0    3    6     -5.22      0.00
    1    3    6      5.74      0.00
    3    3    6     -2.99      0.00
    4    3    6      4.77      0.00
    5    3    6     -6.33      0.00
    6    3    6      4.74      0.00
    7    3    6      1.39      0.00
    8    3    6      0.88      0.00
    9    3    6      3.70      0.00
   10    3    6     -1.39      0.00
   11    3    6     -1.01      0.00
   12    3    6     -0.15      0.00
   13    3    6      1.47      0.00
   14    3    6      0.45      0.00
   15    3    6     -3.07      0.00
   16    3    6      0.65      0.00
   17    3    6     -2.61      0.00
   18    3    6      1.26      0.00
  -19    4    6     -0.45      0.00
  -18    4    6      0.86      0.00
  -17    4    6     -0.82      0.00
  -16    4    6      0.04      0.00
  -15    4    6     -0.01      0.00
  -14    4    6     -0.51      0.00
  -13    4    6      0.18      0.00
  -12    4    6     -2.10      0.00
  -11    4    6      1.90      0.00
  -10    4    6     -1.94      0.00
   -9    4    6      1.67      0.00
   -8    4    6      0.90      0.00
   -7    4    6     -1.22      0.00
   -6    4    6      8.33      0.00
   -5    4    6     -6.01      0.00
   -4    4    6      9.40      0.00
   -3    4    6     -9.40      0.00
   -2    4    6      6.57      0.00
   -1    4    6     -2.60      0.00
    0    4    6     -6.75      0.00
    1    4    6      7.68      0.00
    2    4    6    -28.23      0.00
    3    4    6      2.84      0.00
    4    4    6    -10.82      0.00
    5    4    6      4.73      0.00
    6    4    6     -4.01      0.00
    7    4    6     -5.08      0.00
    8    4    6      1.74      0.00
    9    4    6     -5.30      0.00
   10    4    6      1.39      0.00
   11    4    6     -1.19      0.00
   12    4    6     -0.34      0.00
   13    4    6     -1.34      0.00
   14    4    6     -0.97      0.00
   15    4    6      1.46      0.00
   16    4    6     -1.47      0.00
   17    4    6      0.49      0.00
   18    4    6      1.10      0.00
  -19    5    6     -0.36      0.00
  -18    5    6      0.07      0.00
  -17    5    6     -0.18      0.00
  -16    5    6      1.64      0.00
  -15    5    6     -0.12      0.00
  -14    5    6      1.72      0.00
  -13    5    6     -1.34      0.00
  -12    5    6     -1.19      0.00
  -11    5    6     -0.94      0.00
  -10    5    6     -2.77      0.00
   -8    5    6     -7.31      0.00
   -7    5    6     -0.58      0.00
   -6    5    6     -3.55      0.00
   -5    5    6      7.71      0.00
   -4    5    6      9.00      0.00
   -3    5    6      7.87      0.00
   -2    5    6      1.48      0.00
   -1    5    6    -24.60      0.00
    0    5    6      6.60      0.00
    1    5    6    -13.92      0.00
    3    5    6     -3.58      0.00
    4    5    6     -0.68      0.00
    5    5    6      4.31      0.00
    6    5    6     -6.44      0.00
    7    5    6      8.04      0.00
    8    5    6     -1.34      0.00
    9    5    6      3.21      0.00
   10    5    6      0.87      0.00
   11    5    6     -2.56      0.00
   12    5    6      0.78      0.00
   13    5    6      0.69      0.00
   14    5    6      1.70      0.00
   15    5    6     -3.08      0.00
   16    5    6      0.24      0.00
   17    5    6     -1.59      0.00
   18    5    6      1.11      0.00
  -19    6    6     -1.07      0.00
  -18    6    6      0.55      0.00
  -17    6    6     -1.80      0.00
  -16    6    6     -0.49      0.00
  -15    6    6      0.08      0.00
  -14    6    6     -0.72      0.00
  -13    6    6      0.00      0.00
  -12    6    6     -1.90      0.00
  -11    6    6      0.53      0.00
  -10    6    6     -2.05      0.00
   -9    6    6      0.33      0.00
   -8    6    6     -2.62      0.00
   -7    6    6      1.17      0.00
   -6    6    6      7.33      0.00
   -5    6    6     -1.04      0.00
   -4    6    6      6.55      0.00
   -3    6    6     -7.48      0.00
   -2    6    6      2.38      0.00
   -1    6    6      5.14      0.00
    0    6    6      0.70      0.00
    1    6    6     -1.31      0.00
    2    6    6    -19.10      0.00
    3    6    6     -4.46      0.00
    4    6    6    -10.01      0.00
    5    6    6      1.66      0.00
    6    6    6     -5.36      0.00
    7    6    6     -2.85      0.00
    8    6    6     -1.71      0.00
    9    6    6     -2.55      0.00
   10    6    6      0.42      0.00
   11    6    6     -0.46      0.00
   12    6    6      0.07      0.00
   13    6    6     -0.52      0.00
   14    6    6     -1.49      0.00
   15    6    6      1.18      0.00
   16    6    6      0.40      0.00
   17    6    6      0.23      0.00
   18    6    6      1.65      0.00
  -19    7    6      0.00      0.00
  -18    7    6      0.77      0.00
  -17    7    6     -0.77      0.00
  -16    7    6      1.67      0.00
  -15    7    6      0.11      0.00
  -14    7    6      1.04      0.00
  -13    7    6     -0.93      0.00
  -12    7    6      0.17      0.00
  -11    7    6     -3.61      0.00
  -10    7    6     -0.96      0.00
   -9    7    6      1.27      0.00
   -8    7    6     -4.77      0.00
   -7    7    6     -1.52      0.00
   -6    7    6     -4.51      0.00
   -5    7    6     -0.09      0.00
   -4    7    6      0.81      0.00
   -3    7    6      6.50      0.00
   -2    7    6      2.74      0.00
   -1    7    6    -26.44      0.00
    0    7    6      2.49      0.00
    1    7    6    -21.97      0.00
    2    7    6     -0.45      0.00
    3    7    6     -5.43      0.00
    4    7    6      0.20      0.00
    5    7    6      5.20      0.00
    6    7    6     -7.10      0.00
    7    7    6      4.16      0.00
    8    7    6      0.14      0.00
    9    7    6     -0.31      0.00
   10    7    6      1.74      0.00
   11    7    6     -3.24      0.00
   12    7    6      0.67      0.00
   13    7    6     -0.58      0.00
   14    7    6      1.25      0.00
   15    7    6     -1.10      0.00
   16    7    6     -1.23      0.00
   17    7    6      0.84      0.00
   18    7    6      0.15      0.00
  -18    8    6     -0.48      0.00
  -17    8    6     -1.85      0.00
  -16    8    6     -0.47      0.00
  -15    8    6      0.19      0.00
  -14    8    6      0.22      0.00
  -13    8    6      0.04      0.00
  -12    8    6      0.19      0.00
  -11    8    6     -1.41      0.00
  -10    8    6      3.12      0.00
   -9    8    6     -2.17      0.00
   -8    8    6     -4.22      0.00
   -7    8    6      2.46      0.00
   -6    8    6      0.65      0.00
   -5    8    6      4.88      0.00
   -4    8    6      0.93      0.00
   -3    8    6      2.53      0.00
   -2    8    6     -5.23      0.00
   -1    8    6     11.72      0.00
    0    8    6      7.76      0.00
    1    8    6     -6.43      0.00
    2    8    6     -0.57      0.00
    3    8    6    -10.13      0.00
    4    8    6      0.30      0.00
    5    8    6     -2.67      0.00
    6    8    6     -2.40      0.00
    7    8    6      2.55      0.00
    8    8    6     -3.11      0.00
    9    8    6      2.58      0.00
   10    8    6     -0.15      0.00
   11    8    6      0.51      0.00
   12    8    6      0.28      0.00
   13    8    6     -0.12      0.00
   14    8    6     -0.19      0.00
   15    8    6     -0.70      0.00
   16    8    6      2.59      0.00
   17    8    6     -0.61      0.00
   18    8    6      0.72      0.00
  -18    9    6      0.98      0.00
  -17    9    6     -0.79      0.00
  -16    9    6      0.82      0.00
  -15    9    6      0.30      0.00
  -14    9    6      0.02      0.00
  -13    9    6      0.79      0.00
  -12    9    6      0.45      0.00
  -11    9    6     -2.99      0.00
  -10    9    6      2.34      0.00
   -9    9    6     -4.22      0.00
   -8    9    6      4.81      0.00
   -7    9    6     -4.79      0.00
   -6    9    6      1.33      0.00
   -5    9    6     -5.68      0.00
   -4    9    6     -5.20      0.00
   -3    9    6     10.44      0.00
   -2    9    6     -4.59      0.00
   -1    9    6     -4.93      0.00
    0    9    6    -15.02      0.00
    1    9    6    -11.17      0.00
    2    9    6     -4.64      0.00
    3    9    6     -7.53      0.00
    4    9    6      4.31      0.00
    5    9    6     -4.01      0.00
    6    9    6      3.13      0.00
    7    9    6     -5.49      0.00
    8    9    6      3.73      0.00
    9    9    6     -2.26      0.00
   10    9    6      0.47      0.00
   11    9    6     -1.73      0.00
   12    9    6     -0.03      0.00
   13    9    6     -0.89      0.00
   14    9    6     -0.59      0.00
   15    9    6      0.69      0.00
   16    9    6     -2.04      0.00
   17    9    6      1.91      0.00
   18    9    6     -0.44      0.00
  -18   10    6     -0.87      0.00
  -17   10    6     -0.74      0.00
  -16   10    6     -0.11      0.00
  -15   10    6      0.79      0.00
  -14   10    6      1.36      0.00
  -13   10    6      0.47      0.00
  -12   10    6      0.87      0.00
  -11   10    6      0.11      0.00
  -10   10    6      4.48      0.00
   -9   10    6     -1.33      0.00
   -8   10    6     -3.53      0.00
   -7   10    6     -1.55      0.00
   -6   10    6     -1.90      0.00
   -5   10    6      0.26      0.00
   -4   10    6      3.75      0.00
   -3   10    6      3.29      0.00
   -2   10    6     -4.18      0.00
   -1   10    6      9.15      0.00
    0   10    6      5.11      0.00
    1   10    6      0.80      0.00
    2   10    6      1.97      0.00
    3   10    6     -0.16      0.00
    4   10    6      1.79      0.00
    5   10    6     -0.06      0.00
    6   10    6      1.41      0.00
    7   10    6      3.29      0.00
    8   10    6      2.11      0.00
    9   10    6      2.15      0.00
   10   10    6      1.51      0.00
   11   10    6      0.16      0.00
   12   10    6      0.56      0.00
   13   10    6     -0.28      0.00
   14   10    6      0.87      0.00
   15   10    6     -1.16      0.00
   16   10    6      2.35      0.00
   17   10    6     -0.22      0.00
   18   10    6     -0.64      0.00
  -18   11    6      0.75      0.00
  -17   11    6     -0.43      0.00
  -16   11    6      0.13      0.00
  -15   11    6     -0.11      0.00
  -14   11    6     -0.31      0.00
  -13   11    6      1.46      0.00
  -12   11    6      0.52      0.00
  -11   11    6      0.16      0.00
  -10   11    6      2.00      0.00
   -9   11    6     -4.28      0.00
   -8   11    6      6.97      0.00
   -7   11    6     -2.66      0.00
   -6   11    6      5.32      0.00
   -5   11    6     -5.93      0.00
   -4   11    6     -2.86      0.00
   -3   11    6      7.39      0.00
   -2   11    6     -2.11      0.00
   -1   11    6      7.60      0.00
    0   11    6    -15.96      0.00
    1   11    6     -1.10      0.00
    2   11    6     -5.03      0.00
    3   11    6     -5.83      0.00
    4   11    6      1.03      0.00
    5   11    6     -4.81      0.00
    6   11    6      5.39      0.00
    7   11    6     -5.07      0.00
    8   11    6      2.34      0.00
    9   11    6     -0.72      0.00
   10   11    6     -0.89      0.00
   11   11    6     -0.30      0.00
   12   11    6      0.00      0.00
   13   11    6     -0.92      0.00
   14   11    6     -0.94      0.00
   15   11    6      0.30      0.00
   16   11    6     -0.64      0.00
   17   11    6      1.28      0.00
   18   11    6      0.21      0.00
  -18   12    6     -0.28      0.00
  -17   12    6      0.54      0.00
  -16   12    6      0.13      0.00
  -15   12    6      1.01      0.00
  -14   12    6      1.94      0.00
  -13   12    6     -0.12      0.00
  -12   12    6      0.57      0.00
  -11   12    6      1.67      0.00
  -10   12    6      1.76      0.00
   -9   12    6      1.84      0.00
   -8   12    6     -2.33      0.00
   -7   12    6     -3.47      0.00
   -6   12    6     -3.35      0.00
   -5   12    6     -4.46      0.00
   -4   12    6      5.63      0.00
   -3   12    6      0.41      0.00
   -2   12    6      1.15      0.00
   -1   12    6      0.51      0.00
    0   12    6     -1.26      0.00
    1   12    6      5.18      0.00
    2   12    6     -3.83      0.00
    3   12    6      8.08      0.00
    4   12    6     -2.04      0.00
    5   12    6      3.37      0.00
    6   12    6      2.22      0.00
    7   12    6      0.11      0.00
    8   12    6      5.34      0.00
    9   12    6     -0.62      0.00
   10   12    6      1.53      0.00
   11   12    6     -0.21      0.00
   12   12    6      0.17      0.00
   13   12    6      0.11      0.00
   14   12    6     -0.10      0.00
   15   12    6      0.56      0.00
   16   12    6     -0.11      0.00
   17   12    6      0.79      0.00
  -18   13    6      0.45      0.00
  -17   13    6     -0.09      0.00
  -16   13    6      0.50      0.00
  -15   13    6     -1.20      0.00
  -14   13    6      0.18      0.00
  -13   13    6     -0.20      0.00
  -12   13    6      1.17      0.00
  -11   13    6      1.44      0.00
  -10   13    6     -0.96      0.00
   -9   13    6      0.72      0.00
   -8   13    6     -0.93      0.00
   -7   13    6      2.82      0.00
   -6   13    6      2.58      0.00
   -5   13    6     -3.08      0.00
   -4   13    6      1.83      0.00
   -3   13    6     -1.25      0.00
   -2   13    6      7.28      0.00
   -1   13    6      2.15      0.00
    0   13    6      1.58      0.00
    1   13    6     -0.61      0.00
    2   13    6      2.27      0.00
    3   13    6     -2.30      0.00
    4   13    6     -4.99      0.00
    5   13    6      3.13      0.00
    6   13    6     -1.57      0.00
    7   13    6      2.93      0.00
    8   13    6     -2.09      0.00
    9   13    6      0.70      0.00
   10   13    6     -0.80      0.00
   11   13    6     -0.72      0.00
   12   13    6      0.76      0.00
   13   13    6     -1.45      0.00
   14   13    6      0.72      0.00
   15   13    6     -1.15      0.00
   16   13    6      1.05      0.00
   17   13    6      0.78      0.00
  -18   14    6      0.10      0.00
  -17   14    6      1.41      0.00
  -16   14    6     -0.54      0.00
  -15   14    6      0.74      0.00
  -14   14    6      1.57      0.00
  -13   14    6     -1.19      0.00
  -12   14    6      0.85      0.00
  -11   14    6     -0.17      0.00
  -10   14    6      0.92      0.00
   -9   14    6      2.54      0.00
   -8   14    6     -0.54      0.00
   -7   14    6      0.98      0.00
   -6   14    6     -6.98      0.00
   -5   14    6     -1.27      0.00
   -4   14    6     -1.26      0.00
   -3   14    6      2.15      0.00
   -2   14    6      1.42      0.00
   -1   14    6     -5.15      0.00
    0   14    6     -3.67      0.00
    1   14    6     -1.58      0.00
    2   14    6     -2.28      0.00
    3   14    6      2.19      0.00
    4   14    6     -0.44      0.00
    5   14    6      1.75      0.00
    6   14    6      1.42      0.00
    7   14    6     -1.60      0.00
    8   14    6      1.91      0.00
    9   14    6     -0.22      0.00
   10   14    6     -0.99      0.00
   11   14    6      0.20      0.00
   12   14    6     -0.61      0.00
   13   14    6      0.93      0.00
   14   14    6     -1.49      0.00
   15   14    6      1.40      0.00
   16   14    6     -1.62      0.00
   17   14    6      0.59      0.00
  -17   15    6      0.02      0.00
  -16   15    6      1.05      0.00
  -15   15    6     -1.91      0.00
  -14   15    6      0.14      0.00
  -13   15    6     -1.91      0.00
  -12   15    6      1.07      0.00
  -11   15    6      0.10      0.00
  -10   15    6     -1.04      0.00
   -9   15    6      3.31      0.00
   -8   15    6     -5.51      0.00
   -7   15    6      3.75      0.00
   -6   15    6     -1.37      0.00
   -5   15    6     -0.20      0.00
   -4   15    6      1.36      0.00
   -3   15    6     -3.77      0.00
   -2   15    6      5.84      0.00
   -1   15    6     -2.74      0.00
    0   15    6     10.58      0.00
    1   15    6     -1.72      0.00
    2   15    6      7.51      0.00
    3   15    6     -2.39      0.00
    4   15    6     -3.92      0.00
    5   15    6      5.10      0.00
    6   15    6     -3.11      0.00
    7   15    6      4.54      0.00
    8   15    6     -1.77      0.00
    9   15    6      0.19      0.00
   10   15    6      0.26      0.00
   11   15    6     -1.06      0.00
   12   15    6      1.18      0.00
   13   15    6     -1.40      0.00
   14   15    6      1.48      0.00
   15   15    6     -1.31      0.00
   16   15    6      0.33      0.00
   17   15    6      0.66      0.00
  -17   16    6      1.65      0.00
  -16   16    6     -1.81      0.00
  -15   16    6      0.37      0.00
  -14   16    6      0.30      0.00
  -13   16    6     -1.09      0.00
  -12   16    6     -0.15      0.00
  -11   16    6     -2.23      0.00
  -10   16    6      1.23      0.00
   -9   16    6     -0.04      0.00
   -8   16    6      2.54      0.00
   -7   16    6      4.93      0.00
   -6   16    6     -6.01      0.00
   -5   16    6      1.45      0.00
   -4   16    6     -6.33      0.00
   -3   16    6      3.25      0.00
   -2   16    6     -0.66      0.00
   -1   16    6     -3.30      0.00
    0   16    6     -3.93      0.00
    1   16    6     -5.97      0.00
    2   16    6      1.70      0.00
    3   16    6     -4.30      0.00
    4   16    6      2.72      0.00
    5   16    6     -0.54      0.00
    6   16    6      0.67      0.00
    7   16    6     -1.41      0.00
    8   16    6     -1.56      0.00
    9   16    6      0.93      0.00
   10   16    6     -1.51      0.00
   11   16    6      0.43      0.00
   12   16    6     -0.07      0.00
   13   16    6      1.27      0.00
   14   16    6     -0.42      0.00
   15   16    6      0.14      0.00
   16   16    6     -0.65      0.00
   17   16    6     -0.31      0.00
  -17   17    6      0.35      0.00
  -16   17    6      1.02      0.00
  -15   17    6     -1.15      0.00
  -14   17    6     -0.35      0.00
  -13   17    6     -1.43      0.00
  -12   17    6     -0.27      0.00
  -11   17    6     -0.73      0.00
  -10   17    6      1.15      0.00
   -9   17    6      2.25      0.00
   -8   17    6     -1.80      0.00
   -7   17    6     -0.07      0.00
   -6   17    6     -2.63      0.00
   -5   17    6      0.69      0.00
   -4   17    6     -2.03      0.00
   -3   17    6     -0.36      0.00
   -2   17    6     -4.10      0.00
   -1   17    6      0.24      0.00
    0   17    6      3.27      0.00
    1   17    6      0.18      0.00
    2   17    6      4.34      0.00
    3   17    6     -4.22      0.00
    4   17    6      1.14      0.00
    5   17    6      0.66      0.00
    6   17    6      2.01      0.00
    7   17    6     -0.55      0.00
    8   17    6      1.74      0.00
    9   17    6      0.08      0.00
   10   17    6      0.22      0.00
   11   17    6     -0.14      0.00
   12   17    6      0.65      0.00
   13   17    6     -0.41      0.00
   14   17    6      0.05      0.00
   15   17    6     -0.38      0.00
   16   17    6     -1.70      0.00
   17   17    6      0.00      0.00
  -17   18    6      0.94      0.00
  -16   18    6     -2.24      0.00
  -15   18    6      0.10      0.00
  -14   18    6     -0.51      0.00
  -13   18    6     -0.11      0.00
  -12   18    6     -2.36      0.00
  -11   18    6     -0.94      0.00
  -10   18    6     -0.78      0.00
   -9   18    6     -1.76      0.00
   -8   18    6      4.97      0.00
   -7   18    6      3.65      0.00
   -6   18    6      1.37      0.00
   -5   18    6     -1.55      0.00
   -4   18    6     -2.69      0.00
   -3   18    6     -1.01      0.00
   -2   18    6      0.44      0.00
   -1   18    6      1.31      0.00
    0   18    6     -5.16      0.00
    1   18    6     -0.36      0.00
    2   18    6      0.39      0.00
    3   18    6     -0.47      0.00
    4   18    6      1.51      0.00
    5   18    6      1.44      0.00
    6   18    6     -0.32      0.00
    7   18    6     -1.12      0.00
    8   18    6     -0.06      0.00
    9   18    6     -0.36      0.00
   10   18    6      0.95      0.00
   11   18    6      0.26      0.00
   12   18    6      1.22      0.00
   13   18    6      0.78      0.00
   14   18    6      2.08      0.00
   15   18    6     -1.27      0.00
   16   18    6      0.65      0.00
  -17   19    6      0.77      0.00
  -16   19    6      0.58      0.00
  -15   19    6      0.06      0.00
  -14   19    6     -0.37      0.00
  -13   19    6     -0.12      0.00
  -12   19    6     -1.06      0.00
  -11   19    6     -0.54      0.00
  -10   19    6      0.99      0.00
   -9   19    6      1.99      0.00
   -8   19    6      1.86      0.00
   -7   19    6     -1.81      0.00
   -6   19    6     -2.92      0.00
   -5   19    6      0.18      0.00
   -4   19    6     -2.49      0.00
   -3   19    6      1.28      0.00
   -2   19    6     -6.57      0.00
   -1   19    6      2.36      0.00
    0   19    6     -3.65      0.00
    1   19    6      1.69      0.00
    2   19    6     -1.92      0.00
    3   19    6     -2.89      0.00
    4   19    6      2.18      0.00
    5   19    6     -0.35      0.00
    6   19    6      3.33      0.00
    7   19    6     -2.39      0.00
    8   19    6      1.66      0.00
    9   19    6      1.58      0.00
   10   19    6     -0.75      0.00
   11   19    6      0.43      0.00
   12   19    6      0.10      0.00
   13   19    6      0.29      0.00
   14   19    6     -1.16      0.00
   15   19    6     -0.21      0.00
   16   19    6     -2.31      0.00
  -16   20    6     -1.49      0.00
  -15   20    6      0.34      0.00
  -14   20    6      0.00      0.00
  -13   20    6      0.07      0.00
  -12   20    6     -2.31      0.00
  -11   20    6      0.73      0.00
  -10   20    6     -2.61      0.00
   -9   20    6     -1.10      0.00
   -8   20    6      4.18      0.00
   -7   20    6      1.22      0.00
   -6   20    6      5.74      0.00
   -5   20    6     -3.24      0.00
   -4   20    6      1.12      0.00
   -3   20    6     -5.03      0.00
   -2   20    6      2.49      0.00
   -1   20    6      1.96      0.00
    0   20    6     -5.11      0.00
    1   20    6      4.67      0.00
    2   20    6     -1.04      0.00
    3   20    6      5.38      0.00
    4   20    6      0.04      0.00
    5   20    6      4.51      0.00
    6   20    6     -1.19      0.00
    7   20    6     -0.70      0.00
    8   20    6      2.28      0.00
    9   20    6     -1.64      0.00
   10   20    6      1.78      0.00
   11   20    6      0.56      0.00
   12   20    6      1.06      0.00
   13   20    6      0.07      0.00
   14   20    6      2.89      0.00
   15   20    6     -1.68      0.00
   16   20    6      0.68      0.00
  -16   21    6      0.08      0.00
  -15   21    6      0.16      0.00
  -14   21    6     -0.59      0.00
  -13   21    6      0.57      0.00
  -12   21    6     -0.45      0.00
  -11   21    6     -1.40      0.00
  -10   21    6     -1.10      0.00
   -9   21    6      2.65      0.00
   -8   21    6      1.51      0.00
   -7   21    6      0.29      0.00
   -6   21    6     -2.75      0.00
   -5   21    6      0.38      0.00
   -4   21    6     -0.53      0.00
   -3   21    6      1.20      0.00
   -2   21    6     -0.71      0.00
   -1   21    6      0.82      0.00
    0   21    6     -2.03      0.00
    1   21    6      1.05      0.00
    2   21    6     -4.34      0.00
    3   21    6      0.31      0.00
    4   21    6      0.33      0.00
    5   21    6      2.01      0.00
    6   21    6     -0.18      0.00
    7   21    6      0.36      0.00
    8   21    6     -0.83      0.00
    9   21    6      2.34      0.00
   10   21    6     -0.41      0.00
   11   21    6     -0.22      0.00
   12   21    6      0.10      0.00
   13   21    6      0.35      0.00
   14   21    6     -0.57      0.00
   15   21    6     -0.85      0.00
   16   21    6     -1.26      0.00
  -16   22    6     -0.58      0.00
  -15   22    6      1.12      0.00
  -14   22    6      0.62      0.00
  -13   22    6     -0.46      0.00
  -12   22    6     -0.20      0.00
  -11   22    6     -0.56      0.00
  -10   22    6     -1.07      0.00
   -9   22    6     -0.81      0.00
   -8   22    6      1.15      0.00
   -7   22    6      0.85      0.00
   -6   22    6      2.82      0.00
   -5   22    6     -0.18      0.00
   -4   22    6     -0.25      0.00
   -3   22    6     -3.78      0.00
   -2   22    6      1.99      0.00
   -1   22    6     -0.71      0.00
    0   22    6     -2.38      0.00
    1   22    6      1.96      0.00
    2   22    6      1.36      0.00
    3   22    6      4.75      0.00
    4   22    6      1.41      0.00
    5   22    6      3.87      0.00
    6   22    6     -1.40      0.00
    7   22    6      0.26      0.00
    8   22    6      0.96      0.00
    9   22    6     -0.37      0.00
   10   22    6     -0.47      0.00
   11   22    6      1.16      0.00
   12   22    6     -0.17      0.00
   13   22    6      0.11      0.00
   14   22    6      1.73      0.00
   15   22    6     -1.90      0.00
  -15   23    6     -0.38      0.00
  -14   23    6     -1.31      0.00
  -13   23    6      1.54      0.00
  -12   23    6      0.42      0.00
  -11   23    6     -2.50      0.00
  -10   23    6     -1.92      0.00
   -9   23    6      1.19      0.00
   -8   23    6      0.80      0.00
   -7   23    6      1.37      0.00
   -6   23    6     -1.10      0.00
   -5   23    6      0.75      0.00
   -4   23    6      0.22      0.00
   -3   23    6      2.24      0.00
   -2   23    6      2.62      0.00
   -1   23    6      0.51      0.00
    0   23    6      1.02      0.00
    1   23    6      0.54      0.00
    2   23    6     -2.13      0.00
    3   23    6      1.66      0.00
    4   23    6      0.74      0.00
    5   23    6      1.67      0.00
    6   23    6     -1.34      0.00
    7   23    6      1.47      0.00
    8   23    6     -0.63      0.00
    9   23    6      1.06      0.00
   10   23    6      0.74      0.00
   11   23    6     -0.81      0.00
   12   23    6     -0.16      0.00
   13   23    6      0.67      0.00
   14   23    6      0.27      0.00
   15   23    6     -0.65      0.00
  -15   24    6      1.41      0.00
  -14   24    6      0.39      0.00
  -13   24    6     -0.32      0.00
  -12   24    6      0.52      0.00
  -11   24    6     -2.16      0.00
  -10   24    6      1.68      0.00
   -9   24    6     -1.42      0.00
   -8   24    6     -0.89      0.00
   -7   24    6      0.88      0.00
   -6   24    6     -0.86      0.00
   -5   24    6      1.90      0.00
   -4   24    6     -1.53      0.00
   -3   24    6     -0.68      0.00
   -2   24    6      0.04      0.00
   -1   24    6     -1.89      0.00
    0   24    6     -0.07      0.00
    1   24    6     -2.01      0.00
    2   24    6      2.85      0.00
    3   24    6      1.36      0.00
    4   24    6      1.94      0.00
    5   24    6      1.06      0.00
    6   24    6     -1.37      0.00
    7   24    6      1.43      0.00
    8   24    6     -1.51      0.00
    9   24    6      1.39      0.00
   10   24    6     -1.84      0.00
   11   24    6      0.90      0.00
   12   24    6     -0.69      0.00
   13   24    6      1.05      0.00
   14   24    6      0.26      0.00
   15   24    6     -2.30      0.00
  -15   25    6     -0.55      0.00
  -14   25    6     -1.14      0.00
  -13   25    6      2.62      0.00
  -12   25    6      0.86      0.00
  -11   25    6     -1.35      0.00
  -10   25    6     -1.67      0.00
   -9   25    6     -1.05      0.00
   -8   25    6      0.79      0.00
   -7   25    6     -0.06      0.00
   -6   25    6      0.76      0.00
   -5   25    6     -0.26      0.00
   -4   25    6      0.07      0.00
   -3   25    6      2.01      0.00
   -2   25    6      0.99      0.00
   -1   25    6      1.80      0.00
    0   25    6      0.47      0.00
    1   25    6      0.86      0.00
    2   25    6      1.10      0.00
    3   25    6      0.96      0.00
    4   25    6      2.55      0.00
    5   25    6     -0.99      0.00
    6   25    6      0.92      0.00
    7   25    6     -0.06      0.00
    8   25    6      1.31      0.00
    9   25    6      0.11      0.00
   10   25    6      0.44      0.00
   11   25    6     -0.52      0.00
   12   25    6     -0.41      0.00
   13   25    6      1.24      0.00
   14   25    6     -0.03      0.00
  -14   26    6     -0.04      0.00
  -13   26    6      0.08      0.00
  -12   26    6     -0.16      0.00
  -11   26    6     -1.53      0.00
  -10   26    6      2.45      0.00
   -9   26    6     -1.09      0.00
   -8   26    6     -1.07      0.00
   -7   26    6      0.55      0.00
   -6   26    6     -0.86      0.00
   -5   26    6      0.80      0.00
   -4   26    6      0.31      0.00
   -3   26    6      0.28      0.00
   -2   26    6     -0.40      0.00
   -1   26    6     -0.57      0.00
    0   26    6      0.37      0.00
    1   26    6     -1.21      0.00
    2   26    6      1.10      0.00
    3   26    6      0.26      0.00
    4   26    6     -0.09      0.00
    5   26    6     -0.43      0.00
    6   26    6     -1.35      0.00
    7   26    6      1.56      0.00
    8   26    6     -0.93      0.00
    9   26    6      0.81      0.00
   10   26    6     -0.48      0.00
   11   26    6      0.09      0.00
   12   26    6     -0.37      0.00
   13   26    6      1.94      0.00
   14   26    6     -0.32      0.00
  -14   27    6      0.15      0.00
  -13   27    6      2.25      0.00
  -12   27    6      1.35      0.00
  -11   27    6      1.02      0.00
  -10   27    6     -1.76      0.00
   -9   27    6     -1.29      0.00
   -8   27    6     -0.23      0.00
   -7   27    6     -0.86      0.00
   -6   27    6      0.85      0.00
   -5   27    6     -1.30      0.00
   -4   27    6      0.62      0.00
   -3   27    6     -0.66      0.00
   -2   27    6     -0.19      0.00
   -1   27    6      1.44      0.00
    0   27    6     -0.72      0.00
    1   27    6      0.34      0.00
    2   27    6      2.32      0.00
    3   27    6     -0.37      0.00
    4   27    6      2.26      0.00
    5   27    6     -1.88      0.00
    6   27    6      1.90      0.00
    7   27    6     -0.31      0.00
    8   27    6      1.16      0.00
    9   27    6      0.72      0.00
   10   27    6     -0.79      0.00
   11   27    6     -0.59      0.00
   12   27    6      0.38      0.00
   13   27    6      1.05      0.00
  -13   28    6     -0.18      0.00
  -12   28    6      0.27      0.00
  -11   28    6     -0.40      0.00
  -10   28    6      1.60      0.00
   -9   28    6     -0.17      0.00
   -8   28    6     -0.70      0.00
   -7   28    6      0.66      0.00
   -6   28    6      0.28      0.00
   -5   28    6      0.34      0.00
   -4   28    6      1.60      0.00
   -3   28    6      0.42      0.00
   -2   28    6      0.79      0.00
   -1   28    6      0.71      0.00
    0   28    6      0.80      0.00
    1   28    6      1.46      0.00
    2   28    6     -0.12      0.00
    3   28    6      0.10      0.00
    4   28    6     -1.21      0.00
    5   28    6     -0.90      0.00
    6   28    6     -0.62      0.00
    7   28    6     -0.06      0.00
    8   28    6      1.88      0.00
    9   28    6     -0.91      0.00
   10   28    6      0.99      0.00
   11   28    6      0.08      0.00
   12   28    6      0.04      0.00
   13   28    6      1.67      0.00
  -13   29    6      0.96      0.00
  -12   29    6      1.87      0.00
  -11   29    6      1.65      0.00
  -10   29    6     -1.25      0.00
   -9   29    6     -0.58      0.00
   -8   29    6     -1.23      0.00
   -7   29    6     -0.13      0.00
   -6   29    6     -0.14      0.00
   -5   29    6     -0.64      0.00
   -4   29    6      0.84      0.00
   -3   29    6     -2.13      0.00
   -2   29    6      0.43      0.00
   -1   29    6     -0.30      0.00
    0   29    6     -0.02      0.00
    1   29    6     -1.15      0.00
    2   29    6      1.20      0.00
    3   29    6     -1.65      0.00
    4   29    6      0.09      0.00
    5   29    6     -0.79      0.00
    6   29    6      0.28      0.00
    7   29    6      1.02      0.00
    8   29    6     -0.52      0.00
    9   29    6      0.84      0.00
   10   29    6     -0.87      0.00
   11   29    6     -1.36      0.00
   12   29    6      1.33      0.00
  -12   30    6      1.45      0.00
  -11   30    6      0.03      0.00
  -10   30    6      0.87      0.00
   -9   30    6     -0.05      0.00
   -8   30    6     -0.14      0.00
   -7   30    6      0.61      0.00
   -6   30    6      0.72      0.00
   -5   30    6      1.25      0.00
   -4   30    6      0.45      0.00
   -3   30    6      1.51      0.00
   -2   30    6      1.16      0.00
   -1   30    6      0.64      0.00
    0   30    6      1.45      0.00
    1   30    6      1.58      0.00
    2   30    6      0.87      0.00
    3   30    6     -0.85      0.00
    4   30    6      0.34      0.00
    5   30    6     -1.48      0.00
    6   30    6      0.88      0.00
    7   30    6     -1.61      0.00
    8   30    6      3.09      0.00
    9   30    6     -0.69      0.00
   10   30    6      0.69      0.00
   11   30    6      0.79      0.00
   12   30    6      0.24      0.00
  -12   31    6      1.67      0.00
  -11   31    6      0.48      0.00
  -10   31    6      0.28      0.00
   -9   31    6     -0.59      0.00
   -8   31    6     -0.51      0.00
   -7   31    6      0.65      0.00
   -6   31    6     -0.39      0.00
   -5   31    6      0.54      0.00
   -4   31    6      0.19      0.00
   -3   31    6     -0.94      0.00
   -2   31    6      0.19      0.00
   -1   31    6     -0.69      0.00
    0   31    6      0.53      0.00
    1   31    6     -1.75      0.00
    2   31    6     -1.10      0.00
    3   31    6     -2.20      0.00
    4   31    6     -1.59      0.00
    5   31    6     -0.02      0.00
    6   31    6     -0.96      0.00
    7   31    6      1.04      0.00
    8   31    6     -0.60      0.00
    9   31    6     -0.24      0.00
   10   31    6      0.08      0.00
   11   31    6     -1.09      0.00
  -11   32    6      0.44      0.00
  -10   32    6      0.62      0.00
   -9   32    6     -0.48      0.00
   -8   32    6      0.80      0.00
   -7   32    6     -0.19      0.00
   -6   32    6      1.37      0.00
   -5   32    6      0.98      0.00
   -4   32    6     -0.25      0.00
   -3   32    6      2.26      0.00
   -2   32    6      0.27      0.00
   -1   32    6      0.01      0.00
    0   32    6      0.92      0.00
    1   32    6     -0.12      0.00
    2   32    6      1.42      0.00
    3   32    6     -0.98      0.00
    4   32    6      1.72      0.00
    5   32    6     -1.28      0.00
    6   32    6      1.51      0.00
    7   32    6     -1.10      0.00
    8   32    6      1.53      0.00
    9   32    6      1.24      0.00
   10   32    6     -0.05      0.00
   11   32    6      1.05      0.00
  -10   33    6      1.06      0.00
   -9   33    6     -0.86      0.00
   -8   33    6      0.58      0.00
   -7   33    6      1.04      0.00
   -6   33    6     -0.38      0.00
   -5   33    6      0.52      0.00
   -4   33    6     -0.19      0.00
   -3   33    6      0.09      0.00
   -2   33    6     -1.14      0.00
   -1   33    6      0.79      0.00
    0   33    6     -0.58      0.00
    1   33    6     -0.67      0.00
    2   33    6     -2.34      0.00
    3   33    6     -1.32      0.00
    4   33    6     -1.64      0.00
    5   33    6      0.03      0.00
    6   33    6     -0.18      0.00
    7   33    6     -0.59      0.00
    8   33    6      0.77      0.00
    9   33    6     -0.74      0.00
   10   33    6      0.35      0.00
  -10   34    6      0.58      0.00
   -9   34    6     -0.68      0.00
   -8   34    6      1.35      0.00
   -7   34    6     -0.87      0.00
   -6   34    6      1.69      0.00
   -5   34    6     -0.24      0.00
   -4   34    6      0.89      0.00
   -3   34    6      1.48      0.00
   -2   34    6      0.17      0.00
   -1   34    6     -0.48      0.00
    0   34    6     -0.33      0.00
    1   34    6     -0.73      0.00
    2   34    6      0.34      0.00
    3   34    6      0.46      0.00
    4   34    6      1.02      0.00
    5   34    6      0.01      0.00
    6   34    6      0.64      0.00
    7   34    6      0.57      0.00
    8   34    6     -0.30      0.00
    9   34    6      2.17      0.00
   -9   35    6     -0.85      0.00
   -8   35    6      0.64      0.00
   -7   35    6      1.12      0.00
   -6   35    6     -1.32      0.00
   -5   35    6     -0.15      0.00
   -4   35    6     -0.27      0.00
   -3   35    6     -0.48      0.00
   -2   35    6     -1.73      0.00
   -1   35    6      2.20      0.00
    0   35    6     -1.51      0.00
    1   35    6      0.34      0.00
    2   35    6     -0.94      0.00
    3   35    6      0.24      0.00
    4   35    6     -0.65      0.00
    5   35    6      0.26      0.00
    6   35    6      0.99      0.00
    7   35    6     -1.58      0.00
    8   35    6      1.07      0.00
   -8   36    6      1.05      0.00
   -7   36    6     -0.90      0.00
   -6   36    6      0.72      0.00
   -5   36    6     -0.35      0.00
   -4   36    6      1.59      0.00
   -3   36    6      0.41      0.00
   -2   36    6      1.06      0.00
   -1   36    6     -0.62      0.00
    0   36    6     -1.09      0.00
    1   36    6      0.23      0.00
    2   36    6     -0.37      0.00
    3   36    6      1.28      0.00
    4   36    6      0.10      0.00
    5   36    6      0.78      0.00
    6   36    6     -0.18      0.00
    7   36    6      1.21      0.00
   -7   37    6      0.63      0.00
   -6   37    6     -2.00      0.00
   -5   37    6     -0.38      0.00
   -4   37    6     -0.64      0.00
   -3   37    6     -0.98      0.00
   -2   37    6     -1.17      0.00
   -1   37    6      2.14      0.00
    0   37    6     -1.02      0.00
    1   37    6     -0.12      0.00
    2   37    6      1.43      0.00
    3   37    6      0.99      0.00
    4   37    6      0.06      0.00
    5   37    6      0.48      0.00
    6   37    6      0.94      0.00
   -5   38    6      0.44      0.00
   -4   38    6      0.82      0.00
   -3   38    6      0.38      0.00
   -2   38    6      1.22      0.00
   -1   38    6     -0.35      0.00
    0   38    6     -1.42      0.00
    1   38    6      1.11      0.00
    2   38    6      0.14      0.00
    3   38    6      0.19      0.00
    4   38    6      0.16      0.00
    5   38    6      0.17      0.00
   -3   39    6     -0.48      0.00
   -2   39    6     -0.33      0.00
   -1   39    6      1.21      0.00
    0   39    6     -0.23      0.00
    1   39    6     -0.81      0.00
    2   39    6      1.98      0.00
  -19    1    7     -0.73      0.00
  -18    1    7     -0.05      0.00
  -17    1    7     -0.21      0.00
  -16    1    7     -1.78      0.00
  -15    1    7      1.70      0.00
  -14    1    7     -1.35      0.00
  -13    1    7      0.83      0.00
  -12    1    7     -0.89      0.00
  -11    1    7      2.63      0.00
  -10    1    7     -9.10      0.00
   -9    1    7      3.38      0.00
   -8    1    7     -3.58      0.00
   -7    1    7     -3.18      0.00
   -6    1    7      2.57      0.00
   -5    1    7     -4.85      0.00
   -4    1    7      9.56      0.00
   -3    1    7    -15.85      0.00
   -2    1    7      3.65      0.00
   -1    1    7     -1.09      0.00
    0    1    7     -1.79      0.00
    1    1    7     -5.34      0.00
    2    1    7     -5.21      0.00
    3    1    7     12.96      0.00
    5    1    7      9.49      0.00
    6    1    7     -4.15      0.00
    7    1    7     -2.58      0.00
    8    1    7      3.53      0.00
    9    1    7     -2.29      0.00
   10    1    7      1.28      0.00
   11    1    7     -0.86      0.00
   12    1    7      0.23      0.00
   13    1    7      0.60      0.00
   14    1    7     -2.79      0.00
   15    1    7      0.76      0.00
   16    1    7     -0.45      0.00
   17    1    7      0.80      0.00
   18    1    7     -0.19      0.00
  -19    2    7      0.70      0.00
  -18    2    7     -0.14      0.00
  -17    2    7     -0.55      0.00
  -16    2    7     -1.02      0.00
  -15    2    7     -0.36      0.00
  -14    2    7     -1.75      0.00
  -13    2    7      0.31      0.00
  -12    2    7      1.90      0.00
  -11    2    7     -2.11      0.00
  -10    2    7      0.91      0.00
   -9    2    7      0.90      0.00
   -8    2    7     -1.07      0.00
   -7    2    7      3.51      0.00
   -6    2    7     -0.60      0.00
   -5    2    7     -3.15      0.00
   -4    2    7     -6.79      0.00
   -3    2    7    -11.72      0.00
   -2    2    7      6.98      0.00
   -1    2    7     -6.90      0.00
    0    2    7      6.63      0.00
    1    2    7     -7.65      0.00
    2    2    7      5.72      0.00
    3    2    7      0.67      0.00
    4    2    7     -4.54      0.00
    5    2    7      8.27      0.00
    6    2    7     -7.70      0.00
    7    2    7      3.47      0.00
    8    2    7     -1.99      0.00
    9    2    7     -2.57      0.00
   10    2    7      0.88      0.00
   11    2    7      0.72      0.00
   12    2    7      0.79      0.00
   13    2    7     -1.38      0.00
   14    2    7      0.61      0.00
   15    2    7      1.90      0.00
   16    2    7      0.00      0.00
   17    2    7      2.66      0.00
   18    2    7     -0.22      0.00
  -18    3    7     -0.86      0.00
  -17    3    7      0.65      0.00
  -16    3    7     -0.99      0.00
  -15    3    7      0.87      0.00
  -14    3    7     -0.26      0.00
  -13    3    7      0.38      0.00
  -12    3    7      0.99      0.00
  -11    3    7     -0.67      0.00
  -10    3    7     -1.56      0.00
   -9    3    7     -0.36      0.00
   -8    3    7     -0.59      0.00
   -7    3    7     -0.14      0.00
   -6    3    7     -5.15      0.00
   -5    3    7      2.52      0.00
   -4    3    7     -2.36      0.00
   -3    3    7      0.61      0.00
   -2    3    7     -4.95      0.00
   -1    3    7      3.23      0.00
    0    3    7     -0.65      0.00
    1    3    7     -7.22      0.00
    2    3    7      9.84      0.00
    4    3    7      2.69      0.00
    6    3    7      1.93      0.00
    7    3    7      1.63      0.00
    8    3    7      0.26      0.00
    9    3    7      3.05      0.00
   10    3    7     -0.90      0.00
   11    3    7      0.39      0.00
   12    3    7     -0.51      0.00
   13    3    7      0.57      0.00
   14    3    7     -1.01      0.00
   15    3    7     -0.73      0.00
   16    3    7      0.78      0.00
   17    3    7     -0.16      0.00
   18    3    7     -0.03      0.00
  -18    4    7     -0.30      0.00
  -17    4    7     -0.42      0.00
  -16    4    7     -1.63      0.00
  -15    4    7     -0.57      0.00
  -14    4    7     -2.07      0.00
  -13    4    7      1.03      0.00
  -12    4    7      2.00      0.00
  -11    4    7     -0.65      0.00
  -10    4    7      2.71      0.00
   -8    4    7      4.17      0.00
   -7    4    7      1.34      0.00
   -6    4    7      4.01      0.00
   -5    4    7     -3.34      0.00
   -4    4    7     -8.11      0.00
   -3    4    7    -13.31      0.00
   -2    4    7      2.11      0.00
   -1    4    7      3.38      0.00
    0    4    7     -2.59      0.00
    1    4    7      3.12      0.00
    2    4    7      1.79      0.00
    3    4    7      2.56      0.00
    4    4    7     -2.53      0.00
    5    4    7      3.09      0.00
    6    4    7      0.42      0.00
    7    4    7     -1.26      0.00
    8    4    7      1.64      0.00
    9    4    7     -3.01      0.00
   10    4    7      0.39      0.00
   11    4    7      2.74      0.00
   12    4    7      0.80      0.00
   13    4    7     -1.11      0.00
   14    4    7     -0.15      0.00
   15    4    7      2.81      0.00
   16    4    7     -0.48      0.00
   17    4    7      2.98      0.00
   18    4    7     -0.78      0.00
  -18    5    7     -1.43      0.00
  -17    5    7      2.12      0.00
  -16    5    7     -0.51      0.00
  -15    5    7      0.27      0.00
  -14    5    7      0.13      0.00
  -13    5    7     -0.11      0.00
  -12    5    7      1.30      0.00
  -11    5    7     -2.16      0.00
  -10    5    7      2.39      0.00
   -9    5    7     -2.14      0.00
   -8    5    7      2.92      0.00
   -7    5    7      0.25      0.00
   -6    5    7     -6.64      0.00
   -5    5    7      3.39      0.00
   -4    5    7     -6.86      0.00
   -3    5    7      9.77      0.00
   -2    5    7     -5.31      0.00
   -1    5    7      2.05      0.00
    0    5    7     -1.21      0.00
    1    5    7     -3.45      0.00
    2    5    7     12.89      0.00
    3    5    7      0.08      0.00
    4    5    7     10.72      0.00
    5    5    7     -5.34      0.00
    6    5    7      5.40      0.00
    7    5    7      3.15      0.00
    8    5    7      0.16      0.00
    9    5    7      3.85      0.00
   10    5    7     -0.91      0.00
   11    5    7      0.89      0.00
   12    5    7     -0.31      0.00
   13    5    7      0.25      0.00
   14    5    7      1.23      0.00
   15    5    7     -1.56      0.00
   16    5    7      1.14      0.00
   17    5    7     -0.46      0.00
   18    5    7      0.10      0.00
  -18    6    7     -0.19      0.00
  -17    6    7      0.49      0.00
  -16    6    7     -1.49      0.00
  -15    6    7     -0.29      0.00
  -14    6    7     -1.03      0.00
  -13    6    7      1.22      0.00
  -12    6    7      0.47      0.00
  -11    6    7      2.32      0.00
  -10    6    7      2.09      0.00
   -9    6    7     -1.97      0.00
   -7    6    7     -1.71      0.00
   -6    6    7      6.25      0.00
   -5    6    7      0.07      0.00
   -4    6    7     -3.52      0.00
   -3    6    7     -9.64      0.00
   -2    6    7     -3.45      0.00
   -1    6    7     14.23      0.00
    0    6    7     -8.65      0.00
    1    6    7     17.87      0.00
    2    6    7     -1.57      0.00
    3    6    7      6.30      0.00
    4    6    7      1.00      0.00
    5    6    7     -3.44      0.00
    6    6    7      9.54      0.00
    7    6    7     -4.40      0.00
    8    6    7      3.19      0.00
    9    6    7     -1.18      0.00
   10    6    7     -1.59      0.00
   11    6    7      3.68      0.00
   12    6    7     -0.19      0.00
   13    6    7      0.27      0.00
   14    6    7     -1.13      0.00
   15    6    7      2.19      0.00
   16    6    7     -0.21      0.00
   17    6    7      1.06      0.00
   18    6    7     -0.45      0.00
  -18    7    7     -0.81      0.00
  -17    7    7      2.88      0.00
  -16    7    7     -0.10      0.00
  -15    7    7      0.24      0.00
  -14    7    7     -0.13      0.00
  -13    7    7     -0.10      0.00
  -12    7    7      0.13      0.00
  -11    7    7     -0.10      0.00
  -10    7    7     -1.01      0.00
   -9    7    7      0.15      0.00
   -8    7    7      3.84      0.00
   -7    7    7     -2.03      0.00
   -6    7    7     -0.29      0.00
   -5    7    7     -3.16      0.00
   -4    7    7     -2.38      0.00
   -3    7    7      3.57      0.00
   -2    7    7      2.62      0.00
   -1    7    7     -6.12      0.00
    0    7    7     -2.79      0.00
    1    7    7      2.23      0.00
    2    7    7      0.62      0.00
    3    7    7      8.07      0.00
    4    7    7      2.39      0.00
    5    7    7      0.42      0.00
    6    7    7      4.00      0.00
    7    7    7      1.09      0.00
    8    7    7      2.81      0.00
    9    7    7     -0.88      0.00
   10    7    7      0.70      0.00
   11    7    7      0.00      0.00
   12    7    7      0.34      0.00
   13    7    7     -0.67      0.00
   14    7    7      1.34      0.00
   15    7    7     -0.88      0.00
   16    7    7     -0.92      0.00
   17    7    7      0.38      0.00
   18    7    7      0.02      0.00
  -18    8    7     -0.23      0.00
  -17    8    7      1.07      0.00
  -16    8    7     -1.04      0.00
  -15    8    7     -0.19      0.00
  -14    8    7      0.17      0.00
  -13    8    7     -0.13      0.00
  -12    8    7     -0.56      0.00
  -11    8    7      2.58      0.00
  -10    8    7     -0.94      0.00
   -9    8    7      1.25      0.00
   -8    8    7     -0.46      0.00
   -7    8    7      0.66      0.00
   -6    8    7      0.80      0.00
   -5    8    7      4.54      0.00
   -4    8    7      1.82      0.00
   -3    8    7     -8.36      0.00
   -2    8    7     -0.55      0.00
   -1    8    7      6.47      0.00
    0    8    7      2.24      0.00
    1    8    7     15.00      0.00
    2    8    7      3.54      0.00
    3    8    7      8.33      0.00
    4    8    7      0.47      0.00
    5    8    7      0.59      0.00
    6    8    7      4.43      0.00
    7    8    7      1.88      0.00
    8    8    7     -1.40      0.00
    9    8    7      1.37      0.00
   10    8    7     -2.09      0.00
   11    8    7      2.33      0.00
   12    8    7     -0.86      0.00
   13    8    7      1.33      0.00
   14    8    7     -0.48      0.00
   15    8    7      0.57      0.00
   16    8    7      0.84      0.00
   17    8    7     -1.07      0.00
   18    8    7      0.54      0.00
  -18    9    7      0.36      0.00
  -17    9    7      2.03      0.00
  -16    9    7      0.46      0.00
  -15    9    7     -0.11      0.00
  -14    9    7     -0.35      0.00
  -13    9    7     -0.18      0.00
  -12    9    7     -0.29      0.00
  -11    9    7      0.92      0.00
  -10    9    7     -4.35      0.00
   -9    9    7      1.45      0.00
   -8    9    7      2.06      0.00
   -7    9    7     -1.60      0.00
   -6    9    7      3.60      0.00
   -5    9    7     -3.79      0.00
   -4    9    7     -1.85      0.00
   -3    9    7     -2.06      0.00
   -2    9    7      4.62      0.00
   -1    9    7    -10.11      0.00
    0    9    7     -1.35      0.00
    1    9    7      0.73      0.00
    2    9    7     -5.08      0.00
    3    9    7      6.66      0.00
    4    9    7     -2.53      0.00
    5    9    7      3.32      0.00
    6    9    7      2.02      0.00
    7    9    7     -0.26      0.00
    8    9    7      1.31      0.00
    9    9    7     -2.91      0.00
   10    9    7      0.09      0.00
   11    9    7     -0.49      0.00
   12    9    7      0.35      0.00
   13    9    7     -1.10      0.00
   14    9    7     -0.45      0.00
   15    9    7      0.14      0.00
   16    9    7     -2.93      0.00
   17    9    7      1.00      0.00
  -18   10    7     -0.65      0.00
  -17   10    7      0.77      0.00
  -16   10    7     -0.79      0.00
  -15   10    7     -0.36      0.00
  -14   10    7      0.77      0.00
  -13   10    7     -1.31      0.00
  -12   10    7     -0.33      0.00
  -11   10    7      0.03      0.00
  -10   10    7     -1.75      0.00
   -9   10    7      3.90      0.00
   -8   10    7     -5.82      0.00
   -7   10    7      3.40      0.00
   -6   10    7     -4.93      0.00
   -5   10    7      5.71      0.00
   -4   10    7      2.24      0.00
   -3   10    7     -6.52      0.00
   -2   10    7      0.45      0.00
   -1   10    7     -6.35      0.00
    0   10    7     10.47      0.00
    1   10    7      2.05      0.00
    2   10    7      7.32      0.00
    3   10    7      5.91      0.00
    4   10    7      0.28      0.00
    5   10    7      5.13      0.00
    6   10    7     -3.26      0.00
    7   10    7      6.51      0.00
    8   10    7     -3.62      0.00
    9   10    7      1.94      0.00
   10   10    7      0.22      0.00
   11   10    7      0.66      0.00
   12   10    7     -0.57      0.00
   13   10    7      1.62      0.00
   14   10    7      0.92      0.00
   15   10    7     -0.32      0.00
   16   10    7      0.76      0.00
   17   10    7     -1.61      0.00
  -18   11    7      0.54      0.00
  -17   11    7      0.37      0.00
  -16   11    7      0.37      0.00
  -15   11    7     -0.89      0.00
  -14   11    7     -0.82      0.00
  -13   11    7     -0.45      0.00
  -12   11    7     -0.23      0.00
  -11   11    7     -0.76      0.00
  -10   11    7     -2.87      0.00
   -9   11    7     -1.04      0.00
   -8   11    7      0.54      0.00
   -7   11    7      0.84      0.00
   -6   11    7      3.56      0.00
   -5   11    7      2.45      0.00
   -4   11    7     -3.87      0.00
   -3   11    7     -0.09      0.00
   -2   11    7     -0.38      0.00
   -1   11    7     -4.50      0.00
    0   11    7      2.76      0.00
    1   11    7     -3.14      0.00
    2   11    7      0.62      0.00
    3   11    7     -3.35      0.00
    4   11    7      1.28      0.00
    5   11    7     -1.30      0.00
    6   11    7      0.95      0.00
    7   11    7      0.27      0.00
    8   11    7     -3.54      0.00
    9   11    7     -0.57      0.00
   10   11    7     -1.48      0.00
   11   11    7     -0.03      0.00
   12   11    7      0.26      0.00
   13   11    7     -0.38      0.00
   14   11    7     -1.02      0.00
   15   11    7     -0.06      0.00
   16   11    7     -1.62      0.00
   17   11    7      0.43      0.00
  -18   12    7     -0.70      0.00
  -17   12    7      0.33      0.00
  -16   12    7     -0.71      0.00
  -15   12    7      0.29      0.00
  -14   12    7      0.68      0.00
  -13   12    7     -0.03      0.00
  -12   12    7     -0.39      0.00
  -11   12    7     -1.51      0.00
  -10   12    7      0.08      0.00
   -9   12    7      0.89      0.00
   -8   12    7     -1.82      0.00
   -7   12    7      0.11      0.00
   -6   12    7     -3.98      0.00
   -5   12    7      2.37      0.00
   -4   12    7     -1.32      0.00
   -3   12    7     -0.78      0.00
   -2   12    7     -5.63      0.00
   -1   12    7     -4.82      0.00
    0   12    7      2.08      0.00
    1   12    7     -1.98      0.00
    2   12    7      1.96      0.00
    3   12    7      2.81      0.00
    4   12    7      3.40      0.00
    5   12    7      1.12      0.00
    6   12    7     -0.99      0.00
    7   12    7      0.99      0.00
    8   12    7      0.19      0.00
    9   12    7      0.21      0.00
   10   12    7      2.05      0.00
   11   12    7      0.17      0.00
   12   12    7     -0.45      0.00
   13   12    7      1.69      0.00
   14   12    7      0.65      0.00
   15   12    7      0.52      0.00
   16   12    7     -0.74      0.00
   17   12    7     -1.09      0.00
  -17   13    7     -1.02      0.00
  -16   13    7     -0.01      0.00
  -15   13    7     -1.21      0.00
  -14   13    7     -0.92      0.00
  -13   13    7      0.08      0.00
  -12   13    7     -0.54      0.00
  -11   13    7     -0.73      0.00
  -10   13    7     -0.27      0.00
   -9   13    7     -2.76      0.00
   -8   13    7      0.20      0.00
   -7   13    7     -0.34      0.00
   -6   13    7      4.68      0.00
   -5   13    7      3.36      0.00
   -4   13    7      0.22      0.00
   -3   13    7     -0.24      0.00
   -2   13    7     -2.76      0.00
   -1   13    7      2.21      0.00
    0   13    7      5.03      0.00
    1   13    7      0.03      0.00
    2   13    7      4.01      0.00
    3   13    7     -4.15      0.00
    4   13    7      3.00      0.00
    5   13    7     -3.00      0.00
    6   13    7     -0.13      0.00
    7   13    7      1.36      0.00
    8   13    7     -4.30      0.00
    9   13    7      0.56      0.00
   10   13    7     -0.62      0.00
   11   13    7     -0.21      0.00
   12   13    7      0.38      0.00
   13   13    7     -0.06      0.00
   14   13    7      0.08      0.00
   15   13    7     -1.20      0.00
   16   13    7      1.37      0.00
   17   13    7     -0.31      0.00
  -17   14    7      0.07      0.00
  -16   14    7     -0.86      0.00
  -15   14    7      1.27      0.00
  -14   14    7      0.23      0.00
  -13   14    7      2.13      0.00
  -12   14    7     -0.92      0.00
  -11   14    7     -0.20      0.00
  -10   14    7      0.53      0.00
   -9   14    7     -3.04      0.00
   -8   14    7      4.06      0.00
   -7   14    7     -3.51      0.00
   -6   14    7      0.56      0.00
   -5   14    7     -1.26      0.00
   -4   14    7     -2.65      0.00
   -3   14    7      3.11      0.00
   -2   14    7     -7.29      0.00
   -1   14    7      3.29      0.00
    0   14    7     -7.88      0.00
    1   14    7      1.38      0.00
    2   14    7     -5.58      0.00
    3   14    7      2.73      0.00
    4   14    7      4.22      0.00
    5   14    7     -3.39      0.00
    6   14    7      3.27      0.00
    7   14    7     -4.47      0.00
    8   14    7      2.74      0.00
    9   14    7     -0.39      0.00
   10   14    7      1.48      0.00
   11   14    7      0.56      0.00
   12   14    7     -0.71      0.00
   13   14    7      1.86      0.00
   14   14    7     -0.89      0.00
   15   14    7      1.54      0.00
   16   14    7     -1.52      0.00
   17   14    7     -1.13      0.00
  -17   15    7     -1.64      0.00
  -16   15    7      0.51      0.00
  -15   15    7     -0.90      0.00
  -14   15    7     -0.03      0.00
  -13   15    7      0.73      0.00
  -12   15    7     -0.25      0.00
  -11   15    7      1.36      0.00
  -10   15    7      0.11      0.00
   -9   15    7     -0.73      0.00
   -8   15    7     -1.15      0.00
   -7   15    7     -4.04      0.00
   -6   15    7      4.64      0.00
   -5   15    7     -1.33      0.00
   -4   15    7      5.97      0.00
   -3   15    7     -3.67      0.00
   -2   15    7     -0.45      0.00
   -1   15    7      2.66      0.00
    0   15    7      5.24      0.00
    1   15    7      5.24      0.00
    2   15    7      2.18      0.00
    3   15    7      3.54      0.00
    4   15    7      0.55      0.00
    5   15    7      0.89      0.00
    6   15    7     -1.00      0.00
    7   15    7      1.61      0.00
    8   15    7     -0.92      0.00
    9   15    7     -0.94      0.00
   10   15    7      0.99      0.00
   11   15    7     -1.09      0.00
   12   15    7      0.10      0.00
   13   15    7     -0.65      0.00
   14   15    7      0.31      0.00
   15   15    7     -1.14      0.00
   16   15    7      2.12      0.00
  -17   16    7     -0.26      0.00
  -16   16    7     -0.87      0.00
  -15   16    7      1.13      0.00
  -14   16    7      0.03      0.00
  -13   16    7      2.22      0.00
  -12   16    7     -0.28      0.00
  -11   16    7      1.46      0.00
  -10   16    7     -0.93      0.00
   -9   16    7     -2.75      0.00
   -8   16    7      3.21      0.00
   -7   16    7     -1.21      0.00
   -6   16    7      2.87      0.00
   -5   16    7     -1.74      0.00
   -4   16    7     -0.11      0.00
   -3   16    7      1.15      0.00
   -2   16    7      0.22      0.00
   -1   16    7      3.34      0.00
    0   16    7     -5.38      0.00
    1   16    7      1.32      0.00
    2   16    7     -5.96      0.00
    3   16    7      3.73      0.00
    4   16    7      0.88      0.00
    5   16    7     -1.84      0.00
    6   16    7      0.87      0.00
    7   16    7     -1.40      0.00
    8   16    7      0.37      0.00
    9   16    7      0.64      0.00
   10   16    7      0.59      0.00
   11   16    7      0.51      0.00
   12   16    7     -0.47      0.00
   13   16    7      1.47      0.00
   14   16    7     -1.06      0.00
   15   16    7      1.05      0.00
   16   16    7     -0.27      0.00
  -17   17    7     -1.21      0.00
  -16   17    7      1.30      0.00
  -15   17    7     -0.56      0.00
  -14   17    7      0.68      0.00
  -13   17    7      0.37      0.00
  -12   17    7      1.19      0.00
  -11   17    7      1.22      0.00
  -10   17    7      0.59      0.00
   -9   17    7      1.55      0.00
   -8   17    7     -3.32      0.00
   -7   17    7     -4.36      0.00
   -6   17    7     -0.48      0.00
   -5   17    7     -1.76      0.00
   -4   17    7      4.75      0.00
   -3   17    7     -1.93      0.00
   -2   17    7      1.13      0.00
   -1   17    7     -0.18      0.00
    0   17    7      6.19      0.00
    1   17    7      2.93      0.00
    2   17    7      2.42      0.00
    3   17    7      4.60      0.00
    4   17    7      0.14      0.00
    5   17    7      1.58      0.00
    6   17    7     -0.65      0.00
    7   17    7      0.52      0.00
    8   17    7      0.29      0.00
    9   17    7     -1.22      0.00
   10   17    7      0.19      0.00
   11   17    7     -1.15      0.00
   12   17    7     -0.57      0.00
   13   17    7     -0.72      0.00
   14   17    7     -1.37      0.00
   15   17    7      0.43      0.00
   16   17    7      0.39      0.00
  -16   18    7     -0.32      0.00
  -15   18    7      0.22      0.00
  -14   18    7      0.13      0.00
  -13   18    7      0.78      0.00
  -12   18    7      0.97      0.00
  -11   18    7      1.45      0.00
  -10   18    7     -1.08      0.00
   -9   18    7     -1.33      0.00
   -8   18    7     -1.09      0.00
   -7   18    7      2.01      0.00
   -6   18    7      2.52      0.00
   -5   18    7     -0.55      0.00
   -4   18    7      1.83      0.00
   -3   18    7     -1.69      0.00
   -2   18    7      5.80      0.00
   -1   18    7     -1.08      0.00
    1   18    7     -1.12      0.00
    2   18    7     -0.01      0.00
    3   18    7      2.80      0.00
    4   18    7     -0.97      0.00
    5   18    7      0.11      0.00
    6   18    7     -2.62      0.00
    7   18    7      2.77      0.00
    8   18    7     -1.60      0.00
    9   18    7     -0.11      0.00
   10   18    7      0.72      0.00
   11   18    7     -0.30      0.00
   12   18    7      0.05      0.00
   13   18    7      0.39      0.00
   14   18    7      0.33      0.00
   15   18    7      0.07      0.00
   16   18    7      1.47      0.00
  -16   19    7      0.95      0.00
  -15   19    7     -0.75      0.00
  -14   19    7      0.20      0.00
  -13   19    7     -0.07      0.00
  -12   19    7      2.03      0.00
  -11   19    7     -0.45      0.00
  -10   19    7      2.37      0.00
   -9   19    7      1.43      0.00
   -8   19    7     -3.27      0.00
   -7   19    7     -1.44      0.00
   -6   19    7     -5.58      0.00
   -5   19    7      1.31      0.00
   -4   19    7     -0.19      0.00
   -3   19    7      3.54      0.00
   -2   19    7     -0.13      0.00
   -1   19    7     -0.93      0.00
    0   19    7      6.70      0.00
    1   19    7     -2.98      0.00
    2   19    7      4.29      0.00
    3   19    7     -1.47      0.00
    4   19    7      1.63      0.00
    5   19    7     -2.36      0.00
    6   19    7      0.62      0.00
    7   19    7     -0.60      0.00
    8   19    7     -1.54      0.00
    9   19    7      0.74      0.00
   10   19    7     -1.37      0.00
   11   19    7     -0.49      0.00
   12   19    7     -0.74      0.00
   13   19    7      0.09      0.00
   14   19    7     -2.94      0.00
   15   19    7      1.55      0.00
   16   19    7     -0.98      0.00
  -16   20    7      0.18      0.00
  -15   20    7     -0.24      0.00
  -14   20    7      0.24      0.00
  -13   20    7     -0.46      0.00
  -12   20    7      0.70      0.00
  -11   20    7      1.22      0.00
  -10   20    7      0.64      0.00
   -9   20    7     -1.69      0.00
   -8   20    7     -2.19      0.00
   -7   20    7      0.93      0.00
   -6   20    7      2.02      0.00
   -5   20    7     -0.03      0.00
   -4   20    7      1.34      0.00
   -3   20    7     -1.63      0.00
   -2   20    7      2.94      0.00
   -1   20    7     -1.60      0.00
    0   20    7      2.40      0.00
    1   20    7     -0.60      0.00
    2   20    7      4.57      0.00
    3   20    7      0.41      0.00
    4   20    7      0.27      0.00
    5   20    7     -1.57      0.00
    6   20    7     -1.23      0.00
    7   20    7      1.28      0.00
    8   20    7      0.13      0.00
    9   20    7     -2.22      0.00
   10   20    7      0.51      0.00
   11   20    7     -0.47      0.00
   12   20    7      0.18      0.00
   13   20    7     -0.40      0.00
   14   20    7      0.96      0.00
   15   20    7      0.07      0.00
  -16   21    7     -0.01      0.00
  -15   21    7     -1.56      0.00
  -14   21    7     -0.62      0.00
  -13   21    7      0.06      0.00
  -12   21    7      0.98      0.00
  -11   21    7      0.07      0.00
  -10   21    7      2.16      0.00
   -9   21    7      0.64      0.00
   -8   21    7     -1.17      0.00
   -7   21    7      0.15      0.00
   -6   21    7     -4.46      0.00
   -5   21    7      0.81      0.00
   -4   21    7     -1.15      0.00
   -3   21    7      4.79      0.00
   -2   21    7     -1.06      0.00
   -1   21    7      0.87      0.00
    0   21    7      4.70      0.00
    1   21    7     -3.14      0.00
    2   21    7      2.78      0.00
    3   21    7     -4.05      0.00
    4   21    7      0.62      0.00
    5   21    7     -3.95      0.00
    6   21    7      1.15      0.00
    7   21    7     -0.72      0.00
    8   21    7     -1.95      0.00
    9   21    7      1.55      0.00
   10   21    7     -0.51      0.00
   11   21    7     -0.27      0.00
   12   21    7      0.10      0.00
   13   21    7      0.73      0.00
   14   21    7     -2.27      0.00
   15   21    7      1.63      0.00
  -15   22    7      0.02      0.00
  -14   22    7      0.69      0.00
  -13   22    7     -1.59      0.00
  -12   22    7     -0.51      0.00
  -11   22    7      1.73      0.00
  -10   22    7      1.70      0.00
   -9   22    7     -1.46      0.00
   -8   22    7     -0.86      0.00
   -7   22    7     -1.34      0.00
   -6   22    7      1.37      0.00
   -5   22    7     -0.27      0.00
   -4   22    7      0.88      0.00
   -3   22    7     -1.26      0.00
   -2   22    7     -1.28      0.00
   -1   22    7     -0.15      0.00
    0   22    7     -0.90      0.00
    1   22    7      1.51      0.00
    2   22    7      4.02      0.00
    3   22    7     -1.11      0.00
    4   22    7      0.49      0.00
    5   22    7     -2.70      0.00
    6   22    7      1.29      0.00
    7   22    7     -1.34      0.00
    8   22    7      1.66      0.00
    9   22    7     -2.16      0.00
   10   22    7     -0.88      0.00
   11   22    7      0.26      0.00
   12   22    7      0.20      0.00
   13   22    7     -0.65      0.00
   14   22    7      0.29      0.00
   15   22    7      0.47      0.00
  -15   23    7     -2.00      0.00
  -14   23    7     -0.67      0.00
  -13   23    7     -0.02      0.00
  -12   23    7     -0.03      0.00
  -11   23    7      1.94      0.00
  -10   23    7     -0.67      0.00
   -9   23    7      0.79      0.00
   -8   23    7     -0.08      0.00
   -7   23    7     -0.17      0.00
   -6   23    7     -0.29      0.00
   -5   23    7     -1.71      0.00
   -4   23    7      0.71      0.00
   -3   23    7      1.81      0.00
   -2   23    7      0.12      0.00
   -1   23    7      2.02      0.00
    0   23    7      2.02      0.00
    1   23    7      0.93      0.00
    2   23    7     -0.58      0.00
    3   23    7     -1.73      0.00
    4   23    7     -1.79      0.00
    5   23    7     -1.44      0.00
    6   23    7      0.81      0.00
    7   23    7     -0.87      0.00
    8   23    7      0.35      0.00
    9   23    7     -0.26      0.00
   10   23    7      1.56      0.00
   11   23    7     -0.37      0.00
   12   23    7      0.95      0.00
   13   23    7      0.29      0.00
   14   23    7     -0.19      0.00
  -14   24    7      1.12      0.00
  -13   24    7     -2.58      0.00
  -12   24    7     -1.03      0.00
  -11   24    7      1.45      0.00
  -10   24    7      1.54      0.00
   -9   24    7      0.09      0.00
   -8   24    7     -0.14      0.00
   -7   24    7     -1.16      0.00
   -6   24    7     -0.04      0.00
   -5   24    7     -0.10      0.00
   -4   24    7      1.05      0.00
   -3   24    7     -1.60      0.00
   -2   24    7     -0.87      0.00
   -1   24    7     -0.75      0.00
    0   24    7     -0.89      0.00
    1   24    7      1.79      0.00
    2   24    7      0.96      0.00
    3   24    7     -1.05      0.00
    4   24    7     -1.47      0.00
    5   24    7     -0.63      0.00
    6   24    7      0.26      0.00
    7   24    7     -0.38      0.00
    8   24    7      0.19      0.00
    9   24    7     -0.33      0.00
   10   24    7     -1.48      0.00
   11   24    7      0.57      0.00
   12   24    7      0.65      0.00
   13   24    7     -0.77      0.00
   14   24    7      0.01      0.00
  -14   25    7     -0.32      0.00
  -13   25    7     -0.19      0.00
  -12   25    7      0.53      0.00
  -11   25    7      2.45      0.00
  -10   25    7     -2.31      0.00
   -9   25    7      1.22      0.00
   -8   25    7     -0.39      0.00
   -7   25    7     -0.20      0.00
   -6   25    7      1.30      0.00
   -5   25    7     -1.44      0.00
   -4   25    7      0.49      0.00
   -3   25    7     -0.23      0.00
   -2   25    7      1.14      0.00
   -1   25    7      0.86      0.00
    0   25    7      0.72      0.00
    1   25    7      1.72      0.00
    2   25    7     -1.58      0.00
    3   25    7     -0.43      0.00
    4   25    7     -1.67      0.00
    5   25    7      0.77      0.00
    6   25    7      0.95      0.00
    7   25    7     -1.61      0.00
    8   25    7      1.65      0.00
    9   25    7     -1.84      0.00
   10   25    7      1.38      0.00
   11   25    7     -0.35      0.00
   12   25    7      0.76      0.00
   13   25    7     -0.95      0.00
   14   25    7      0.94      0.00
  -14   26    7      0.36      0.00
  -13   26    7     -2.40      0.00
  -12   26    7     -1.51      0.00
  -11   26    7     -0.24      0.00
  -10   26    7      1.30      0.00
   -9   26    7      0.52      0.00
   -8   26    7      0.53      0.00
   -7   26    7      0.16      0.00
   -6   26    7     -0.55      0.00
   -5   26    7      0.78      0.00
   -4   26    7      0.54      0.00
   -3   26    7     -0.22      0.00
   -2   26    7      1.01      0.00
   -1   26    7     -1.61      0.00
    0   26    7      1.57      0.00
    1   26    7      0.83      0.00
    2   26    7     -1.33      0.00
    3   26    7     -0.06      0.00
    4   26    7     -2.77      0.00
    5   26    7      1.75      0.00
    6   26    7     -2.30      0.00
    7   26    7      1.41      0.00
    8   26    7     -1.25      0.00
    9   26    7      0.22      0.00
   10   26    7     -0.12      0.00
   11   26    7      0.43      0.00
   12   26    7      0.69      0.00
   13   26    7     -0.69      0.00
  -13   27    7      0.23      0.00
  -12   27    7      0.79      0.00
  -11   27    7      2.00      0.00
  -10   27    7     -1.60      0.00
   -9   27    7      1.27      0.00
   -8   27    7     -0.38      0.00
   -7   27    7      0.04      0.00
   -6   27    7      0.70      0.00
   -5   27    7     -0.02      0.00
   -4   27    7     -0.77      0.00
   -3   27    7     -0.29      0.00
   -2   27    7      0.39      0.00
   -1   27    7     -0.61      0.00
    0   27    7      0.02      0.00
    1   27    7     -1.17      0.00
    2   27    7     -0.70      0.00
    3   27    7     -1.10      0.00
    4   27    7      0.31      0.00
    5   27    7      0.90      0.00
    6   27    7      1.29      0.00
    7   27    7     -1.30      0.00
    8   27    7     -0.46      0.00
    9   27    7     -0.94      0.00
   10   27    7     -0.73      0.00
   11   27    7     -0.47      0.00
   12   27    7      0.14      0.00
   13   27    7     -1.53      0.00
  -13   28    7     -1.24      0.00
  -12   28    7     -2.54      0.00
  -11   28    7     -1.47      0.00
  -10   28    7      0.61      0.00
   -9   28    7     -0.35      0.00
   -8   28    7      1.16      0.00
   -7   28    7      0.52      0.00
   -6   28    7      0.21      0.00
   -5   28    7      1.01      0.00
   -4   28    7     -0.32      0.00
   -3   28    7      1.97      0.00
   -2   28    7      0.69      0.00
   -1   28    7     -0.40      0.00
    0   28    7      1.79      0.00
    1   28    7      0.98      0.00
    2   28    7     -1.71      0.00
    3   28    7      1.67      0.00
    4   28    7     -1.68      0.00
    5   28    7      2.11      0.00
    6   28    7     -2.40      0.00
    7   28    7      0.51      0.00
    8   28    7     -0.27      0.00
    9   28    7     -0.62      0.00
   10   28    7      0.93      0.00
   11   28    7      0.72      0.00
   12   28    7     -0.33      0.00
  -12   29    7     -0.28      0.00
  -11   29    7      1.79      0.00
  -10   29    7     -0.57      0.00
   -9   29    7      1.21      0.00
   -8   29    7      0.02      0.00
   -7   29    7     -0.15      0.00
   -6   29    7      0.03      0.00
   -5   29    7     -0.44      0.00
   -4   29    7     -0.21      0.00
   -3   29    7     -0.88      0.00
   -2   29    7     -0.55      0.00
   -1   29    7     -0.78      0.00
    0   29    7     -0.87      0.00
    1   29    7     -2.60      0.00
    2   29    7     -0.39      0.00
    3   29    7     -0.49      0.00
    4   29    7      1.01      0.00
    5   29    7      1.03      0.00
    6   29    7      0.74      0.00
    7   29    7      0.70      0.00
    8   29    7     -3.00      0.00
    9   29    7      0.54      0.00
   10   29    7     -1.52      0.00
   11   29    7     -1.03      0.00
   12   29    7     -0.09      0.00
  -12   30    7     -2.61      0.00
  -11   30    7     -0.95      0.00
  -10   30    7     -0.76      0.00
   -9   30    7     -0.38      0.00
   -8   30    7      0.38      0.00
   -7   30    7      0.07      0.00
   -6   30    7      0.43      0.00
   -5   30    7     -0.06      0.00
   -4   30    7     -0.66      0.00
   -3   30    7      1.87      0.00
   -2   30    7     -0.51      0.00
   -1   30    7      0.98      0.00
    0   30    7     -0.10      0.00
    1   30    7      1.62      0.00
    2   30    7     -0.25      0.00
    3   30    7      3.01      0.00
    4   30    7      0.53      0.00
    5   30    7      1.19      0.00
    6   30    7     -0.44      0.00
    7   30    7     -1.42      0.00
    8   30    7      1.08      0.00
    9   30    7     -0.63      0.00
   10   30    7      0.17      0.00
   11   30    7      0.99      0.00
  -11   31    7      1.31      0.00
  -10   31    7     -0.04      0.00
   -9   31    7      1.14      0.00
   -8   31    7     -0.06      0.00
   -7   31    7      0.00      0.00
   -6   31    7     -0.86      0.00
   -5   31    7     -0.91      0.00
   -4   31    7      0.86      0.00
   -3   31    7     -2.11      0.00
   -2   31    7     -0.25      0.00
   -1   31    7     -0.41      0.00
    0   31    7     -1.27      0.00
    1   31    7     -1.07      0.00
    2   31    7     -0.63      0.00
    3   31    7      1.11      0.00
    4   31    7      0.19      0.00
    5   31    7      1.41      0.00
    6   31    7     -0.29      0.00
    7   31    7      1.93      0.00
    8   31    7     -2.48      0.00
    9   31    7     -0.04      0.00
   10   31    7     -0.45      0.00
   11   31    7     -1.45      0.00
  -10   32    7     -1.41      0.00
   -9   32    7      0.55      0.00
   -8   32    7     -0.85      0.00
   -7   32    7     -0.59      0.00
   -6   32    7      0.06      0.00
   -5   32    7     -0.93      0.00
   -4   32    7     -0.68      0.00
   -3   32    7      0.37      0.00
   -2   32    7     -0.34      0.00
   -1   32    7      0.19      0.00
    0   32    7     -0.48      0.00
    1   32    7      0.53      0.00
    2   32    7      1.77      0.00
    3   32    7      2.14      0.00
    4   32    7      1.60      0.00
    5   32    7      0.12      0.00
    6   32    7      0.40      0.00
    7   32    7     -1.32      0.00
    8   32    7      0.61      0.00
    9   32    7      0.31      0.00
   10   32    7     -0.63      0.00
  -10   33    7      0.17      0.00
   -9   33    7      0.77      0.00
   -8   33    7     -0.63      0.00
   -7   33    7      0.56      0.00
   -6   33    7     -1.73      0.00
   -5   33    7      0.20      0.00
   -4   33    7      0.40      0.00
   -3   33    7     -1.91      0.00
   -2   33    7      0.16      0.00
   -1   33    7      0.00      0.00
    0   33    7     -0.96      0.00
    1   33    7      0.53      0.00
    2   33    7     -0.27      0.00
    3   33    7      0.84      0.00
    4   33    7     -0.25      0.00
    5   33    7      0.35      0.00
    6   33    7     -0.70      0.00
    7   33    7      0.76      0.00
    8   33    7     -0.26      0.00
    9   33    7     -1.58      0.00
   -9   34    7      0.97      0.00
   -8   34    7     -1.05      0.00
   -7   34    7     -1.25      0.00
   -6   34    7      0.46      0.00
   -5   34    7     -0.67      0.00
   -4   34    7     -0.53      0.00
   -2   34    7      0.87      0.00
   -1   34    7     -1.65      0.00
    0   34    7      1.17      0.00
    1   34    7     -1.34      0.00
    2   34    7      2.12      0.00
    3   34    7     -0.33      0.00
    4   34    7      0.79      0.00
    5   34    7     -0.91      0.00
    6   34    7     -0.65      0.00
    7   34    7      0.15      0.00
    8   34    7     -0.67      0.00
   -8   35    7     -1.13      0.00
   -7   35    7      0.55      0.00
   -6   35    7     -1.52      0.00
   -5   35    7      0.88      0.00
   -4   35    7     -0.68      0.00
   -3   35    7     -0.57      0.00
   -2   35    7     -0.50      0.00
   -1   35    7      0.56      0.00
    0   35    7     -0.46      0.00
    1   35    7      0.26      0.00
    2   35    7      0.45      0.00
    3   35    7     -0.66      0.00
    4   35    7      0.18      0.00
    5   35    7     -1.18      0.00
    6   35    7     -0.33      0.00
    7   35    7     -0.72      0.00
   -7   36    7     -1.22      0.00
   -6   36    7      1.18      0.00
   -5   36    7     -0.10      0.00
   -4   36    7     -0.03      0.00
   -3   36    7      0.96      0.00
   -2   36    7      1.43      0.00
   -1   36    7     -2.44      0.00
    0   36    7      1.97      0.00
    1   36    7     -1.51      0.00
    2   36    7      0.15      0.00
    3   36    7     -2.00      0.00
    4   36    7     -0.55      0.00
    5   36    7     -1.56      0.00
    6   36    7     -1.42      0.00
   -5   37    7      0.13      0.00
   -4   37    7     -0.72      0.00
   -3   37    7     -0.09      0.00
   -2   37    7     -1.12      0.00
   -1   37    7      0.75      0.00
    0   37    7      0.36      0.00
    1   37    7     -0.92      0.00
    2   37    7      0.55      0.00
    3   37    7     -0.59      0.00
    4   37    7      0.39      0.00
    5   37    7     -1.00      0.00
   -3   38    7      0.85      0.00
   -2   38    7      0.82      0.00
   -1   38    7     -1.88      0.00
    0   38    7      0.92      0.00
    1   38    7     -0.35      0.00
    2   38    7     -1.65      0.00
    3   38    7     -2.06      0.00
  -18    0    8     -0.34      0.00
  -17    0    8      0.75      0.00
  -16    0    8      1.56      0.00
  -15    0    8     -1.30      0.00
  -14    0    8      0.94      0.00
  -13    0    8      0.13      0.00
  -12    0    8      0.19      0.00
  -11    0    8     -2.30      0.00
  -10    0    8      7.69      0.00
   -9    0    8     -4.01      0.00
   -8    0    8      3.31      0.00
   -7    0    8      3.05      0.00
   -6    0    8     -0.81      0.00
   -5    0    8      3.95      0.00
   -4    0    8    -10.04      0.00
   -3    0    8     14.91      0.00
   -2    0    8     -8.06      0.00
   -1    0    8      2.79      0.00
    0    0    8     -0.14      0.00
    1    0    8      3.53      0.00
    2    0    8     10.51      0.00
    3    0    8    -15.59      0.00
    4    0    8     16.83      0.00
    6    0    8      8.34      0.00
    7    0    8      1.90      0.00
    8    0    8     -3.15      0.00
    9    0    8      3.21      0.00
   10    0    8     -1.73      0.00
   11    0    8      1.54      0.00
   12    0    8      0.42      0.00
   13    0    8      0.82      0.00
   14    0    8      3.24      0.00
   15    0    8     -1.41      0.00
   16    0    8      2.21      0.00
   17    0    8      0.41      0.00
   18    0    8      0.75      0.00
  -18    1    8      0.45      0.00
  -17    1    8      0.05      0.00
  -16    1    8      0.82      0.00
  -15    1    8      0.32      0.00
  -14    1    8      1.05      0.00
  -13    1    8     -0.29      0.00
  -12    1    8     -1.13      0.00
  -11    1    8      1.01      0.00
  -10    1    8     -1.15      0.00
   -9    1    8     -0.77      0.00
   -8    1    8      0.75      0.00
   -7    1    8     -2.25      0.00
   -6    1    8      0.16      0.00
   -5    1    8     -0.15      0.00
   -4    1    8      3.24      0.00
   -3    1    8      4.94      0.00
   -2    1    8     -2.36      0.00
   -1    1    8      6.01      0.00
    0    1    8     -3.12      0.00
    1    1    8      6.12      0.00
    2    1    8     -2.28      0.00
    3    1    8      1.70      0.00
    4    1    8      2.49      0.00
    5    1    8     -4.51      0.00
    6    1    8      5.51      0.00
    7    1    8     -4.11      0.00
    8    1    8      1.31      0.00
    9    1    8     -0.02      0.00
   10    1    8     -0.77      0.00
   11    1    8     -0.75      0.00
   12    1    8     -0.89      0.00
   13    1    8      0.79      0.00
   14    1    8     -0.88      0.00
   15    1    8     -0.43      0.00
   16    1    8     -0.19      0.00
   17    1    8     -0.93      0.00
   18    1    8     -0.31      0.00
  -18    2    8      0.23      0.00
  -17    2    8      0.42      0.00
  -16    2    8      1.51      0.00
  -15    2    8     -0.76      0.00
  -14    2    8      0.67      0.00
  -13    2    8      0.48      0.00
  -12    2    8     -0.08      0.00
  -11    2    8     -0.41      0.00
  -10    2    8      4.00      0.00
   -9    2    8     -1.37      0.00
   -8    2    8      1.03      0.00
   -7    2    8      1.16      0.00
   -6    2    8      1.77      0.00
   -5    2    8     -0.33      0.00
   -4    2    8     -4.48      0.00
   -3    2    8      5.73      0.00
   -2    2    8     -2.96      0.00
   -1    2    8     -1.60      0.00
    0    2    8      0.67      0.00
    1    2    8      4.55      0.00
    2    2    8      4.07      0.00
    3    2    8     -7.09      0.00
    6    2    8      4.03      0.00
    7    2    8      1.77      0.00
    8    2    8     -1.15      0.00
    9    2    8      0.19      0.00
   10    2    8     -0.36      0.00
   11    2    8      0.27      0.00
   12    2    8      0.59      0.00
   13    2    8      0.25      0.00
   14    2    8      2.07      0.00
   15    2    8     -0.89      0.00
   16    2    8      1.18      0.00
   17    2    8      0.50      0.00
  -18    3    8      0.69      0.00
  -17    3    8     -0.16      0.00
  -16    3    8      1.58      0.00
  -15    3    8      0.68      0.00
  -14    3    8      2.07      0.00
  -13    3    8     -0.77      0.00
  -12    3    8     -1.99      0.00
  -11    3    8      1.55      0.00
  -10    3    8     -2.64      0.00
   -9    3    8     -0.08      0.00
   -8    3    8     -0.79      0.00
   -7    3    8     -2.09      0.00
   -6    3    8     -2.17      0.00
   -5    3    8      0.13      0.00
   -4    3    8      6.35      0.00
   -3    3    8     10.10      0.00
   -2    3    8     -3.11      0.00
   -1    3    8      7.70      0.00
    0    3    8     -2.02      0.00
    1    3    8      6.09      0.00
    2    3    8     -2.08      0.00
    3    3    8      1.24      0.00
    5    3    8     -6.12      0.00
    6    3    8      6.45      0.00
    7    3    8     -4.70      0.00
    8    3    8      0.30      0.00
    9    3    8      1.14      0.00
   10    3    8     -0.74      0.00
   11    3    8     -1.86      0.00
   12    3    8     -1.52      0.00
   13    3    8      1.66      0.00
   14    3    8     -1.58      0.00
   15    3    8     -1.30      0.00
   16    3    8     -0.31      0.00
   17    3    8     -2.22      0.00
  -18    4    8      1.36      0.00
  -17    4    8     -0.89      0.00
  -16    4    8      1.38      0.00
  -15    4    8     -0.45      0.00
  -14    4    8      0.04      0.00
  -13    4    8      0.45      0.00
  -12    4    8     -0.43      0.00
  -11    4    8      1.72      0.00
  -10    4    8     -1.54      0.00
   -9    4    8      2.45      0.00
   -8    4    8     -2.84      0.00
   -7    4    8     -0.61      0.00
   -6    4    8      4.57      0.00
   -5    4    8     -3.85      0.00
   -4    4    8      3.73      0.00
   -3    4    8     -6.88      0.00
   -2    4    8      3.66      0.00
   -1    4    8     -6.02      0.00
    0    4    8      2.13      0.00
    1    4    8      4.04      0.00
    2    4    8     -3.72      0.00
    3    4    8      2.48      0.00
    4    4    8     -7.29      0.00
    5    4    8      3.67      0.00
    6    4    8     -3.27      0.00
    7    4    8      0.66      0.00
    8    4    8      0.55      0.00
    9    4    8     -3.40      0.00
   10    4    8      1.08      0.00
   11    4    8     -1.20      0.00
   12    4    8      0.82      0.00
   13    4    8     -0.04      0.00
   14    4    8      0.02      0.00
   15    4    8      0.45      0.00
   16    4    8     -0.27      0.00
   17    4    8      0.69      0.00
  -18    5    8      0.04      0.00
  -17    5    8     -0.54      0.00
  -16    5    8      1.23      0.00
  -15    5    8      0.64      0.00
  -14    5    8      1.34      0.00
  -13    5    8     -0.68      0.00
  -12    5    8     -0.75      0.00
  -11    5    8     -0.46      0.00
  -10    5    8     -2.24      0.00
   -9    5    8      1.65      0.00
   -8    5    8     -4.75      0.00
   -7    5    8      2.30      0.00
   -6    5    8     -6.07      0.00
   -5    5    8     -0.36      0.00
   -4    5    8      3.62      0.00
   -3    5    8      8.46      0.00
   -2    5    8      0.74      0.00
   -1    5    8     -1.25      0.00
    0    5    8      6.18      0.00
    1    5    8     -7.16      0.00
    2    5    8      2.69      0.00
    3    5    8     -3.53      0.00
    4    5    8      1.84      0.00
    5    5    8      0.49      0.00
    6    5    8     -4.20      0.00
    7    5    8      1.69      0.00
    8    5    8     -3.90      0.00
    9    5    8      1.91      0.00
   10    5    8      1.08      0.00
   11    5    8     -2.34      0.00
   12    5    8     -0.58      0.00
   13    5    8      1.05      0.00
   14    5    8     -0.58      0.00
   15    5    8     -1.66      0.00
   16    5    8      0.05      0.00
   17    5    8     -1.98      0.00
  -18    6    8      1.61      0.00
  -17    6    8     -2.46      0.00
  -16    6    8      0.89      0.00
  -15    6    8     -1.04      0.00
  -14    6    8     -0.20      0.00
  -13    6    8     -0.15      0.00
  -12    6    8     -0.05      0.00
  -11    6    8      0.63      0.00
  -10    6    8     -1.16      0.00
   -9    6    8      2.07      0.00
   -8    6    8     -3.54      0.00
   -7    6    8      0.88      0.00
   -6    6    8      1.62      0.00
   -5    6    8      1.11      0.00
   -4    6    8      3.88      0.00
   -3    6    8     -6.34      0.00
   -2    6    8      1.48      0.00
   -1    6    8     -1.25      0.00
    0    6    8      2.01      0.00
    1    6    8      0.32      0.00
    2    6    8     -0.04      0.00
    4    6    8     -5.65      0.00
    5    6    8      3.44      0.00
    6    6    8     -4.98      0.00
    7    6    8     -1.11      0.00
    8    6    8     -1.29      0.00
    9    6    8     -1.46      0.00
   10    6    8      0.08      0.00
   11    6    8     -0.70      0.00
   12    6    8      0.24      0.00
   13    6    8      0.92      0.00
   14    6    8     -1.04      0.00
   15    6    8      1.40      0.00
   16    6    8      0.15      0.00
   17    6    8      0.44      0.00
  -18    7    8     -0.53      0.00
  -17    7    8     -0.70      0.00
  -16    7    8      0.66      0.00
  -15    7    8      0.61      0.00
  -14    7    8      0.02      0.00
  -13    7    8      0.26      0.00
  -12    7    8      0.52      0.00
  -11    7    8     -2.12      0.00
  -10    7    8     -0.19      0.00
   -9    7    8     -0.09      0.00
   -8    7    8     -3.38      0.00
   -7    7    8      2.11      0.00
   -6    7    8     -4.14      0.00
   -5    7    8     -3.15      0.00
   -4    7    8     -0.65      0.00
   -3    7    8      5.71      0.00
   -2    7    8      2.14      0.00
   -1    7    8     -2.26      0.00
    0    7    8      5.97      0.00
    1    7    8    -11.05      0.00
    2    7    8      1.60      0.00
    3    7    8     -5.75      0.00
    4    7    8      0.24      0.00
    5    7    8      2.30      0.00
    6    7    8     -7.97      0.00
    7    7    8      0.94      0.00
    8    7    8     -3.11      0.00
    9    7    8     -0.40      0.00
   10    7    8      2.11      0.00
   11    7    8     -1.87      0.00
   12    7    8      0.44      0.00
   13    7    8     -0.39      0.00
   14    7    8      0.34      0.00
   15    7    8     -1.04      0.00
   16    7    8      0.10      0.00
   17    7    8     -0.57      0.00
  -18    8    8      0.55      0.00
  -17    8    8     -2.60      0.00
  -16    8    8     -0.08      0.00
  -15    8    8     -0.91      0.00
  -14    8    8      0.08      0.00
  -13    8    8      0.15      0.00
  -12    8    8      0.49      0.00
  -11    8    8     -0.90      0.00
  -10    8    8      2.72      0.00
   -9    8    8     -0.51      0.00
   -7    8    8      1.80      0.00
   -6    8    8     -3.25      0.00
   -5    8    8      4.58      0.00
   -4    8    8      0.31      0.00
   -3    8    8     -0.73      0.00
   -2    8    8     -3.14      0.00
   -1    8    8      5.59      0.00
    0    8    8     -0.33      0.00
    1    8    8     -0.78      0.00
    2    8    8      6.33      0.00
    3    8    8     -6.87      0.00
    4    8    8      3.36      0.00
    5    8    8     -2.76      0.00
    6    8    8     -2.23      0.00
    7    8    8     -1.75      0.00
    8    8    8     -1.94      0.00
    9    8    8      2.03      0.00
   10    8    8     -0.81      0.00
   11    8    8      0.15      0.00
   12    8    8     -1.15      0.00
   13    8    8      1.61      0.00
   14    8    8     -0.69      0.00
   15    8    8      0.93      0.00
   16    8    8      1.91      0.00
   17    8    8     -0.37      0.00
  -18    9    8     -0.37      0.00
  -17    9    8     -0.89      0.00
  -16    9    8      0.41      0.00
  -15    9    8      0.65      0.00
  -14    9    8     -0.89      0.00
  -13    9    8      1.37      0.00
  -12    9    8      0.44      0.00
  -11    9    8     -0.45      0.00
  -10    9    8      1.39      0.00
   -9    9    8     -2.48      0.00
   -8    9    8      2.61      0.00
   -7    9    8     -1.62      0.00
   -6    9    8      2.77      0.00
   -5    9    8     -4.95      0.00
   -4    9    8     -1.79      0.00
   -3    9    8      3.70      0.00
   -2    9    8      0.95      0.00
   -1    9    8      4.99      0.00
    0    9    8     -2.41      0.00
    1    9    8     -2.13      0.00
    2    9    8     -5.25      0.00
    3    9    8     -3.32      0.00
    4    9    8     -0.40      0.00
    5    9    8     -1.92      0.00
    6    9    8     -1.00      0.00
    7    9    8     -5.02      0.00
    8    9    8      2.12      0.00
    9    9    8     -2.43      0.00
   10    9    8      1.21      0.00
   11    9    8     -0.34      0.00
   12    9    8      0.89      0.00
   13    9    8     -1.29      0.00
   14    9    8     -0.19      0.00
   15    9    8     -0.03      0.00
   16    9    8     -0.30      0.00
   17    9    8      0.30      0.00
  -17   10    8     -1.25      0.00
  -16   10    8     -0.59      0.00
  -15   10    8      0.09      0.00
  -14   10    8      0.29      0.00
  -13   10    8      0.79      0.00
  -12   10    8      0.12      0.00
  -11   10    8     -0.28      0.00
  -10   10    8      2.85      0.00
   -9   10    8     -0.42      0.00
   -8   10    8      0.92      0.00
   -7   10    8      0.28      0.00
   -6   10    8     -3.89      0.00
   -5   10    8      0.21      0.00
   -4   10    8      0.60      0.00
   -3   10    8     -0.47      0.00
   -2   10    8     -0.64      0.00
   -1   10    8      5.45      0.00
    0   10    8     -2.89      0.00
    1   10    8      1.71      0.00
    2   10    8      3.62      0.00
    3   10    8     -1.07      0.00
    4   10    8      3.00      0.00
    5   10    8     -1.40      0.00
    6   10    8     -1.61      0.00
    7   10    8     -1.57      0.00
    8   10    8      1.24      0.00
    9   10    8      1.56      0.00
   10   10    8      0.47      0.00
   11   10    8      0.16      0.00
   12   10    8     -1.61      0.00
   13   10    8      1.13      0.00
   14   10    8      0.50      0.00
   15   10    8      0.28      0.00
   16   10    8      2.22      0.00
   17   10    8     -0.64      0.00
  -17   11    8     -0.93      0.00
  -16   11    8      0.72      0.00
  -15   11    8      0.50      0.00
  -14   11    8     -0.86      0.00
  -13   11    8      0.90      0.00
  -12   11    8      0.05      0.00
  -11   11    8      1.77      0.00
  -10   11    8      0.62      0.00
   -9   11    8     -0.92      0.00
   -8   11    8      3.23      0.00
   -6   11    8      5.03      0.00
   -5   11    8     -2.83      0.00
   -4   11    8      0.16      0.00
   -3   11    8      0.40      0.00
   -2   11    8      3.31      0.00
   -1   11    8      5.47      0.00
    0   11    8     -2.84      0.00
    1   11    8      3.50      0.00
    2   11    8     -5.65      0.00
    3   11    8     -0.39      0.00
    4   11    8     -1.95      0.00
    5   11    8     -2.57      0.00
    6   11    8      2.47      0.00
    7   11    8     -4.00      0.00
    8   11    8      2.57      0.00
    9   11    8     -1.40      0.00
   10   11    8     -1.00      0.00
   11   11    8      0.62      0.00
   12   11    8      0.79      0.00
   13   11    8     -1.44      0.00
   14   11    8     -0.78      0.00
   15   11    8      0.19      0.00
   16   11    8      0.18      0.00
   17   11    8      0.35      0.00
  -17   12    8      0.14      0.00
  -16   12    8      0.12      0.00
  -15   12    8      0.72      0.00
  -14   12    8      0.37      0.00
  -13   12    8      0.48      0.00
  -12   12    8     -0.10      0.00
  -11   12    8      0.52      0.00
  -10   12    8     -0.02      0.00
   -9   12    8      1.60      0.00
   -8   12    8      0.79      0.00
   -7   12    8      0.30      0.00
   -6   12    8     -2.61      0.00
   -5   12    8     -3.26      0.00
   -4   12    8      0.37      0.00
   -3   12    8     -0.79      0.00
   -2   12    8      3.87      0.00
   -1   12    8      1.07      0.00
    0   12    8     -3.90      0.00
    1   12    8      1.16      0.00
    2   12    8     -2.32      0.00
    3   12    8      3.64      0.00
    4   12    8     -2.51      0.00
    5   12    8      2.03      0.00
    6   12    8     -2.38      0.00
    7   12    8     -1.84      0.00
    8   12    8      3.84      0.00
    9   12    8     -0.41      0.00
   10   12    8      1.26      0.00
   11   12    8      0.39      0.00
   12   12    8     -0.81      0.00
   13   12    8      0.22      0.00
   14   12    8      1.08      0.00
   15   12    8      0.60      0.00
   16   12    8     -0.06      0.00
   17   12    8     -0.08      0.00
  -17   13    8     -0.57      0.00
  -16   13    8      1.14      0.00
  -15   13    8     -0.11      0.00
  -14   13    8     -0.27      0.00
  -13   13    8     -1.27      0.00
  -12   13    8      0.24      0.00
  -11   13    8      0.54      0.00
  -10   13    8     -0.53      0.00
   -9   13    8      2.08      0.00
   -8   13    8     -1.98      0.00
   -7   13    8      1.39      0.00
   -6   13    8      0.81      0.00
   -5   13    8      0.74      0.00
   -4   13    8      1.93      0.00
   -3   13    8     -2.24      0.00
   -2   13    8      6.62      0.00
   -1   13    8     -1.67      0.00
    0   13    8      4.95      0.00
    1   13    8      0.84      0.00
    2   13    8      2.01      0.00
    3   13    8     -0.22      0.00
    4   13    8     -2.57      0.00
    5   13    8      0.68      0.00
    6   13    8     -1.34      0.00
    7   13    8      2.01      0.00
    8   13    8     -1.84      0.00
    9   13    8     -0.22      0.00
   10   13    8     -2.62      0.00
   11   13    8      0.18      0.00
   12   13    8      0.36      0.00
   13   13    8     -1.57      0.00
   14   13    8      0.09      0.00
   15   13    8     -0.63      0.00
   16   13    8      1.49      0.00
  -17   14    8      0.96      0.00
  -16   14    8      0.86      0.00
  -15   14    8      0.87      0.00
  -14   14    8      0.24      0.00
  -13   14    8     -0.13      0.00
  -12   14    8      0.38      0.00
  -11   14    8     -0.17      0.00
  -10   14    8     -0.82      0.00
   -9   14    8      1.33      0.00
   -8   14    8      0.54      0.00
   -7   14    8      2.88      0.00
   -6   14    8     -2.57      0.00
   -5   14    8     -0.45      0.00
   -4   14    8     -3.96      0.00
   -3   14    8      2.42      0.00
   -2   14    8      2.42      0.00
   -1   14    8     -0.71      0.00
    0   14    8     -4.09      0.00
    1   14    8     -2.68      0.00
    2   14    8     -3.02      0.00
    3   14    8     -0.67      0.00
    4   14    8     -2.65      0.00
    5   14    8     -0.15      0.00
    6   14    8     -0.49      0.00
    7   14    8     -1.99      0.00
    8   14    8      2.83      0.00
    9   14    8      0.21      0.00
   10   14    8     -0.06      0.00
   11   14    8      1.23      0.00
   12   14    8     -0.18      0.00
   13   14    8     -0.10      0.00
   14   14    8      0.65      0.00
   15   14    8      0.88      0.00
   16   14    8     -2.19      0.00
  -17   15    8     -0.16      0.00
  -16   15    8      0.85      0.00
  -15   15    8     -0.70      0.00
  -14   15    8     -0.11      0.00
  -13   15    8     -2.55      0.00
  -12   15    8      0.11      0.00
  -11   15    8     -2.09      0.00
  -10   15    8      0.38      0.00
   -9   15    8      2.32      0.00
   -8   15    8     -3.32      0.00
   -7   15    8      1.13      0.00
   -6   15    8     -2.37      0.00
   -5   15    8      2.01      0.00
   -4   15    8      1.34      0.00
   -3   15    8     -1.14      0.00
   -2   15    8      3.33      0.00
   -1   15    8     -4.95      0.00
    0   15    8      6.12      0.00
    1   15    8     -1.59      0.00
    2   15    8      5.92      0.00
    3   15    8     -1.68      0.00
    4   15    8     -1.06      0.00
    5   15    8      1.43      0.00
    6   15    8     -2.78      0.00
    7   15    8      2.89      0.00
    8   15    8     -2.71      0.00
    9   15    8     -0.80      0.00
   10   15    8     -2.22      0.00
   11   15    8     -0.13      0.00
   12   15    8      0.00      0.00
   13   15    8     -1.66      0.00
   14   15    8      1.01      0.00
   15   15    8     -1.22      0.00
   16   15    8      1.57      0.00
  -16   16    8      0.47      0.00
  -15   16    8      0.91      0.00
  -14   16    8     -0.25      0.00
  -13   16    8     -0.23      0.00
  -12   16    8     -0.25      0.00
  -11   16    8     -0.64      0.00
  -10   16    8     -0.47      0.00
   -9   16    8     -1.03      0.00
   -8   16    8      1.31      0.00
   -7   16    8      3.80      0.00
   -6   16    8     -0.36      0.00
   -5   16    8      2.30      0.00
   -4   16    8     -5.04      0.00
   -3   16    8      3.77      0.00
   -2   16    8     -1.15      0.00
   -1   16    8      0.66      0.00
    0   16    8     -4.71      0.00
    1   16    8     -2.61      0.00
    2   16    8     -2.33      0.00
    3   16    8     -4.72      0.00
    4   16    8     -0.93      0.00
    5   16    8     -3.31      0.00
    6   16    8      1.51      0.00
    7   16    8     -0.98      0.00
    8   16    8      0.84      0.00
    9   16    8      1.71      0.00
   10   16    8     -0.72      0.00
   11   16    8      1.71      0.00
   12   16    8     -0.01      0.00
   13   16    8      0.23      0.00
   14   16    8      0.79      0.00
   15   16    8      0.24      0.00
   16   16    8     -1.54      0.00
  -16   17    8      0.08      0.00
  -15   17    8     -0.38      0.00
  -14   17    8     -0.27      0.00
  -13   17    8     -1.48      0.00
  -12   17    8     -0.61      0.00
  -11   17    8     -2.28      0.00
  -10   17    8      1.21      0.00
   -9   17    8      0.91      0.00
   -8   17    8      0.45      0.00
   -7   17    8     -1.85      0.00
   -6   17    8     -1.97      0.00
   -5   17    8      0.79      0.00
   -4   17    8     -0.43      0.00
   -3   17    8      1.35      0.00
   -2   17    8     -3.01      0.00
   -1   17    8     -1.62      0.00
    0   17    8     -0.28      0.00
    1   17    8     -0.04      0.00
    2   17    8      1.64      0.00
    3   17    8     -1.70      0.00
    4   17    8     -0.06      0.00
    5   17    8      0.32      0.00
    6   17    8      0.37      0.00
    7   17    8     -0.85      0.00
    8   17    8      0.31      0.00
    9   17    8     -0.87      0.00
   10   17    8     -1.07      0.00
   11   17    8      0.50      0.00
   12   17    8     -0.08      0.00
   13   17    8     -1.16      0.00
   14   17    8      0.32      0.00
   15   17    8     -0.52      0.00
   16   17    8      0.09      0.00
  -16   18    8     -0.07      0.00
  -15   18    8      0.94      0.00
  -14   18    8     -0.31      0.00
  -13   18    8     -0.11      0.00
  -12   18    8     -1.61      0.00
  -11   18    8      0.30      0.00
  -10   18    8     -1.55      0.00
   -9   18    8     -1.71      0.00
   -8   18    8      1.58      0.00
   -7   18    8      1.59      0.00
   -6   18    8      4.28      0.00
   -5   18    8      0.95      0.00
   -4   18    8     -0.21      0.00
   -3   18    8      0.24      0.00
   -2   18    8     -1.22      0.00
    0   18    8     -5.22      0.00
    1   18    8      1.89      0.00
    2   18    8     -4.25      0.00
    3   18    8     -1.91      0.00
    4   18    8     -2.47      0.00
    5   18    8     -1.56      0.00
    6   18    8      0.38      0.00
    7   18    8      0.70      0.00
    8   18    8      0.89      0.00
    9   18    8      0.82      0.00
   10   18    8      0.61      0.00
   11   18    8      1.02      0.00
   12   18    8      0.01      0.00
   13   18    8     -0.07      0.00
   14   18    8      1.79      0.00
   15   18    8     -0.66      0.00
  -16   19    8     -0.48      0.00
  -15   19    8      0.34      0.00
  -14   19    8     -0.31      0.00
  -13   19    8      0.15      0.00
  -12   19    8     -0.60      0.00
  -11   19    8     -1.01      0.00
  -10   19    8     -0.19      0.00
   -9   19    8      0.72      0.00
   -8   19    8      2.27      0.00
   -7   19    8     -2.20      0.00
   -6   19    8     -1.28      0.00
   -5   19    8     -0.31      0.00
   -4   19    8     -1.06      0.00
   -3   19    8      1.64      0.00
   -2   19    8     -3.48      0.00
   -1   19    8      1.43      0.00
    0   19    8     -2.60      0.00
    1   19    8      0.87      0.00
    2   19    8     -3.54      0.00
    3   19    8     -0.19      0.00
    4   19    8     -1.09      0.00
    5   19    8      1.15      0.00
    6   19    8      1.48      0.00
    7   19    8     -1.82      0.00
    8   19    8      0.81      0.00
    9   19    8      0.89      0.00
   10   19    8     -0.34      0.00
   11   19    8      0.89      0.00
   12   19    8      0.25      0.00
   13   19    8     -0.33      0.00
   14   19    8     -0.83      0.00
   15   19    8      0.43      0.00
  -15   20    8      1.27      0.00
  -14   20    8      0.33      0.00
  -13   20    8     -0.02      0.00
  -12   20    8     -1.43      0.00
  -11   20    8      0.59      0.00
  -10   20    8     -2.09      0.00
   -9   20    8     -0.44      0.00
   -8   20    8      0.40      0.00
   -7   20    8     -0.38      0.00
   -6   20    8      5.12      0.00
   -5   20    8     -0.03      0.00
   -4   20    8      2.65      0.00
   -3   20    8     -2.91      0.00
   -2   20    8      0.08      0.00
   -1   20    8     -0.79      0.00
    0   20    8     -4.25      0.00
    1   20    8      3.71      0.00
    2   20    8     -4.82      0.00
    3   20    8      1.85      0.00
    4   20    8     -3.16      0.00
    5   20    8      1.71      0.00
    6   20    8     -1.22      0.00
    7   20    8      1.27      0.00
    8   20    8      1.77      0.00
    9   20    8     -1.36      0.00
   10   20    8      1.23      0.00
   11   20    8     -0.16      0.00
   12   20    8     -0.36      0.00
   13   20    8     -1.32      0.00
   14   20    8      1.95      0.00
   15   20    8     -0.94      0.00
  -15   21    8      0.34      0.00
  -14   21    8     -0.72      0.00
  -13   21    8      1.06      0.00
  -12   21    8      0.24      0.00
  -11   21    8     -0.90      0.00
  -10   21    8     -1.75      0.00
   -9   21    8      0.83      0.00
   -8   21    8      0.90      0.00
   -7   21    8      0.36      0.00
   -6   21    8     -0.92      0.00
   -5   21    8      0.07      0.00
   -4   21    8     -0.76      0.00
   -3   21    8      0.92      0.00
   -2   21    8      0.30      0.00
   -1   21    8      1.22      0.00
    0   21    8      0.78      0.00
    1   21    8     -1.46      0.00
    2   21    8     -4.35      0.00
    3   21    8      0.50      0.00
    4   21    8     -1.81      0.00
    5   21    8      2.58      0.00
    6   21    8     -0.73      0.00
    7   21    8      0.55      0.00
    8   21    8     -1.48      0.00
    9   21    8      1.96      0.00
   10   21    8      0.71      0.00
   11   21    8      0.23      0.00
   12   21    8      0.59      0.00
   13   21    8      0.04      0.00
   14   21    8     -0.82      0.00
  -15   22    8      1.71      0.00
  -14   22    8      0.71      0.00
  -13   22    8      0.26      0.00
  -12   22    8     -0.44      0.00
  -11   22    8     -0.95      0.00
  -10   22    8     -0.48      0.00
   -9   22    8     -0.03      0.00
   -8   22    8     -0.65      0.00
   -7   22    8     -0.50      0.00
   -6   22    8      1.15      0.00
   -5   22    8      1.46      0.00
   -4   22    8      0.63      0.00
   -3   22    8     -1.87      0.00
   -2   22    8     -0.53      0.00
   -1   22    8     -1.87      0.00
    0   22    8     -2.51      0.00
    1   22    8      0.99      0.00
    2   22    8     -2.03      0.00
    3   22    8      1.56      0.00
    4   22    8     -0.30      0.00
    5   22    8      1.32      0.00
    6   22    8     -0.68      0.00
    7   22    8      0.62      0.00
    8   22    8      0.84      0.00
    9   22    8     -1.36      0.00
   10   22    8     -0.28      0.00
   11   22    8     -0.50      0.00
   12   22    8     -0.92      0.00
   13   22    8     -1.98      0.00
   14   22    8      0.56      0.00
  -14   23    8     -1.24      0.00
  -13   23    8      1.88      0.00
  -12   23    8      0.81      0.00
  -11   23    8     -1.15      0.00
  -10   23    8     -1.57      0.00
   -9   23    8     -0.27      0.00
   -8   23    8     -0.10      0.00
   -7   23    8      1.44      0.00
   -6   23    8      0.01      0.00
   -5   23    8      0.49      0.00
   -4   23    8     -1.13      0.00
   -3   23    8      1.03      0.00
   -2   23    8      1.00      0.00
   -1   23    8      0.80      0.00
    0   23    8      1.80      0.00
    1   23    8     -3.58      0.00
    2   23    8     -2.42      0.00
    3   23    8      0.14      0.00
    4   23    8     -0.41      0.00
    5   23    8      1.89      0.00
    6   23    8     -1.46      0.00
    7   23    8      1.18      0.00
    8   23    8     -1.94      0.00
    9   23    8      0.57      0.00
   10   23    8      1.68      0.00
   11   23    8     -0.58      0.00
   12   23    8      0.14      0.00
   13   23    8      0.00      0.00
   14   23    8     -0.21      0.00
  -14   24    8      0.66      0.00
  -13   24    8      0.51      0.00
  -12   24    8     -0.58      0.00
  -11   24    8     -2.17      0.00
  -10   24    8      1.11      0.00
   -9   24    8     -0.82      0.00
   -8   24    8     -0.12      0.00
   -7   24    8     -0.34      0.00
   -6   24    8     -1.64      0.00
   -5   24    8      1.67      0.00
   -4   24    8     -0.82      0.00
   -3   24    8      0.10      0.00
   -2   24    8     -1.91      0.00
   -1   24    8     -0.62      0.00
    0   24    8     -1.81      0.00
    1   24    8     -1.03      0.00
    2   24    8      0.42      0.00
    3   24    8      0.30      0.00
    4   24    8      2.12      0.00
    5   24    8     -1.16      0.00
    6   24    8      0.30      0.00
    7   24    8      0.59      0.00
    8   24    8     -1.06      0.00
    9   24    8      0.90      0.00
   10   24    8     -1.42      0.00
   11   24    8      0.03      0.00
   12   24    8     -1.03      0.00
   13   24    8     -1.23      0.00
  -14   25    8     -0.78      0.00
  -13   25    8      2.26      0.00
  -12   25    8      1.31      0.00
  -11   25    8     -0.23      0.00
  -10   25    8     -0.70      0.00
   -9   25    8     -0.81      0.00
   -8   25    8     -0.33      0.00
   -7   25    8      0.37      0.00
   -6   25    8      0.35      0.00
   -5   25    8     -0.14      0.00
   -4   25    8     -1.61      0.00
   -3   25    8      0.40      0.00
   -2   25    8     -1.27      0.00
   -1   25    8      1.26      0.00
    0   25    8     -1.65      0.00
    1   25    8     -2.82      0.00
    2   25    8     -0.57      0.00
    3   25    8     -0.09      0.00
    4   25    8      1.54      0.00
    5   25    8     -0.14      0.00
    6   25    8      0.98      0.00
    7   25    8     -0.83      0.00
    8   25    8      0.06      0.00
    9   25    8     -0.99      0.00
   10   25    8      1.18      0.00
   11   25    8     -0.50      0.00
   12   25    8     -0.61      0.00
   13   25    8      0.02      0.00
  -13   26    8      0.08      0.00
  -12   26    8     -1.08      0.00
  -11   26    8     -2.19      0.00
  -10   26    8      1.01      0.00
   -9   26    8     -1.52      0.00
   -8   26    8      0.96      0.00
   -7   26    8     -0.59      0.00
   -6   26    8     -0.91      0.00
   -5   26    8     -0.06      0.00
   -4   26    8      0.32      0.00
   -3   26    8      0.02      0.00
   -2   26    8     -1.60      0.00
   -1   26    8      0.61      0.00
    0   26    8     -1.58      0.00
    1   26    8      0.31      0.00
    2   26    8      0.50      0.00
    3   26    8      0.88      0.00
    4   26    8      1.15      0.00
    5   26    8     -2.03      0.00
    6   26    8     -0.41      0.00
    7   26    8      1.06      0.00
    8   26    8     -0.94      0.00
    9   26    8      1.84      0.00
   10   26    8     -0.17      0.00
   11   26    8      0.62      0.00
   12   26    8     -0.49      0.00
   13   26    8      0.00      0.00
  -13   27    8      1.35      0.00
  -12   27    8      2.22      0.00
  -11   27    8      0.79      0.00
  -10   27    8     -0.02      0.00
   -9   27    8      0.31      0.00
   -8   27    8     -0.71      0.00
   -7   27    8     -0.44      0.00
   -6   27    8     -0.45      0.00
   -5   27    8     -0.71      0.00
   -4   27    8     -0.87      0.00
   -3   27    8     -1.46      0.00
   -2   27    8     -1.54      0.00
   -1   27    8      0.71      0.00
    0   27    8     -3.72      0.00
    1   27    8     -1.18      0.00
    2   27    8      0.67      0.00
    3   27    8     -0.68      0.00
    4   27    8      1.88      0.00
    5   27    8     -1.47      0.00
    6   27    8      3.17      0.00
    7   27    8     -1.75      0.00
    8   27    8      1.00      0.00
    9   27    8     -0.66      0.00
   10   27    8     -0.19      0.00
   11   27    8     -0.32      0.00
   12   27    8     -0.46      0.00
  -12   28    8     -0.61      0.00
  -11   28    8     -2.27      0.00
  -10   28    8      0.07      0.00
   -9   28    8     -2.12      0.00
   -8   28    8      0.83      0.00
   -7   28    8     -0.74      0.00
   -6   28    8      0.19      0.00
   -5   28    8     -0.54      0.00
   -4   28    8      0.51      0.00
   -3   28    8     -0.28      0.00
   -2   28    8     -0.11      0.00
   -1   28    8      0.29      0.00
    0   28    8     -0.35      0.00
    1   28    8      2.14      0.00
    2   28    8     -0.03      0.00
    3   28    8      1.29      0.00
    4   28    8     -1.00      0.00
    5   28    8     -1.46      0.00
    6   28    8     -1.69      0.00
    7   28    8      0.27      0.00
    8   28    8      1.27      0.00
    9   28    8      0.34      0.00
   10   28    8      1.64      0.00
   11   28    8      1.15      0.00
   12   28    8      0.14      0.00
  -12   29    8      2.57      0.00
  -11   29    8      0.69      0.00
  -10   29    8      0.85      0.00
   -9   29    8      1.11      0.00
   -8   29    8     -0.29      0.00
   -7   29    8     -0.53      0.00
   -6   29    8     -0.86      0.00
   -5   29    8     -0.29      0.00
   -4   29    8      0.23      0.00
   -3   29    8     -2.15      0.00
   -2   29    8      0.45      0.00
   -1   29    8     -0.99      0.00
    0   29    8     -1.61      0.00
    1   29    8     -0.87      0.00
    2   29    8      1.03      0.00
    3   29    8     -2.03      0.00
    4   29    8      0.47      0.00
    5   29    8     -1.64      0.00
    6   29    8      2.49      0.00
    7   29    8     -0.12      0.00
    8   29    8     -0.26      0.00
    9   29    8      0.27      0.00
   10   29    8     -0.46      0.00
   11   29    8     -0.77      0.00
  -11   30    8     -2.13      0.00
  -10   30    8     -0.61      0.00
   -9   30    8     -2.40      0.00
   -8   30    8     -0.14      0.00
   -7   30    8     -0.84      0.00
   -6   30    8      0.37      0.00
   -5   30    8      0.09      0.00
   -4   30    8     -1.22      0.00
   -3   30    8      0.71      0.00
   -2   30    8      0.06      0.00
   -1   30    8     -0.21      0.00
    0   30    8      0.96      0.00
    1   30    8      1.82      0.00
    2   30    8      0.01      0.00
    3   30    8     -0.12      0.00
    4   30    8     -1.58      0.00
    5   30    8     -0.97      0.00
    6   30    8     -1.57      0.00
    7   30    8     -1.12      0.00
    8   30    8      2.37      0.00
    9   30    8     -0.61      0.00
   10   30    8      1.45      0.00
  -10   31    8      1.51      0.00
   -9   31    8      0.54      0.00
   -8   31    8      0.95      0.00
   -7   31    8     -0.29      0.00
   -6   31    8     -0.31      0.00
   -5   31    8      0.47      0.00
   -4   31    8      0.63      0.00
   -3   31    8     -1.09      0.00
   -2   31    8      1.40      0.00
   -1   31    8     -1.75      0.00
    0   31    8      0.54      0.00
    1   31    8     -0.71      0.00
    2   31    8     -0.48      0.00
    3   31    8     -2.44      0.00
    4   31    8     -1.17      0.00
    5   31    8     -1.01      0.00
    6   31    8      0.79      0.00
    7   31    8      1.53      0.00
    8   31    8     -1.03      0.00
    9   31    8      0.35      0.00
   10   31    8      0.56      0.00
  -10   32    8     -0.76      0.00
   -9   32    8     -1.57      0.00
   -8   32    8     -0.29      0.00
   -7   32    8     -0.83      0.00
   -6   32    8      1.03      0.00
   -5   32    8     -0.33      0.00
   -4   32    8     -1.85      0.00
   -3   32    8      1.41      0.00
   -2   32    8     -1.01      0.00
   -1   32    8     -0.04      0.00
    0   32    8      1.23      0.00
    1   32    8      0.13      0.00
    2   32    8     -0.19      0.00
    3   32    8     -1.54      0.00
    4   32    8     -1.24      0.00
    5   32    8     -0.39      0.00
    6   32    8     -0.57      0.00
    7   32    8     -1.18      0.00
    8   32    8      0.97      0.00
    9   32    8      0.34      0.00
   -9   33    8     -0.33      0.00
   -8   33    8      1.30      0.00
   -7   33    8      0.50      0.00
   -6   33    8     -0.12      0.00
   -5   33    8      0.81      0.00
   -4   33    8      0.76      0.00
   -3   33    8     -0.30      0.00
   -2   33    8      0.69      0.00
   -1   33    8     -0.40      0.00
    0   33    8     -0.31      0.00
    1   33    8      0.84      0.00
    2   33    8     -2.43      0.00
    3   33    8     -0.60      0.00
    4   33    8     -1.27      0.00
    5   33    8      0.22      0.00
    6   33    8      0.74      0.00
    7   33    8      1.18      0.00
    8   33    8      0.04      0.00
   -8   34    8      0.51      0.00
   -7   34    8     -0.35      0.00
   -6   34    8      1.81      0.00
   -5   34    8     -1.12      0.00
   -4   34    8     -0.58      0.00
   -3   34    8      0.68      0.00
   -2   34    8     -1.02      0.00
   -1   34    8     -0.20      0.00
    0   34    8      1.18      0.00
    1   34    8     -0.72      0.00
    2   34    8     -0.78      0.00
    3   34    8     -1.18      0.00
    4   34    8     -1.33      0.00
    5   34    8      0.71      0.00
    6   34    8     -0.08      0.00
    7   34    8     -0.14      0.00
   -7   35    8      1.13      0.00
   -6   35    8     -0.61      0.00
   -5   35    8      0.74      0.00
   -4   35    8      0.78      0.00
   -3   35    8     -0.54      0.00
   -2   35    8     -0.04      0.00
   -1   35    8      1.65      0.00
    0   35    8     -1.78      0.00
    1   35    8      2.18      0.00
    2   35    8     -1.96      0.00
    3   35    8      1.84      0.00
    4   35    8      0.19      0.00
    5   35    8      1.57      0.00
    6   35    8      1.53      0.00
   -6   36    8      1.37      0.00
   -5   36    8     -0.85      0.00
   -4   36    8      0.32      0.00
   -3   36    8     -0.22      0.00
   -2   36    8      0.05      0.00
   -1   36    8     -0.82      0.00
    0   36    8      1.02      0.00
    1   36    8      0.08      0.00
    2   36    8     -0.86      0.00
    3   36    8     -0.17      0.00
    4   36    8     -1.18      0.00
    5   36    8      1.31      0.00
   -3   37    8     -0.81      0.00
   -2   37    8     -0.24      0.00
   -1   37    8      2.20      0.00
    0   37    8     -1.49      0.00
    1   37    8      1.39      0.00
    2   37    8      0.21      0.00
    3   37    8      2.57      0.00
  -18    1    9      0.16      0.00
  -17    1    9     -0.95      0.00
  -16    1    9     -1.53      0.00
  -15    1    9      0.07      0.00
  -14    1    9     -0.16      0.00
  -13    1    9     -1.41      0.00
  -12    1    9     -0.03      0.00
  -11    1    9      0.59      0.00
  -10    1    9     -3.65      0.00
   -9    1    9      2.29      0.00
   -8    1    9     -1.65      0.00
   -7    1    9     -1.41      0.00
   -6    1    9      0.64      0.00
   -5    1    9     -0.70      0.00
   -4    1    9      5.59      0.00
   -3    1    9     -7.83      0.00
   -2    1    9      9.08      0.00
   -1    1    9     -0.64      0.00
    0    1    9      3.65      0.00
    1    1    9     -1.21      0.00
    2    1    9     -7.88      0.00
    3    1    9     10.41      0.00
    4    1    9    -10.20      0.00
    5    1    9     28.90      0.00
    6    1    9     -8.82      0.00
    7    1    9      1.26      0.00
    8    1    9      0.58      0.00
    9    1    9     -1.60      0.00
   10    1    9      1.69      0.00
   11    1    9     -0.81      0.00
   12    1    9      0.59      0.00
   13    1    9     -1.04      0.00
   14    1    9     -1.65      0.00
   15    1    9      2.09      0.00
   16    1    9     -2.51      0.00
   17    1    9     -1.72      0.00
  -18    2    9     -0.61      0.00
  -17    2    9      0.85      0.00
  -16    2    9     -1.34      0.00
  -15    2    9     -0.32      0.00
  -14    2    9     -1.71      0.00
  -13    2    9      0.44      0.00
  -12    2    9      0.91      0.00
  -11    2    9     -1.08      0.00
  -10    2    9      1.71      0.00
   -9    2    9      0.20      0.00
   -8    2    9     -0.88      0.00
   -7    2    9      2.09      0.00
   -6    2    9      0.05      0.00
   -5    2    9      1.16      0.00
   -4    2    9     -4.46      0.00
   -3    2    9     -4.11      0.00
   -2    2    9      1.94      0.00
   -1    2    9     -7.73      0.00
    0    2    9      4.27      0.00
    1    2    9     -7.70      0.00
    2    2    9      2.92      0.00
    3    2    9     -3.47      0.00
    4    2    9     -1.43      0.00
    6    2    9     -7.57      0.00
    7    2    9      6.15      0.00
    8    2    9     -2.47      0.00
    9    2    9      1.04      0.00
   10    2    9      0.25      0.00
   11    2    9      1.33      0.00
   12    2    9      1.09      0.00
   13    2    9     -1.73      0.00
   14    2    9      1.96      0.00
   15    2    9      0.32      0.00
   16    2    9      0.63      0.00
   17    2    9      0.89      0.00
  -18    3    9     -0.52      0.00
  -17    3    9     -0.42      0.00
  -16    3    9     -1.46      0.00
  -15    3    9      0.24      0.00
  -14    3    9      0.66      0.00
  -13    3    9     -0.80      0.00
  -12    3    9      0.47      0.00
  -11    3    9     -0.71      0.00
  -10    3    9      0.49      0.00
   -9    3    9     -1.64      0.00
   -8    3    9      1.34      0.00
   -7    3    9     -0.48      0.00
   -6    3    9     -2.12      0.00
   -5    3    9      1.70      0.00
   -4    3    9     -1.68      0.00
   -3    3    9      1.26      0.00
   -2    3    9      0.92      0.00
   -1    3    9      5.12      0.00
    0    3    9      0.13      0.00
    1    3    9     -1.42      0.00
    2    3    9     -2.00      0.00
    3    3    9     -0.10      0.00
    5    3    9      9.03      0.00
    6    3    9      0.19      0.00
    7    3    9     -1.76      0.00
    8    3    9     -0.22      0.00
    9    3    9      1.53      0.00
   10    3    9     -0.31      0.00
   11    3    9      0.62      0.00
   12    3    9     -0.42      0.00
   13    3    9     -0.54      0.00
   14    3    9     -0.72      0.00
   15    3    9      0.81      0.00
   16    3    9     -1.55      0.00
   17    3    9     -1.21      0.00
  -18    4    9     -0.44      0.00
  -17    4    9      1.07      0.00
  -16    4    9     -1.43      0.00
  -15    4    9     -0.42      0.00
  -14    4    9     -1.67      0.00
  -13    4    9      0.50      0.00
  -12    4    9      0.75      0.00
  -11    4    9      0.10      0.00
  -10    4    9      2.41      0.00
   -9    4    9     -0.24      0.00
   -8    4    9      2.60      0.00
   -7    4    9     -0.12      0.00
   -6    4    9      3.87      0.00
   -5    4    9      0.85      0.00
   -4    4    9     -3.78      0.00
   -3    4    9     -4.94      0.00
   -2    4    9      0.04      0.00
   -1    4    9     -6.39      0.00
    0    4    9     -1.52      0.00
    1    4    9     -3.14      0.00
    2    4    9     -2.01      0.00
    3    4    9     -1.03      0.00
    4    4    9     -2.40      0.00
    5    4    9      2.04      0.00
    6    4    9     -2.25      0.00
    7    4    9      2.97      0.00
    8    4    9      2.07      0.00
    9    4    9      0.37      0.00
   10    4    9      0.19      0.00
   11    4    9      1.91      0.00
   12    4    9      1.05      0.00
   13    4    9     -2.32      0.00
   14    4    9      1.92      0.00
   15    4    9      0.40      0.00
   16    4    9      0.62      0.00
   17    4    9      1.03      0.00
  -17    5    9      0.70      0.00
  -16    5    9     -1.45      0.00
  -15    5    9      0.90      0.00
  -14    5    9      0.58      0.00
  -13    5    9     -0.07      0.00
  -12    5    9     -0.07      0.00
  -11    5    9     -0.69      0.00
  -10    5    9      1.98      0.00
   -9    5    9     -3.29      0.00
   -8    5    9      3.21      0.00
   -7    5    9      0.04      0.00
   -6    5    9     -1.33      0.00
   -5    5    9      0.80      0.00
   -4    5    9     -4.09      0.00
   -3    5    9      6.23      0.00
   -2    5    9     -2.16      0.00
   -1    5    9      6.34      0.00
    0    5    9     -2.03      0.00
    1    5    9     -0.43      0.00
    2    5    9     -1.88      0.00
    3    5    9     -3.91      0.00
    4    5    9      6.60      0.00
    5    5    9     -4.56      0.00
    6    5    9      4.27      0.00
    7    5    9     -2.91      0.00
    8    5    9     -0.03      0.00
    9    5    9      2.17      0.00
   10    5    9     -0.58      0.00
   11    5    9      1.47      0.00
   12    5    9     -0.17      0.00
   13    5    9     -0.05      0.00
   14    5    9      0.72      0.00
   15    5    9     -0.37      0.00
   16    5    9     -0.88      0.00
   17    5    9     -0.71      0.00
  -17    6    9      0.83      0.00
  -16    6    9     -0.26      0.00
  -15    6    9     -0.37      0.00
  -14    6    9     -0.29      0.00
  -13    6    9     -0.41      0.00
  -12    6    9     -0.51      0.00
  -11    6    9      1.41      0.00
  -10    6    9      0.36      0.00
   -9    6    9     -0.15      0.00
   -8    6    9      3.97      0.00
   -7    6    9     -2.55      0.00
   -6    6    9      5.05      0.00
   -5    6    9      1.22      0.00
   -4    6    9      0.21      0.00
   -3    6    9     -2.40      0.00
   -2    6    9     -1.20      0.00
   -1    6    9     -1.66      0.00
    0    6    9     -6.25      0.00
    1    6    9      4.60      0.00
    2    6    9     -4.76      0.00
    3    6    9      3.05      0.00
    4    6    9     -2.48      0.00
    5    6    9     -2.41      0.00
    6    6    9      5.18      0.00
    7    6    9     -1.91      0.00
    8    6    9      5.03      0.00
    9    6    9     -0.49      0.00
   10    6    9     -1.14      0.00
   11    6    9      0.75      0.00
   12    6    9      0.09      0.00
   13    6    9     -1.72      0.00
   14    6    9      0.73      0.00
   15    6    9      0.40      0.00
   16    6    9      0.58      0.00
   17    6    9      0.95      0.00
  -17    7    9      1.60      0.00
  -16    7    9     -0.51      0.00
  -15    7    9      1.59      0.00
  -14    7    9      0.11      0.00
  -13    7    9      0.28      0.00
  -12    7    9     -0.62      0.00
  -11    7    9      0.87      0.00
  -10    7    9     -0.60      0.00
   -9    7    9     -0.83      0.00
   -8    7    9      1.29      0.00
   -7    7    9     -0.27      0.00
   -6    7    9      2.00      0.00
   -5    7    9     -3.05      0.00
   -4    7    9     -0.73      0.00
   -3    7    9      2.74      0.00
   -2    7    9      1.15      0.00
   -1    7    9      0.58      0.00
    0    7    9     -0.62      0.00
    1    7    9      0.77      0.00
    2    7    9     -6.47      0.00
    4    7    9     -2.29      0.00
    5    7    9     -1.28      0.00
    6    7    9      1.16      0.00
    7    7    9     -0.05      0.00
    8    7    9      0.59      0.00
    9    7    9     -0.37      0.00
   10    7    9      0.24      0.00
   11    7    9      0.68      0.00
   12    7    9      1.09      0.00
   13    7    9     -0.56      0.00
   14    7    9      1.19      0.00
   15    7    9     -0.83      0.00
   16    7    9     -1.48      0.00
   17    7    9     -0.32      0.00
  -17    8    9      0.64      0.00
  -16    8    9      0.53      0.00
  -15    8    9     -0.64      0.00
  -14    8    9      0.73      0.00
  -13    8    9     -1.74      0.00
  -12    8    9     -1.10      0.00
  -11    8    9      0.44      0.00
  -10    8    9     -2.00      0.00
   -9    8    9      1.25      0.00
   -8    8    9     -0.11      0.00
   -7    8    9     -0.46      0.00
   -6    8    9     -0.01      0.00
   -5    8    9      3.02      0.00
   -4    8    9      2.31      0.00
   -3    8    9      0.47      0.00
   -2    8    9      0.11      0.00
   -1    8    9     -2.53      0.00
    0    8    9     -1.93      0.00
    1    8    9      2.28      0.00
    2    8    9      1.34      0.00
    4    8    9     -1.35      0.00
    5    8    9     -1.88      0.00
    6    8    9      2.95      0.00
    7    8    9      0.55      0.00
    8    8    9      0.60      0.00
    9    8    9      0.72      0.00
   10    8    9     -2.02      0.00
   11    8    9     -0.81      0.00
   12    8    9     -0.57      0.00
   13    8    9     -0.56      0.00
   14    8    9      0.18      0.00
   15    8    9     -0.09      0.00
   16    8    9      0.77      0.00
   17    8    9      0.93      0.00
  -17    9    9      1.45      0.00
  -16    9    9      0.84      0.00
  -15    9    9      1.25      0.00
  -14    9    9      0.05      0.00
  -13    9    9     -0.22      0.00
  -12    9    9     -0.12      0.00
  -11    9    9      1.04      0.00
  -10    9    9     -2.01      0.00
   -9    9    9      0.89      0.00
   -8    9    9     -1.68      0.00
   -7    9    9     -0.08      0.00
   -6    9    9      2.39      0.00
   -5    9    9     -2.52      0.00
   -4    9    9      0.60      0.00
   -3    9    9      0.04      0.00
   -2    9    9      1.28      0.00
   -1    9    9     -3.49      0.00
    0    9    9      1.60      0.00
    1    9    9      0.04      0.00
    2    9    9     -5.59      0.00
    3    9    9      3.39      0.00
    4    9    9     -5.87      0.00
    5    9    9      3.01      0.00
    6    9    9      0.10      0.00
    7    9    9      2.63      0.00
    8    9    9     -0.55      0.00
    9    9    9     -1.41      0.00
   10    9    9     -0.58      0.00
   11    9    9     -0.22      0.00
   12    9    9      1.71      0.00
   13    9    9     -1.15      0.00
   14    9    9      0.20      0.00
   15    9    9     -0.60      0.00
   16    9    9     -2.07      0.00
  -17   10    9      0.90      0.00
  -16   10    9     -0.02      0.00
  -15   10    9     -0.92      0.00
  -14   10    9      0.67      0.00
  -13   10    9     -1.74      0.00
  -12   10    9     -0.26      0.00
  -11   10    9     -1.31      0.00
  -10   10    9     -1.20      0.00
   -9   10    9      1.34      0.00
   -8   10    9     -2.44      0.00
   -7   10    9      1.82      0.00
   -6   10    9     -4.19      0.00
   -5   10    9      2.88      0.00
   -4   10    9      1.06      0.00
   -3   10    9      1.86      0.00
   -2   10    9     -0.81      0.00
   -1   10    9     -4.56      0.00
    0   10    9      1.28      0.00
    1   10    9     -3.93      0.00
    2   10    9      5.99      0.00
    3   10    9     -2.38      0.00
    4   10    9      0.44      0.00
    5   10    9      0.60      0.00
    6   10    9     -1.87      0.00
    7   10    9      3.99      0.00
    8   10    9     -2.97      0.00
    9   10    9      2.13      0.00
   10   10    9     -0.44      0.00
   11   10    9     -0.84      0.00
   12   10    9     -0.53      0.00
   13   10    9      0.43      0.00
   14   10    9      0.30      0.00
   15   10    9     -0.91      0.00
   16   10    9      0.43      0.00
  -17   11    9      0.63      0.00
  -16   11    9      0.51      0.00
  -15   11    9      0.23      0.00
  -14   11    9     -0.40      0.00
  -13   11    9     -0.79      0.00
  -12   11    9      0.01      0.00
  -11   11    9     -0.32      0.00
  -10   11    9     -0.32      0.00
   -9   11    9     -0.24      0.00
   -8   11    9     -1.97      0.00
   -7   11    9      0.35      0.00
   -6   11    9      0.92      0.00
   -5   11    9      2.04      0.00
   -4   11    9      0.42      0.00
   -3   11    9      1.34      0.00
   -2   11    9     -2.38      0.00
   -1   11    9     -2.10      0.00
    0   11    9      2.09      0.00
    1   11    9     -0.99      0.00
    2   11    9     -0.41      0.00
    3   11    9     -2.00      0.00
    4   11    9     -1.10      0.00
    5   11    9     -0.49      0.00
    6   11    9      2.41      0.00
    7   11    9      2.23      0.00
    8   11    9     -2.63      0.00
    9   11    9     -0.01      0.00
   10   11    9     -1.49      0.00
   11   11    9     -0.24      0.00
   12   11    9      1.45      0.00
   13   11    9     -0.37      0.00
   14   11    9     -0.96      0.00
   15   11    9     -0.10      0.00
   16   11    9     -0.79      0.00
  -17   12    9      1.26      0.00
  -16   12    9     -0.82      0.00
  -15   12    9     -0.52      0.00
  -14   12    9      0.12      0.00
  -13   12    9      0.07      0.00
  -12   12    9      0.33      0.00
  -11   12    9     -0.83      0.00
  -10   12    9      0.61      0.00
   -9   12    9     -1.03      0.00
   -8   12    9      0.38      0.00
   -7   12    9     -0.01      0.00
   -6   12    9     -2.44      0.00
   -5   12    9      0.08      0.00
   -4   12    9     -0.84      0.00
   -3   12    9      2.32      0.00
   -2   12    9     -3.94      0.00
   -1   12    9     -0.27      0.00
    0   12    9     -2.33      0.00
    1   12    9     -2.56      0.00
    2   12    9      2.05      0.00
    3   12    9     -2.93      0.00
    4   12    9      1.10      0.00
    5   12    9      0.61      0.00
    6   12    9     -0.87      0.00
    7   12    9      0.88      0.00
    8   12    9     -0.38      0.00
    9   12    9      1.34      0.00
   10   12    9      1.84      0.00
   11   12    9     -0.08      0.00
   12   12    9     -0.25      0.00
   13   12    9      0.89      0.00
   14   12    9     -0.07      0.00
   15   12    9     -0.78      0.00
   16   12    9     -0.65      0.00
  -17   13    9     -0.14      0.00
  -16   13    9     -1.18      0.00
  -15   13    9     -0.39      0.00
  -14   13    9     -0.95      0.00
  -13   13    9     -0.30      0.00
  -12   13    9     -0.57      0.00
  -11   13    9     -0.39      0.00
  -10   13    9      1.03      0.00
   -9   13    9     -0.77      0.00
   -8   13    9     -0.53      0.00
   -7   13    9     -1.00      0.00
   -6   13    9      0.95      0.00
   -5   13    9      2.36      0.00
   -4   13    9      2.54      0.00
   -3   13    9      0.11      0.00
   -2   13    9     -3.15      0.00
   -1   13    9     -0.65      0.00
    0   13    9      1.66      0.00
    1   13    9      0.14      0.00
    2   13    9      1.60      0.00
    3   13    9     -2.81      0.00
    4   13    9      1.76      0.00
    5   13    9     -1.88      0.00
    6   13    9      2.29      0.00
    7   13    9      1.45      0.00
    8   13    9     -2.94      0.00
    9   13    9      0.41      0.00
   10   13    9     -0.35      0.00
   11   13    9     -0.63      0.00
   12   13    9      0.78      0.00
   13   13    9      0.51      0.00
   14   13    9     -1.31      0.00
   15   13    9      0.09      0.00
   16   13    9      1.31      0.00
  -16   14    9     -0.92      0.00
  -15   14    9     -0.02      0.00
  -14   14    9     -0.18      0.00
  -13   14    9      1.61      0.00
  -12   14    9      0.14      0.00
  -11   14    9      1.60      0.00
  -10   14    9      0.16      0.00
   -9   14    9     -2.08      0.00
   -8   14    9      2.40      0.00
   -7   14    9     -1.09      0.00
   -6   14    9      1.01      0.00
   -5   14    9     -1.33      0.00
   -4   14    9     -0.95      0.00
   -3   14    9      1.42      0.00
   -2   14    9     -3.61      0.00
   -1   14    9      4.97      0.00
    0   14    9     -4.56      0.00
    1   14    9      1.99      0.00
    3   14    9     -0.72      0.00
    4   14    9     -0.02      0.00
    5   14    9     -0.16      0.00
    6   14    9      1.83      0.00
    7   14    9     -3.02      0.00
    8   14    9      2.60      0.00
    9   14    9      0.34      0.00
   10   14    9      2.44      0.00
   11   14    9     -0.06      0.00
   12   14    9      0.03      0.00
   13   14    9      0.89      0.00
   14   14    9     -0.89      0.00
   15   14    9      0.15      0.00
   16   14    9     -1.54      0.00
  -16   15    9     -1.84      0.00
  -15   15    9     -0.78      0.00
  -14   15    9     -0.72      0.00
  -13   15    9      0.28      0.00
  -12   15    9     -0.34      0.00
  -11   15    9      0.22      0.00
  -10   15    9      0.55      0.00
   -9   15    9      0.60      0.00
   -8   15    9     -0.10      0.00
   -7   15    9     -2.82      0.00
   -6   15    9      0.68      0.00
   -5   15    9     -1.30      0.00
   -4   15    9      3.65      0.00
   -3   15    9     -3.40      0.00
   -2   15    9     -0.29      0.00
   -1   15    9     -1.65      0.00
    0   15    9      2.09      0.00
    1   15    9      0.91      0.00
    2   15    9      0.94      0.00
    3   15    9      1.67      0.00
    4   15    9      0.92      0.00
    5   15    9      2.54      0.00
    6   15    9     -0.56      0.00
    7   15    9      1.68      0.00
    8   15    9     -1.69      0.00
    9   15    9     -0.99      0.00
   10   15    9      0.99      0.00
   11   15    9     -1.50      0.00
   12   15    9      0.31      0.00
   13   15    9      0.20      0.00
   14   15    9     -0.96      0.00
   15   15    9      0.11      0.00
  -16   16    9     -0.36      0.00
  -15   16    9     -0.10      0.00
  -14   16    9      0.09      0.00
  -13   16    9      1.23      0.00
  -12   16    9      0.32      0.00
  -11   16    9      2.65      0.00
  -10   16    9     -0.98      0.00
   -9   16    9     -0.55      0.00
   -8   16    9      0.18      0.00
   -7   16    9      1.65      0.00
   -6   16    9      1.63      0.00
   -5   16    9     -0.04      0.00
   -4   16    9      0.19      0.00
   -3   16    9     -0.78      0.00
   -2   16    9      0.37      0.00
   -1   16    9      3.70      0.00
    0   16    9     -0.98      0.00
    1   16    9      1.32      0.00
    2   16    9     -2.68      0.00
    3   16    9     -0.42      0.00
    4   16    9     -0.59      0.00
    5   16    9     -0.14      0.00
    6   16    9      1.13      0.00
    7   16    9     -1.64      0.00
    8   16    9      1.44      0.00
    9   16    9      0.58      0.00
   10   16    9      1.56      0.00
   11   16    9     -0.75      0.00
   12   16    9     -0.01      0.00
   13   16    9      0.71      0.00
   14   16    9     -0.78      0.00
   15   16    9      0.35      0.00
  -16   17    9     -1.05      0.00
  -15   17    9     -1.19      0.00
  -14   17    9     -0.23      0.00
  -13   17    9      0.07      0.00
  -12   17    9      0.95      0.00
  -11   17    9     -0.60      0.00
  -10   17    9      0.53      0.00
   -9   17    9      1.24      0.00
   -8   17    9     -0.26      0.00
   -7   17    9     -1.96      0.00
   -6   17    9     -1.95      0.00
   -5   17    9     -1.90      0.00
   -4   17    9      0.22      0.00
   -3   17    9     -2.93      0.00
   -2   17    9      1.53      0.00
   -1   17    9     -1.74      0.00
    0   17    9      2.71      0.00
    1   17    9     -1.46      0.00
    2   17    9      1.56      0.00
    3   17    9      2.40      0.00
    4   17    9      1.38      0.00
    5   17    9      4.28      0.00
    6   17    9     -1.52      0.00
    7   17    9      0.88      0.00
    8   17    9     -1.06      0.00
    9   17    9     -1.43      0.00
   10   17    9      0.31      0.00
   11   17    9     -1.25      0.00
   12   17    9      0.34      0.00
   13   17    9      0.03      0.00
   14   17    9     -0.69      0.00
   15   17    9      0.29      0.00
  -15   18    9     -0.32      0.00
  -14   18    9      0.65      0.00
  -13   18    9      0.12      0.00
  -12   18    9      0.59      0.00
  -11   18    9      1.41      0.00
  -10   18    9     -0.16      0.00
   -9   18    9      0.09      0.00
   -8   18    9     -1.94      0.00
   -7   18    9      2.93      0.00
   -6   18    9      0.80      0.00
   -5   18    9      0.81      0.00
   -4   18    9      0.68      0.00
   -3   18    9     -1.73      0.00
   -2   18    9      2.17      0.00
   -1   18    9     -0.42      0.00
    0   18    9      2.00      0.00
    1   18    9     -1.38      0.00
    2   18    9      1.49      0.00
    3   18    9     -1.66      0.00
    4   18    9      1.00      0.00
    5   18    9     -0.84      0.00
    6   18    9     -0.46      0.00
    7   18    9      0.77      0.00
    8   18    9     -0.53      0.00
    9   18    9      0.12      0.00
   10   18    9      0.47      0.00
   11   18    9     -1.13      0.00
   12   18    9     -0.69      0.00
   13   18    9      0.67      0.00
   14   18    9      0.35      0.00
   15   18    9     -0.35      0.00
  -15   19    9     -1.24      0.00
  -14   19    9     -0.17      0.00
  -13   19    9     -0.09      0.00
  -12   19    9      1.70      0.00
  -11   19    9     -1.20      0.00
  -10   19    9      1.42      0.00
   -9   19    9      0.37      0.00
   -8   19    9      0.60      0.00
   -7   19    9      0.44      0.00
   -6   19    9     -3.62      0.00
   -5   19    9     -0.27      0.00
   -4   19    9     -3.49      0.00
   -3   19    9      0.06      0.00
   -2   19    9      0.88      0.00
   -1   19    9      0.25      0.00
    0   19    9      1.81      0.00
    1   19    9     -3.83      0.00
    2   19    9      2.45      0.00
    3   19    9     -0.69      0.00
    4   19    9      2.86      0.00
    5   19    9      1.04      0.00
    6   19    9      0.18      0.00
    7   19    9     -0.71      0.00
    8   19    9     -1.41      0.00
    9   19    9      0.23      0.00
   10   19    9     -1.15      0.00
   11   19    9      0.14      0.00
   12   19    9      0.49      0.00
   13   19    9      1.21      0.00
   14   19    9     -0.84      0.00
  -15   20    9     -0.31      0.00
  -14   20    9      1.05      0.00
  -13   20    9     -0.49      0.00
  -12   20    9     -0.01      0.00
  -11   20    9      0.37      0.00
  -10   20    9      1.51      0.00
   -9   20    9     -0.45      0.00
   -8   20    9     -0.80      0.00
   -7   20    9      0.58      0.00
   -6   20    9      0.68      0.00
   -5   20    9      0.13      0.00
   -4   20    9      0.41      0.00
   -3   20    9     -0.65      0.00
   -2   20    9      0.26      0.00
   -1   20    9     -1.81      0.00
    0   20    9     -0.03      0.00
    1   20    9     -0.33      0.00
    2   20    9      3.34      0.00
    3   20    9     -1.37      0.00
    4   20    9      2.58      0.00
    5   20    9     -2.06      0.00
    6   20    9      0.28      0.00
    7   20    9     -0.11      0.00
    8   20    9      0.42      0.00
    9   20    9     -1.14      0.00
   10   20    9     -0.45      0.00
   11   20    9     -0.52      0.00
   12   20    9     -1.52      0.00
   13   20    9      0.85      0.00
   14   20    9      0.77      0.00
  -14   21    9     -0.32      0.00
  -13   21    9     -0.09      0.00
  -12   21    9      1.19      0.00
  -11   21    9      0.03      0.00
  -10   21    9      1.01      0.00
   -9   21    9     -0.25      0.00
   -8   21    9      1.54      0.00
   -7   21    9      1.07      0.00
   -6   21    9     -1.31      0.00
   -5   21    9     -1.08      0.00
   -4   21    9     -2.57      0.00
   -3   21    9      0.40      0.00
   -2   21    9      0.75      0.00
   -1   21    9      1.56      0.00
    0   21    9      0.56      0.00
    1   21    9     -2.68      0.00
    2   21    9      1.61      0.00
    3   21    9     -1.49      0.00
    4   21    9      1.88      0.00
    5   21    9     -0.93      0.00
    6   21    9      0.91      0.00
    7   21    9     -0.84      0.00
    8   21    9     -1.24      0.00
    9   21    9      1.55      0.00
   10   21    9     -0.95      0.00
   11   21    9      1.02      0.00
   12   21    9      0.68      0.00
   13   21    9      2.72      0.00
   14   21    9     -0.53      0.00
  -14   22    9      1.26      0.00
  -13   22    9     -1.10      0.00
  -12   22    9     -0.72      0.00
  -11   22    9      0.57      0.00
  -10   22    9      1.70      0.00
   -9   22    9      0.45      0.00
   -8   22    9      0.68      0.00
   -7   22    9     -0.93      0.00
   -6   22    9      0.30      0.00
   -5   22    9     -0.35      0.00
   -4   22    9      0.64      0.00
   -3   22    9      0.08      0.00
   -2   22    9     -0.78      0.00
   -1   22    9     -1.56      0.00
    0   22    9     -2.24      0.00
    1   22    9      2.67      0.00
    2   22    9      2.36      0.00
    3   22    9      0.27      0.00
    4   22    9      1.96      0.00
    5   22    9     -1.95      0.00
    6   22    9      1.64      0.00
    7   22    9     -1.63      0.00
    8   22    9      2.27      0.00
    9   22    9     -0.93      0.00
   10   22    9     -1.29      0.00
   11   22    9      0.36      0.00
   12   22    9     -1.54      0.00
   13   22    9      0.92      0.00
  -14   23    9     -0.47      0.00
  -13   23    9     -0.38      0.00
  -12   23    9      0.64      0.00
  -11   23    9      1.25      0.00
  -10   23    9     -0.40      0.00
   -9   23    9     -0.01      0.00
   -8   23    9      0.98      0.00
   -7   23    9      0.20      0.00
   -6   23    9      1.63      0.00
   -5   23    9     -2.31      0.00
   -4   23    9      0.03      0.00
   -3   23    9     -0.82      0.00
   -2   23    9      2.20      0.00
   -1   23    9      0.50      0.00
    0   23    9      1.21      0.00
    1   23    9     -0.33      0.00
    2   23    9      0.50      0.00
    3   23    9     -0.07      0.00
    4   23    9     -0.68      0.00
    5   23    9      0.84      0.00
    6   23    9     -0.37      0.00
    7   23    9      0.23      0.00
    8   23    9      0.16      0.00
    9   23    9      0.53      0.00
   10   23    9      0.59      0.00
   11   23    9      0.57      0.00
   12   23    9      0.87      0.00
   13   23    9      2.76      0.00
  -13   24    9     -1.62      0.00
  -12   24    9     -0.84      0.00
  -11   24    9      0.63      0.00
  -10   24    9      0.74      0.00
   -9   24    9      1.83      0.00
   -8   24    9      0.45      0.00
   -7   24    9      0.09      0.00
   -6   24    9     -0.46      0.00
   -5   24    9     -0.07      0.00
   -4   24    9      1.25      0.00
   -3   24    9     -0.04      0.00
   -2   24    9      0.73      0.00
   -1   24    9     -1.81      0.00
    0   24    9     -0.03      0.00
    1   24    9      3.18      0.00
    2   24    9      1.24      0.00
    3   24    9      0.72      0.00
    4   24    9      0.11      0.00
    5   24    9     -0.90      0.00
    6   24    9      0.64      0.00
    7   24    9     -0.70      0.00
    8   24    9      1.74      0.00
    9   24    9      0.78      0.00
   10   24    9     -1.31      0.00
   11   24    9      0.57      0.00
   12   24    9     -0.46      0.00
   13   24    9      0.75      0.00
  -13   25    9     -0.28      0.00
  -12   25    9      0.77      0.00
  -11   25    9      1.40      0.00
  -10   25    9     -0.52      0.00
   -9   25    9      0.85      0.00
   -8   25    9     -0.29      0.00
   -7   25    9      0.27      0.00
   -6   25    9      1.40      0.00
   -5   25    9     -0.71      0.00
   -4   25    9     -0.18      0.00
   -3   25    9     -0.17      0.00
   -2   25    9      2.48      0.00
   -1   25    9     -0.97      0.00
    0   25    9      2.45      0.00
    1   25    9     -0.21      0.00
    2   25    9      0.48      0.00
    3   25    9     -0.12      0.00
    4   25    9     -1.47      0.00
    5   25    9      2.73      0.00
    6   25    9     -0.95      0.00
    7   25    9      0.65      0.00
    8   25    9      1.16      0.00
    9   25    9     -1.16      0.00
   10   25    9      0.83      0.00
   11   25    9     -0.42      0.00
   12   25    9      0.61      0.00
  -12   26    9     -1.20      0.00
  -11   26    9      0.13      0.00
  -10   26    9      0.00      0.00
   -9   26    9      1.18      0.00
   -8   26    9      0.12      0.00
   -7   26    9      1.13      0.00
   -6   26    9      0.07      0.00
   -5   26    9      0.25      0.00
   -4   26    9      1.22      0.00
   -3   26    9      0.83      0.00
   -2   26    9      1.40      0.00
   -1   26    9     -1.28      0.00
    0   26    9      3.34      0.00
    1   26    9      1.27      0.00
    2   26    9      0.44      0.00
    3   26    9     -0.16      0.00
    4   26    9     -1.00      0.00
    5   26    9     -0.29      0.00
    6   26    9     -2.02      0.00
    7   26    9      1.16      0.00
    8   26    9     -0.18      0.00
    9   26    9      1.74      0.00
   10   26    9     -0.21      0.00
   11   26    9      0.45      0.00
   12   26    9      0.51      0.00
  -12   27    9      0.66      0.00
  -11   27    9      1.53      0.00
  -10   27    9      0.44      0.00
   -9   27    9      2.14      0.00
   -8   27    9     -0.65      0.00
   -7   27    9      1.29      0.00
   -6   27    9     -0.30      0.00
   -5   27    9      1.23      0.00
   -4   27    9     -1.14      0.00
   -3   27    9      1.37      0.00
   -2   27    9      0.72      0.00
   -1   27    9     -0.38      0.00
    0   27    9      1.57      0.00
    1   27    9     -1.36      0.00
    2   27    9      0.54      0.00
    3   27    9     -1.35      0.00
    4   27    9     -0.20      0.00
    5   27    9      2.18      0.00
    6   27    9      0.36      0.00
    7   27    9      0.36      0.00
    8   27    9      0.18      0.00
    9   27    9     -0.92      0.00
   10   27    9     -0.70      0.00
   11   27    9     -0.90      0.00
  -11   28    9     -0.15      0.00
  -10   28    9     -0.63      0.00
   -9   28    9     -0.61      0.00
   -8   28    9     -0.06      0.00
   -7   28    9      1.17      0.00
   -6   28    9      1.14      0.00
   -5   28    9      0.22      0.00
   -4   28    9      0.57      0.00
   -3   28    9      2.03      0.00
   -2   28    9     -0.12      0.00
   -1   28    9      0.97      0.00
    0   28    9      3.23      0.00
    1   28    9      0.24      0.00
    2   28    9     -0.46      0.00
    3   28    9     -0.06      0.00
    4   28    9     -0.52      0.00
    5   28    9      0.03      0.00
    6   28    9     -3.18      0.00
    7   28    9      1.01      0.00
    8   28    9     -0.74      0.00
    9   28    9      0.90      0.00
   10   28    9      0.47      0.00
   11   28    9      0.61      0.00
  -11   29    9      1.61      0.00
  -10   29    9      0.95      0.00
   -9   29    9      2.85      0.00
   -8   29    9     -0.04      0.00
   -7   29    9      1.71      0.00
   -6   29    9     -0.90      0.00
   -5   29    9      0.89      0.00
   -4   29    9      0.23      0.00
   -3   29    9      1.11      0.00
   -2   29    9     -0.24      0.00
   -1   29    9      1.07      0.00
    0   29    9     -0.45      0.00
    1   29    9     -1.38      0.00
    2   29    9      0.23      0.00
    3   29    9     -0.86      0.00
    4   29    9      1.13      0.00
    5   29    9      0.79      0.00
    6   29    9      1.86      0.00
    7   29    9      0.43      0.00
    8   29    9     -1.25      0.00
    9   29    9      0.45      0.00
   10   29    9     -1.53      0.00
  -10   30    9     -1.13      0.00
   -9   30    9     -1.15      0.00
   -8   30    9     -0.91      0.00
   -7   30    9      1.02      0.00
   -6   30    9      0.80      0.00
   -5   30    9     -0.10      0.00
   -4   30    9     -0.13      0.00
   -3   30    9      1.45      0.00
   -2   30    9     -1.58      0.00
   -1   30    9      2.85      0.00
    0   30    9      0.78      0.00
    1   30    9      0.64      0.00
    2   30    9     -0.22      0.00
    3   30    9      1.16      0.00
    4   30    9      0.93      0.00
    5   30    9      0.63      0.00
    6   30    9     -2.06      0.00
    7   30    9     -0.63      0.00
    8   30    9      0.03      0.00
    9   30    9     -0.26      0.00
   -9   31    9      2.12      0.00
   -8   31    9      0.55      0.00
   -7   31    9      1.30      0.00
   -6   31    9     -0.94      0.00
   -5   31    9      0.31      0.00
   -4   31    9      2.06      0.00
   -3   31    9     -0.23      0.00
   -2   31    9      1.11      0.00
   -1   31    9      0.98      0.00
    0   31    9     -1.18      0.00
    1   31    9     -0.28      0.00
    2   31    9      0.26      0.00
    3   31    9      1.25      0.00
    4   31    9      1.52      0.00
    5   31    9      0.16      0.00
    6   31    9      1.92      0.00
    7   31    9      0.58      0.00
    8   31    9     -0.97      0.00
    9   31    9      0.49      0.00
   -9   32    9     -0.41      0.00
   -8   32    9     -1.25      0.00
   -7   32    9      0.59      0.00
   -6   32    9      0.07      0.00
   -5   32    9     -0.42      0.00
   -4   32    9     -0.64      0.00
   -3   32    9      0.07      0.00
   -2   32    9     -1.72      0.00
   -1   32    9      2.30      0.00
    0   32    9     -0.15      0.00
    1   32    9      0.12      0.00
    2   32    9      1.63      0.00
    3   32    9      1.04      0.00
    4   32    9      1.68      0.00
    5   32    9      0.88      0.00
    6   32    9     -1.05      0.00
    7   32    9     -1.08      0.00
    8   32    9      0.10      0.00
   -8   33    9      0.36      0.00
   -7   33    9      0.68      0.00
   -6   33    9     -1.25      0.00
   -5   33    9      1.09      0.00
   -4   33    9      1.80      0.00
   -3   33    9     -0.36      0.00
   -2   33    9      2.49      0.00
   -1   33    9      0.16      0.00
    0   33    9     -1.07      0.00
    1   33    9      0.62      0.00
    2   33    9      0.61      0.00
    3   33    9      2.24      0.00
    4   33    9      1.47      0.00
    5   33    9     -0.39      0.00
    6   33    9      0.89      0.00
    7   33    9      0.07      0.00
   -7   34    9     -0.26      0.00
   -6   34    9      0.43      0.00
   -5   34    9     -0.56      0.00
   -4   34    9     -0.79      0.00
   -3   34    9      0.00      0.00
   -2   34    9     -1.20      0.00
   -1   34    9      0.21      0.00
    0   34    9      0.93      0.00
    1   34    9     -1.27      0.00
    2   34    9      2.79      0.00
    3   34    9     -0.72      0.00
    4   34    9      0.77      0.00
    5   34    9     -0.05      0.00
    6   34    9     -1.42      0.00
   -5   35    9      1.44      0.00
   -4   35    9      0.40      0.00
   -3   35    9      0.39      0.00
   -2   35    9      1.87      0.00
   -1   35    9      0.35      0.00
    0   35    9     -1.33      0.00
    1   35    9      0.61      0.00
    2   35    9      0.72      0.00
    3   35    9      1.47      0.00
    4   35    9      1.38      0.00
    5   35    9     -0.99      0.00
   -3   36    9      0.66      0.00
   -2   36    9     -0.66      0.00
   -1   36    9     -1.33      0.00
    0   36    9      1.50      0.00
    1   36    9     -1.31      0.00
    2   36    9      1.57      0.00
    3   36    9     -1.93      0.00
  -17    0   10      0.47      0.00
  -16    0   10      1.50      0.00
  -15    0   10      0.53      0.00
  -14    0   10     -0.64      0.00
  -13    0   10      1.32      0.00
  -12    0   10     -0.06      0.00
  -11    0   10     -0.17      0.00
  -10    0   10      2.48      0.00
   -9    0   10     -1.84      0.00
   -8    0   10      2.02      0.00
   -7    0   10      1.41      0.00
   -6    0   10     -1.01      0.00
   -5    0   10      0.64      0.00
   -4    0   10     -2.77      0.00
   -3    0   10      6.05      0.00
   -2    0   10     -9.18      0.00
   -1    0   10      1.86      0.00
    0    0   10     -6.34      0.00
    1    0   10     -1.00      0.00
    2    0   10      4.62      0.00
    3    0   10     -7.67      0.00
    4    0   10      6.27      0.00
    5    0   10    -35.68      0.00
    7    0   10     -7.03      0.00
    8    0   10      0.79      0.00
    9    0   10      0.70      0.00
   10    0   10     -1.62      0.00
   11    0   10      1.15      0.00
   12    0   10     -1.88      0.00
   13    0   10      1.27      0.00
   14    0   10      0.42      0.00
   15    0   10     -2.96      0.00
   16    0   10      2.75      0.00
  -17    1   10     -0.52      0.00
  -16    1   10      0.67      0.00
  -15    1   10      0.06      0.00
  -14    1   10      0.74      0.00
  -13    1   10     -0.22      0.00
  -12    1   10     -0.36      0.00
  -11    1   10     -0.06      0.00
  -10    1   10     -0.90      0.00
   -9    1   10     -0.58      0.00
   -8    1   10      0.44      0.00
   -7    1   10     -1.40      0.00
   -6    1   10      0.36      0.00
   -5    1   10     -0.94      0.00
   -4    1   10      2.52      0.00
   -3    1   10      0.86      0.00
   -2    1   10      0.34      0.00
   -1    1   10      3.98      0.00
    0    1   10     -2.23      0.00
    1    1   10      4.66      0.00
    2    1   10     -1.70      0.00
    3    1   10      2.71      0.00
    4    1   10     -1.35      0.00
    5    1   10     -1.79      0.00
    6    1   10      2.70      0.00
    7    1   10     -3.85      0.00
    8    1   10      1.46      0.00
    9    1   10     -1.89      0.00
   10    1   10     -0.36      0.00
   11    1   10     -1.25      0.00
   12    1   10     -0.45      0.00
   13    1   10      1.18      0.00
   14    1   10     -1.04      0.00
   15    1   10      0.16      0.00
   16    1   10     -0.09      0.00
  -17    2   10      0.60      0.00
  -16    2   10      1.59      0.00
  -15    2   10      0.53      0.00
  -14    2   10     -0.83      0.00
  -13    2   10      1.11      0.00
  -12    2   10     -0.36      0.00
  -11    2   10      0.42      0.00
  -10    2   10      0.55      0.00
   -9    2   10      0.11      0.00
   -8    2   10      0.09      0.00
   -7    2   10      0.72      0.00
   -6    2   10     -0.59      0.00
   -5    2   10     -0.70      0.00
   -4    2   10     -0.20      0.00
   -3    2   10      1.86      0.00
   -2    2   10     -4.96      0.00
   -1    2   10     -1.70      0.00
    0    2   10     -3.53      0.00
    1    2   10     -0.56      0.00
    2    2   10      3.46      0.00
    3    2   10     -1.59      0.00
    4    2   10      0.80      0.00
    6    2   10      3.94      0.00
    7    2   10     -2.52      0.00
    8    2   10      0.50      0.00
    9    2   10     -0.52      0.00
   10    2   10     -1.10      0.00
   11    2   10     -0.12      0.00
   12    2   10     -1.64      0.00
   13    2   10      0.40      0.00
   14    2   10     -0.30      0.00
   15    2   10     -2.24      0.00
   16    2   10      2.16      0.00
  -17    3   10     -1.30      0.00
  -16    3   10      1.30      0.00
  -15    3   10     -0.06      0.00
  -14    3   10      1.48      0.00
  -13    3   10     -0.38      0.00
  -12    3   10     -0.21      0.00
  -11    3   10     -0.29      0.00
  -10    3   10     -1.48      0.00
   -9    3   10     -0.40      0.00
   -8    3   10     -0.34      0.00
   -7    3   10     -1.25      0.00
   -6    3   10     -1.04      0.00
   -5    3   10     -1.35      0.00
   -4    3   10      3.96      0.00
   -3    3   10      1.13      0.00
   -2    3   10      0.73      0.00
   -1    3   10      6.31      0.00
    0    3   10     -2.51      0.00
    1    3   10      6.49      0.00
    2    3   10     -0.72      0.00
    3    3   10      3.36      0.00
    5    3   10     -2.27      0.00
    6    3   10      3.46      0.00
    7    3   10     -4.87      0.00
    8    3   10      1.02      0.00
    9    3   10     -2.46      0.00
   10    3   10     -0.46      0.00
   11    3   10     -2.23      0.00
   12    3   10     -0.59      0.00
   13    3   10      2.81      0.00
   14    3   10     -2.05      0.00
   15    3   10      0.16      0.00
   16    3   10     -0.61      0.00
  -17    4   10      0.41      0.00
  -16    4   10      1.52      0.00
  -15    4   10     -0.24      0.00
  -14    4   10     -1.06      0.00
  -13    4   10     -0.02      0.00
  -12    4   10     -0.58      0.00
  -11    4   10      0.43      0.00
  -10    4   10     -1.76      0.00
   -9    4   10      2.78      0.00
   -8    4   10     -2.37      0.00
   -7    4   10     -0.01      0.00
   -6    4   10     -0.04      0.00
   -5    4   10     -0.83      0.00
   -4    4   10      3.51      0.00
   -3    4   10     -3.27      0.00
   -2    4   10      1.26      0.00
   -1    4   10     -6.11      0.00
    0    4   10      0.86      0.00
    1    4   10     -0.70      0.00
    2    4   10      2.66      0.00
    3    4   10      5.12      0.00
    5    4   10     -1.60      0.00
    6    4   10     -2.70      0.00
    7    4   10      3.83      0.00
    8    4   10     -0.16      0.00
    9    4   10     -1.54      0.00
   10    4   10     -0.29      0.00
   11    4   10     -1.39      0.00
   12    4   10     -1.03      0.00
   13    4   10     -0.66      0.00
   14    4   10     -1.29      0.00
   15    4   10     -0.71      0.00
   16    4   10      1.41      0.00
  -17    5   10     -1.12      0.00
  -16    5   10      0.62      0.00
  -15    5   10     -0.28      0.00
  -14    5   10      0.71      0.00
  -13    5   10      0.19      0.00
  -12    5   10      0.76      0.00
  -11    5   10     -0.83      0.00
  -10    5   10      0.04      0.00
   -9    5   10      0.13      0.00
   -8    5   10     -2.29      0.00
   -7    5   10      1.27      0.00
   -6    5   10     -3.53      0.00
   -5    5   10     -0.59      0.00
   -4    5   10      0.64      0.00
   -3    5   10     -0.50      0.00
   -2    5   10      0.55      0.00
   -1    5   10      2.30      0.00
    0    5   10      2.06      0.00
    1    5   10      0.38      0.00
    2    5   10      3.95      0.00
    3    5   10     -0.98      0.00
    5    5   10      0.78      0.00
    6    5   10     -1.11      0.00
    7    5   10      0.93      0.00
    8    5   10     -2.72      0.00
    9    5   10      0.17      0.00
   10    5   10      0.18      0.00
   11    5   10     -0.84      0.00
   12    5   10      0.11      0.00
   13    5   10      3.17      0.00
   14    5   10     -1.25      0.00
   15    5   10      0.10      0.00
   16    5   10     -1.24      0.00
  -17    6   10     -0.28      0.00
  -16    6   10      0.64      0.00
  -15    6   10     -1.60      0.00
  -14    6   10     -0.68      0.00
  -13    6   10     -1.20      0.00
  -12    6   10     -0.10      0.00
  -11    6   10     -0.88      0.00
  -10    6   10     -0.54      0.00
   -9    6   10      2.06      0.00
   -8    6   10     -1.44      0.00
   -7    6   10     -0.13      0.00
   -6    6   10     -0.69      0.00
   -5    6   10      2.16      0.00
   -4    6   10      2.78      0.00
   -3    6   10     -2.05      0.00
   -2    6   10      1.28      0.00
   -1    6   10     -4.17      0.00
    0    6   10      1.61      0.00
    1    6   10     -1.78      0.00
    2    6   10      4.75      0.00
    3    6   10      1.49      0.00
    5    6   10      2.92      0.00
    6    6   10     -1.51      0.00
    7    6   10      3.15      0.00
    8    6   10     -0.10      0.00
    9    6   10     -0.21      0.00
   10    6   10      0.18      0.00
   11    6   10     -0.61      0.00
   12    6   10     -0.73      0.00
   13    6   10     -0.54      0.00
   14    6   10     -1.41      0.00
   15    6   10      0.33      0.00
   16    6   10      1.55      0.00
  -17    7   10     -0.39      0.00
  -16    7   10     -0.59      0.00
  -15    7   10      0.01      0.00
  -14    7   10     -0.69      0.00
  -13    7   10      1.13      0.00
  -12    7   10      1.15      0.00
  -11    7   10     -0.80      0.00
  -10    7   10      1.98      0.00
   -9    7   10     -1.23      0.00
   -8    7   10     -1.21      0.00
   -7    7   10      0.58      0.00
   -6    7   10     -1.69      0.00
   -5    7   10     -1.10      0.00
   -4    7   10     -2.00      0.00
   -3    7   10     -2.32      0.00
   -2    7   10     -0.51      0.00
   -1    7   10      0.75      0.00
    0    7   10      3.19      0.00
    1    7   10     -0.77      0.00
    2    7   10      2.55      0.00
    3    7   10     -1.65      0.00
    4    7   10      2.57      0.00
    5    7   10      2.35      0.00
    6    7   10     -2.65      0.00
    7    7   10      2.21      0.00
    8    7   10     -2.55      0.00
    9    7   10      0.63      0.00
   10    7   10      0.87      0.00
   11    7   10      0.91      0.00
   12    7   10      0.36      0.00
   13    7   10      2.50      0.00
   14    7   10     -0.20      0.00
   15    7   10      0.61      0.00
   16    7   10     -1.51      0.00
  -17    8   10     -0.63      0.00
  -16    8   10     -0.83      0.00
  -15    8   10     -1.79      0.00
  -14    8   10     -0.09      0.00
  -13    8   10     -0.56      0.00
  -12    8   10      0.27      0.00
  -11    8   10     -1.05      0.00
  -10    8   10      1.45      0.00
   -9    8   10     -0.21      0.00
   -8    8   10      1.02      0.00
   -7    8   10     -0.93      0.00
   -6    8   10     -1.33      0.00
   -5    8   10      2.47      0.00
   -4    8   10     -0.33      0.00
   -3    8   10      0.21      0.00
   -2    8   10     -1.41      0.00
   -1    8   10      0.34      0.00
    0    8   10      0.16      0.00
    1    8   10     -1.44      0.00
    2    8   10      5.80      0.00
    3    8   10     -2.82      0.00
    5    8   10     -1.51      0.00
    6    8   10      2.30      0.00
    7    8   10     -1.05      0.00
    8    8   10      1.21      0.00
    9    8   10      0.89      0.00
   10    8   10      1.14      0.00
   11    8   10      0.10      0.00
   12    8   10     -1.03      0.00
   13    8   10     -0.30      0.00
   14    8   10     -0.76      0.00
   15    8   10      0.15      0.00
   16    8   10      1.91      0.00
  -17    9   10     -0.50      0.00
  -16    9   10     -0.94      0.00
  -15    9   10      0.47      0.00
  -14    9   10     -1.12      0.00
  -13    9   10      1.60      0.00
  -12    9   10      0.65      0.00
  -11    9   10      0.67      0.00
  -10    9   10      2.17      0.00
   -9    9   10     -1.92      0.00
   -8    9   10      1.71      0.00
   -7    9   10     -1.63      0.00
   -6    9   10      2.81      0.00
   -5    9   10     -1.73      0.00
   -4    9   10     -1.50      0.00
   -3    9   10     -3.48      0.00
   -2    9   10     -1.50      0.00
   -1    9   10      1.82      0.00
    0    9   10     -0.22      0.00
    1    9   10      3.03      0.00
    2    9   10     -4.08      0.00
    3    9   10      2.03      0.00
    4    9   10      0.45      0.00
    5    9   10      1.38      0.00
    6    9   10      0.52      0.00
    7    9   10     -1.05      0.00
    8    9   10      1.67      0.00
    9    9   10     -0.70      0.00
   10    9   10      1.00      0.00
   11    9   10      1.10      0.00
   12    9   10      0.12      0.00
   13    9   10      1.06      0.00
   14    9   10     -0.11      0.00
   15    9   10      1.39      0.00
   16    9   10     -1.46      0.00
  -16   10   10     -1.42      0.00
  -15   10   10     -1.05      0.00
  -14   10   10      0.22      0.00
  -13   10   10      0.64      0.00
  -12   10   10      0.07      0.00
  -11   10   10      0.24      0.00
  -10   10   10      0.68      0.00
   -9   10   10     -0.45      0.00
   -8   10   10      1.80      0.00
   -7   10   10     -1.56      0.00
   -6   10   10      0.06      0.00
   -5   10   10     -1.02      0.00
   -4   10   10     -1.07      0.00
   -3   10   10     -0.83      0.00
   -2   10   10     -0.18      0.00
   -1   10   10      1.68      0.00
    0   10   10     -0.08      0.00
    1   10   10      0.02      0.00
    2   10   10      2.44      0.00
    3   10   10      0.05      0.00
    4   10   10      4.73      0.00
    5   10   10     -0.45      0.00
    6   10   10      0.24      0.00
    7   10   10     -2.01      0.00
    8   10   10      2.31      0.00
    9   10   10      0.13      0.00
   10   10   10      2.18      0.00
   11   10   10     -0.22      0.00
   12   10   10     -0.98      0.00
   13   10   10     -0.68      0.00
   14   10   10      0.54      0.00
   15   10   10     -0.50      0.00
   16   10   10      1.24      0.00
  -16   11   10     -0.05      0.00
  -15   11   10      0.56      0.00
  -14   11   10     -0.26      0.00
  -13   11   10      0.83      0.00
  -12   11   10      0.04      0.00
  -11   11   10      1.27      0.00
  -10   11   10      0.31      0.00
   -9   11   10     -0.14      0.00
   -8   11   10      0.92      0.00
   -7   11   10     -0.71      0.00
   -6   11   10      3.14      0.00
   -5   11   10     -0.48      0.00
   -4   11   10      0.00      0.00
   -3   11   10     -3.49      0.00
   -2   11   10     -0.21      0.00
   -1   11   10      0.14      0.00
    0   11   10     -0.39      0.00
    1   11   10      2.57      0.00
    4   11   10     -0.94      0.00
    5   11   10      0.00      0.00
    6   11   10      1.76      0.00
    7   11   10     -1.10      0.00
    8   11   10      2.39      0.00
    9   11   10     -0.71      0.00
   10   11   10     -0.06      0.00
   11   11   10     -0.13      0.00
   12   11   10      0.04      0.00
   13   11   10     -0.25      0.00
   14   11   10      0.00      0.00
   15   11   10      1.73      0.00
  -16   12   10     -0.08      0.00
  -15   12   10     -0.49      0.00
  -14   12   10      0.82      0.00
  -13   12   10      0.50      0.00
  -12   12   10      0.51      0.00
  -11   12   10      0.64      0.00
  -10   12   10     -0.61      0.00
   -9   12   10      0.39      0.00
   -8   12   10      1.07      0.00
   -7   12   10     -0.27      0.00
   -6   12   10      1.19      0.00
   -5   12   10     -2.27      0.00
   -4   12   10     -1.23      0.00
   -3   12   10     -1.13      0.00
   -2   12   10      2.20      0.00
   -1   12   10      1.11      0.00
    0   12   10      0.41      0.00
    1   12   10      0.22      0.00
    3   12   10      3.07      0.00
    4   12   10     -0.40      0.00
    5   12   10      2.55      0.00
    6   12   10     -3.38      0.00
    7   12   10     -0.70      0.00
    8   12   10      2.01      0.00
    9   12   10     -0.50      0.00
   10   12   10      1.17      0.00
   11   12   10     -0.15      0.00
   12   12   10     -0.59      0.00
   13   12   10     -1.09      0.00
   14   12   10      1.64      0.00
   15   12   10     -0.82      0.00
  -16   13   10      0.71      0.00
  -15   13   10      0.41      0.00
  -14   13   10      0.44      0.00
  -13   13   10     -0.42      0.00
  -12   13   10     -0.29      0.00
  -11   13   10     -0.65      0.00
  -10   13   10     -0.90      0.00
   -9   13   10      1.24      0.00
   -8   13   10     -1.85      0.00
   -7   13   10      1.13      0.00
   -6   13   10     -0.04      0.00
   -5   13   10      0.72      0.00
   -4   13   10      0.63      0.00
   -3   13   10     -1.78      0.00
   -2   13   10      1.84      0.00
   -1   13   10     -3.16      0.00
    0   13   10      2.71      0.00
    1   13   10     -1.51      0.00
    2   13   10      0.21      0.00
    3   13   10      1.73      0.00
    4   13   10      0.61      0.00
    5   13   10     -1.15      0.00
    6   13   10     -0.20      0.00
    7   13   10      1.59      0.00
    8   13   10     -0.97      0.00
    9   13   10      0.03      0.00
   10   13   10     -1.39      0.00
   11   13   10     -0.84      0.00
   12   13   10      0.10      0.00
   13   13   10     -0.41      0.00
   14   13   10      0.87      0.00
   15   13   10      1.27      0.00
  -16   14   10      1.65      0.00
  -15   14   10      0.19      0.00
  -14   14   10      1.48      0.00
  -13   14   10     -0.07      0.00
  -12   14   10      1.15      0.00
  -11   14   10      0.04      0.00
  -10   14   10     -0.05      0.00
   -9   14   10     -0.09      0.00
   -8   14   10      0.25      0.00
   -7   14   10      1.70      0.00
   -6   14   10     -0.11      0.00
   -5   14   10      0.23      0.00
   -4   14   10     -2.67      0.00
   -3   14   10      1.32      0.00
   -2   14   10      1.01      0.00
   -1   14   10      1.59      0.00
    0   14   10     -0.07      0.00
    1   14   10     -0.04      0.00
    2   14   10     -0.47      0.00
    3   14   10      1.47      0.00
    4   14   10     -0.65      0.00
    5   14   10      0.27      0.00
    6   14   10     -1.68      0.00
    7   14   10     -0.93      0.00
    8   14   10      1.27      0.00
    9   14   10      0.14      0.00
   10   14   10     -1.22      0.00
   11   14   10      0.48      0.00
   12   14   10     -0.63      0.00
   13   14   10     -0.82      0.00
   14   14   10      1.38      0.00
   15   14   10     -0.71      0.00
  -15   15   10      0.38      0.00
  -14   15   10      0.00      0.00
  -13   15   10     -0.51      0.00
  -12   15   10     -0.57      0.00
  -11   15   10     -2.30      0.00
  -10   15   10      0.03      0.00
   -9   15   10      0.56      0.00
   -8   15   10     -0.75      0.00
   -7   15   10     -0.14      0.00
   -6   15   10     -0.99      0.00
   -5   15   10     -0.26      0.00
   -4   15   10      0.11      0.00
   -3   15   10      0.63      0.00
   -2   15   10      0.87      0.00
   -1   15   10     -3.55      0.00
    0   15   10      1.97      0.00
    1   15   10     -2.32      0.00
    2   15   10      2.56      0.00
    3   15   10      1.31      0.00
    4   15   10      2.01      0.00
    5   15   10     -1.36      0.00
    6   15   10     -0.77      0.00
    7   15   10      2.14      0.00
    8   15   10     -1.93      0.00
    9   15   10      0.11      0.00
   10   15   10     -1.37      0.00
   11   15   10     -0.01      0.00
   12   15   10      0.30      0.00
   13   15   10      0.08      0.00
   14   15   10      1.22      0.00
   15   15   10      0.53      0.00
  -15   16   10      1.09      0.00
  -14   16   10      1.17      0.00
  -13   16   10      0.04      0.00
  -12   16   10      0.06      0.00
  -11   16   10      0.29      0.00
  -10   16   10      0.18      0.00
   -9   16   10     -0.83      0.00
   -8   16   10     -0.45      0.00
   -7   16   10      1.74      0.00
   -6   16   10     -0.80      0.00
   -5   16   10      1.54      0.00
   -4   16   10     -1.32      0.00
   -3   16   10      2.75      0.00
   -2   16   10     -1.14      0.00
   -1   16   10      2.08      0.00
    0   16   10     -0.78      0.00
    1   16   10      1.34      0.00
    2   16   10      1.02      0.00
    3   16   10     -0.07      0.00
    4   16   10      0.67      0.00
    5   16   10     -3.38      0.00
    6   16   10      1.73      0.00
    7   16   10     -1.88      0.00
    8   16   10      1.27      0.00
    9   16   10      0.82      0.00
   10   16   10     -1.57      0.00
   11   16   10      0.67      0.00
   12   16   10     -0.66      0.00
   13   16   10     -0.22      0.00
   14   16   10      0.35      0.00
  -15   17   10      0.47      0.00
  -14   17   10     -0.74      0.00
  -13   17   10      0.30      0.00
  -12   17   10     -0.71      0.00
  -11   17   10     -1.58      0.00
  -10   17   10      0.55      0.00
   -9   17   10     -0.20      0.00
   -8   17   10      1.92      0.00
   -7   17   10     -2.23      0.00
   -6   17   10     -0.20      0.00
   -5   17   10     -1.57      0.00
   -4   17   10     -0.87      0.00
   -3   17   10      1.50      0.00
   -2   17   10     -1.31      0.00
   -1   17   10     -1.11      0.00
    0   17   10     -1.26      0.00
    1   17   10      0.49      0.00
    2   17   10      0.10      0.00
    3   17   10      3.08      0.00
    4   17   10      0.54      0.00
    5   17   10      0.23      0.00
    6   17   10      0.26      0.00
    7   17   10      0.75      0.00
    8   17   10      0.08      0.00
    9   17   10      0.14      0.00
   10   17   10     -0.46      0.00
   11   17   10      0.94      0.00
   12   17   10      0.94      0.00
   13   17   10     -0.05      0.00
   14   17   10      0.38      0.00
  -15   18   10      1.38      0.00
  -14   18   10      0.40      0.00
  -13   18   10      0.26      0.00
  -12   18   10     -1.64      0.00
  -11   18   10      1.11      0.00
  -10   18   10     -0.85      0.00
   -9   18   10     -0.12      0.00
   -8   18   10     -1.17      0.00
   -7   18   10     -0.08      0.00
   -6   18   10      0.63      0.00
   -5   18   10      0.08      0.00
   -4   18   10      2.93      0.00
   -3   18   10      1.48      0.00
   -2   18   10     -1.12      0.00
   -1   18   10      0.65      0.00
    0   18   10     -0.16      0.00
    1   18   10      3.10      0.00
    2   18   10      1.16      0.00
    3   18   10      1.13      0.00
    4   18   10     -0.42      0.00
    5   18   10     -2.59      0.00
    6   18   10      1.51      0.00
    7   18   10     -0.99      0.00
    8   18   10      1.67      0.00
    9   18   10      0.43      0.00
   10   18   10      0.36      0.00
   11   18   10      0.04      0.00
   12   18   10     -0.30      0.00
   13   18   10     -0.72      0.00
   14   18   10     -0.08      0.00
  -14   19   10     -0.99      0.00
  -13   19   10      0.54      0.00
  -12   19   10     -0.21      0.00
  -11   19   10     -0.41      0.00
  -10   19   10     -0.75      0.00
   -9   19   10      0.04      0.00
   -8   19   10      1.02      0.00
   -7   19   10     -1.29      0.00
   -6   19   10     -0.81      0.00
   -5   19   10     -0.98      0.00
   -4   19   10     -1.07      0.00
   -3   19   10      0.31      0.00
   -2   19   10     -0.81      0.00
   -1   19   10      0.94      0.00
    0   19   10     -0.75      0.00
    1   19   10      1.84      0.00
    2   19   10     -1.69      0.00
    3   19   10      3.32      0.00
    4   19   10     -2.05      0.00
    5   19   10      1.87      0.00
    6   19   10     -0.15      0.00
    7   19   10      0.42      0.00
    8   19   10      0.38      0.00
    9   19   10      0.78      0.00
   10   19   10      0.14      0.00
   11   19   10      0.75      0.00
   12   19   10      1.82      0.00
   13   19   10     -0.89      0.00
   14   19   10     -0.33      0.00
  -14   20   10      0.06      0.00
  -13   20   10      0.17      0.00
  -12   20   10     -1.70      0.00
  -11   20   10      0.69      0.00
  -10   20   10     -0.89      0.00
   -9   20   10      0.85      0.00
   -8   20   10     -1.41      0.00
   -7   20   10     -1.19      0.00
   -6   20   10      0.73      0.00
   -5   20   10     -0.10      0.00
   -4   20   10      3.95      0.00
   -3   20   10      0.66      0.00
   -2   20   10     -0.88      0.00
   -1   20   10     -1.25      0.00
    0   20   10      1.12      0.00
    1   20   10      2.77      0.00
    2   20   10      1.24      0.00
    3   20   10      1.78      0.00
    4   20   10     -1.14      0.00
    5   20   10      0.25      0.00
    6   20   10     -0.39      0.00
    7   20   10      0.48      0.00
    8   20   10      1.41      0.00
    9   20   10     -0.55      0.00
   10   20   10      1.38      0.00
   11   20   10     -0.74      0.00
   12   20   10     -0.06      0.00
   13   20   10     -2.24      0.00
  -14   21   10     -1.11      0.00
  -13   21   10      0.33      0.00
  -12   21   10      0.44      0.00
  -11   21   10     -0.56      0.00
  -10   21   10     -1.60      0.00
   -9   21   10     -0.48      0.00
   -8   21   10     -1.24      0.00
   -7   21   10      0.63      0.00
   -6   21   10     -1.23      0.00
   -5   21   10      0.25      0.00
   -4   21   10     -0.46      0.00
   -3   21   10     -0.94      0.00
   -2   21   10      0.48      0.00
   -1   21   10      1.76      0.00
    0   21   10      1.90      0.00
    1   21   10      0.15      0.00
    2   21   10     -1.18      0.00
    3   21   10      0.89      0.00
    4   21   10     -2.73      0.00
    5   21   10      1.59      0.00
    6   21   10     -1.55      0.00
    7   21   10      1.30      0.00
    8   21   10     -1.65      0.00
    9   21   10      1.07      0.00
   10   21   10      0.43      0.00
   11   21   10     -0.01      0.00
   12   21   10      2.05      0.00
   13   21   10     -1.53      0.00
  -13   22   10      0.07      0.00
  -12   22   10     -0.92      0.00
  -11   22   10     -0.59      0.00
  -10   22   10      0.15      0.00
   -9   22   10      0.66      0.00
   -8   22   10     -0.99      0.00
   -7   22   10     -0.51      0.00
   -6   22   10     -1.32      0.00
   -5   22   10      1.90      0.00
   -4   22   10      1.20      0.00
   -3   22   10      1.49      0.00
   -2   22   10     -1.98      0.00
   -1   22   10     -0.86      0.00
    0   22   10      0.72      0.00
    1   22   10      1.18      0.00
    2   22   10      1.08      0.00
    3   22   10      0.39      0.00
    4   22   10      0.03      0.00
    5   22   10      0.29      0.00
    6   22   10     -0.28      0.00
    7   22   10      0.04      0.00
    8   22   10      0.30      0.00
    9   22   10     -0.66      0.00
   10   22   10      0.29      0.00
   11   22   10     -0.69      0.00
   12   22   10     -0.26      0.00
   13   22   10     -2.79      0.00
  -13   23   10      0.66      0.00
  -12   23   10      0.55      0.00
  -11   23   10     -1.04      0.00
  -10   23   10     -0.89      0.00
   -9   23   10     -2.20      0.00
   -8   23   10     -1.16      0.00
   -7   23   10     -0.14      0.00
   -6   23   10     -0.09      0.00
   -5   23   10      0.11      0.00
   -4   23   10     -0.34      0.00
   -3   23   10     -1.01      0.00
   -2   23   10     -0.48      0.00
   -1   23   10      2.34      0.00
    0   23   10      1.48      0.00
    1   23   10     -1.23      0.00
    2   23   10     -0.62      0.00
    3   23   10     -0.80      0.00
    4   23   10     -1.31      0.00
    5   23   10      0.67      0.00
    6   23   10     -1.28      0.00
    7   23   10      1.41      0.00
    8   23   10     -2.65      0.00
    9   23   10      0.02      0.00
   10   23   10      0.52      0.00
   11   23   10     -0.42      0.00
   12   23   10      1.18      0.00
  -13   24   10      0.06      0.00
  -12   24   10     -0.60      0.00
  -11   24   10     -0.91      0.00
  -10   24   10      0.32      0.00
   -9   24   10     -0.13      0.00
   -8   24   10     -0.31      0.00
   -7   24   10      0.14      0.00
   -6   24   10     -1.94      0.00
   -5   24   10      1.98      0.00
   -4   24   10      0.09      0.00
   -3   24   10      0.88      0.00
   -2   24   10     -2.53      0.00
   -1   24   10      0.88      0.00
    0   24   10     -1.37      0.00
    1   24   10      0.65      0.00
    2   24   10     -0.20      0.00
    3   24   10     -0.41      0.00
    4   24   10      0.93      0.00
    5   24   10     -1.71      0.00
    6   24   10      1.19      0.00
    7   24   10     -1.50      0.00
    8   24   10     -0.65      0.00
    9   24   10      0.30      0.00
   10   24   10     -0.88      0.00
   11   24   10      0.01      0.00
   12   24   10     -0.53      0.00
  -12   25   10      0.60      0.00
  -11   25   10     -0.80      0.00
  -10   25   10     -0.06      0.00
   -9   25   10     -2.60      0.00
   -8   25   10     -0.07      0.00
   -7   25   10     -1.96      0.00
   -6   25   10      0.22      0.00
   -5   25   10     -0.47      0.00
   -4   25   10     -0.82      0.00
   -3   25   10     -1.06      0.00
   -2   25   10     -1.57      0.00
   -1   25   10      1.89      0.00
    0   25   10     -1.46      0.00
    1   25   10     -0.54      0.00
    2   25   10     -0.61      0.00
    3   25   10      0.16      0.00
    4   25   10      0.10      0.00
    5   25   10      1.07      0.00
    6   25   10      0.93      0.00
    7   25   10      0.39      0.00
    8   25   10     -1.10      0.00
    9   25   10     -1.31      0.00
   10   25   10      0.20      0.00
   11   25   10     -0.34      0.00
  -12   26   10     -0.28      0.00
  -11   26   10     -0.53      0.00
  -10   26   10     -0.31      0.00
   -9   26   10     -1.09      0.00
   -8   26   10      0.24      0.00
   -7   26   10     -0.62      0.00
   -6   26   10     -0.06      0.00
   -5   26   10     -0.36      0.00
   -4   26   10      1.44      0.00
   -3   26   10     -1.71      0.00
   -2   26   10     -1.05      0.00
   -1   26   10      0.78      0.00
    0   26   10     -2.03      0.00
    1   26   10      0.97      0.00
    2   26   10     -1.17      0.00
    3   26   10      0.48      0.00
    4   26   10      0.39      0.00
    5   26   10     -2.22      0.00
    6   26   10      1.21      0.00
    7   26   10     -2.05      0.00
    8   26   10     -0.46      0.00
    9   26   10      0.69      0.00
   10   26   10     -0.35      0.00
   11   26   10      0.40      0.00
  -11   27   10     -0.46      0.00
  -10   27   10      0.14      0.00
   -9   27   10     -0.87      0.00
   -8   27   10      0.27      0.00
   -7   27   10     -2.10      0.00
   -6   27   10     -0.90      0.00
   -5   27   10     -0.01      0.00
   -4   27   10     -0.66      0.00
   -3   27   10     -1.47      0.00
   -2   27   10     -0.17      0.00
   -1   27   10     -0.39      0.00
    0   27   10     -2.64      0.00
    1   27   10      0.28      0.00
    2   27   10     -0.17      0.00
    3   27   10      1.32      0.00
    4   27   10      0.08      0.00
    5   27   10      1.87      0.00
    6   27   10      2.57      0.00
    7   27   10     -0.27      0.00
    8   27   10      0.73      0.00
    9   27   10     -1.45      0.00
   10   27   10     -0.32      0.00
  -10   28   10     -0.70      0.00
   -9   28   10     -2.09      0.00
   -8   28   10      0.12      0.00
   -7   28   10     -1.78      0.00
   -6   28   10      1.50      0.00
   -5   28   10     -1.36      0.00
   -4   28   10      1.30      0.00
   -3   28   10     -2.75      0.00
   -2   28   10      0.59      0.00
   -1   28   10     -1.01      0.00
    0   28   10     -0.19      0.00
    1   28   10      0.86      0.00
    2   28   10     -0.58      0.00
    3   28   10      0.98      0.00
    4   28   10     -0.34      0.00
    5   28   10     -0.78      0.00
    6   28   10     -0.43      0.00
    7   28   10     -1.34      0.00
    8   28   10      0.45      0.00
    9   28   10     -0.12      0.00
   10   28   10      0.82      0.00
  -10   29   10      0.24      0.00
   -9   29   10      0.62      0.00
   -8   29   10      0.63      0.00
   -7   29   10     -1.58      0.00
   -6   29   10     -1.14      0.00
   -5   29   10      0.61      0.00
   -4   29   10      0.17      0.00
   -3   29   10     -0.91      0.00
   -2   29   10      1.83      0.00
   -1   29   10     -2.75      0.00
    0   29   10     -1.20      0.00
    1   29   10     -0.21      0.00
    2   29   10      0.23      0.00
    3   29   10      0.61      0.00
    4   29   10     -0.99      0.00
    5   29   10      1.19      0.00
    6   29   10      2.00      0.00
    7   29   10      0.16      0.00
    8   29   10      0.73      0.00
    9   29   10     -0.59      0.00
   -9   30   10     -2.04      0.00
   -8   30   10     -0.63      0.00
   -7   30   10     -1.93      0.00
   -6   30   10      1.40      0.00
   -5   30   10     -0.59      0.00
   -4   30   10     -0.95      0.00
   -3   30   10     -1.32      0.00
   -2   30   10     -0.25      0.00
   -1   30   10     -1.63      0.00
    0   30   10      1.29      0.00
    1   30   10      0.33      0.00
    2   30   10      0.36      0.00
    3   30   10     -0.27      0.00
    4   30   10     -0.15      0.00
    5   30   10      0.52      0.00
    6   30   10     -1.36      0.00
    7   30   10     -0.29      0.00
    8   30   10      0.77      0.00
   -8   31   10      1.03      0.00
   -7   31   10     -1.41      0.00
   -6   31   10     -0.27      0.00
   -5   31   10      0.34      0.00
   -4   31   10      0.69      0.00
   -3   31   10      0.32      0.00
   -2   31   10      2.02      0.00
   -1   31   10     -3.22      0.00
    0   31   10     -0.04      0.00
    1   31   10     -0.73      0.00
    2   31   10     -0.91      0.00
    3   31   10     -0.50      0.00
    4   31   10     -1.82      0.00
    5   31   10     -0.53      0.00
    6   31   10      0.88      0.00
    7   31   10      0.59      0.00
    8   31   10      0.32      0.00
   -7   32   10     -1.01      0.00
   -6   32   10      1.05      0.00
   -5   32   10     -0.48      0.00
   -4   32   10     -2.01      0.00
   -3   32   10     -0.14      0.00
   -2   32   10     -2.53      0.00
   -1   32   10     -0.61      0.00
    0   32   10      0.91      0.00
    1   32   10     -0.28      0.00
    2   32   10      0.26      0.00
    3   32   10     -2.01      0.00
    4   32   10      0.11      0.00
    5   32   10      0.63      0.00
    6   32   10     -0.80      0.00
    7   32   10      0.42      0.00
   -6   33   10     -0.23      0.00
   -5   33   10     -0.02      0.00
   -4   33   10      0.64      0.00
   -3   33   10      0.60      0.00
   -2   33   10      1.28      0.00
   -1   33   10     -1.78      0.00
    0   33   10     -0.46      0.00
    1   33   10     -0.05      0.00
    2   33   10     -2.64      0.00
    3   33   10     -0.13      0.00
    4   33   10     -1.42      0.00
    5   33   10     -1.25      0.00
    6   33   10      1.02      0.00
   -4   34   10     -0.94      0.00
   -3   34   10     -0.30      0.00
   -2   34   10     -3.13      0.00
   -1   34   10      0.04      0.00
    0   34   10      0.61      0.00
    1   34   10     -0.79      0.00
    2   34   10     -0.27      0.00
    3   34   10     -2.38      0.00
    4   34   10     -0.40      0.00
   -2   35   10      0.96      0.00
   -1   35   10      0.19      0.00
    0   35   10     -0.92      0.00
    1   35   10      0.65      0.00
    2   35   10     -2.45      0.00
  -16    1   11     -1.62      0.00
  -15    1   11     -1.01      0.00
  -14    1   11      0.65      0.00
  -13    1   11     -0.73      0.00
  -12    1   11      0.15      0.00
  -11    1   11     -0.25      0.00
  -10    1   11     -1.48      0.00
   -9    1   11      1.21      0.00
   -8    1   11     -0.85      0.00
   -7    1   11     -0.90      0.00
   -6    1   11      0.70      0.00
   -5    1   11      0.45      0.00
   -4    1   11      0.56      0.00
   -3    1   11     -1.94      0.00
   -2    1   11      4.83      0.00
   -1    1   11     -1.49      0.00
    0    1   11      4.15      0.00
    1    1   11      0.90      0.00
    2    1   11     -2.22      0.00
    3    1   11      0.34      0.00
    4    1   11     -1.75      0.00
    5    1   11     23.52      0.00
    6    1   11     -5.37      0.00
    7    1   11      7.03      0.00
    8    1   11     -1.09      0.00
    9    1   11      0.52      0.00
   10    1   11      1.67      0.00
   11    1   11     -0.80      0.00
   12    1   11      2.79      0.00
   13    1   11     -0.76      0.00
   14    1   11      1.43      0.00
   15    1   11      3.43      0.00
   16    1   11     -2.16      0.00
  -16    2   11     -0.76      0.00
  -15    2   11     -0.10      0.00
  -14    2   11     -0.90      0.00
  -13    2   11     -0.08      0.00
  -12    2   11     -0.11      0.00
  -11    2   11      0.23      0.00
  -10    2   11      0.44      0.00
   -9    2   11      0.45      0.00
   -8    2   11     -0.79      0.00
   -7    2   11      1.03      0.00
   -6    2   11     -0.03      0.00
   -5    2   11      1.41      0.00
   -4    2   11     -2.56      0.00
   -3    2   11      1.01      0.00
   -2    2   11     -1.19      0.00
   -1    2   11     -2.90      0.00
    0    2   11      3.49      0.00
    1    2   11     -4.64      0.00
    2    2   11      1.92      0.00
    3    2   11     -3.04      0.00
    4    2   11      3.88      0.00
    5    2   11      0.80      0.00
    6    2   11     -0.93      0.00
    7    2   11      3.13      0.00
    8    2   11     -2.35      0.00
    9    2   11      2.40      0.00
   10    2   11      0.17      0.00
   11    2   11      2.33      0.00
   12    2   11      0.08      0.00
   13    2   11     -2.25      0.00
   14    2   11      1.70      0.00
   15    2   11     -0.45      0.00
   16    2   11      0.36      0.00
  -16    3   11     -1.38      0.00
  -15    3   11     -0.26      0.00
  -14    3   11      1.07      0.00
  -13    3   11      0.35      0.00
  -12    3   11      0.94      0.00
  -11    3   11     -0.22      0.00
  -10    3   11      0.52      0.00
   -9    3   11     -1.43      0.00
   -8    3   11      0.84      0.00
   -7    3   11     -0.91      0.00
   -6    3   11      0.07      0.00
   -5    3   11     -0.21      0.00
   -4    3   11     -2.32      0.00
   -3    3   11      0.36      0.00
   -2    3   11     -0.55      0.00
   -1    3   11      2.58      0.00
    0    3   11      0.91      0.00
    1    3   11      1.49      0.00
    2    3   11     -1.06      0.00
    3    3   11     -3.23      0.00
    4    3   11      3.74      0.00
    5    3   11      8.39      0.00
    6    3   11      0.75      0.00
    7    3   11     -0.01      0.00
    8    3   11      0.29      0.00
    9    3   11      0.82      0.00
   10    3   11      1.22      0.00
   11    3   11      0.25      0.00
   12    3   11      1.81      0.00
   13    3   11      0.28      0.00
   14    3   11      1.97      0.00
   15    3   11      1.70      0.00
   16    3   11     -1.17      0.00
  -16    4   11     -0.96      0.00
  -15    4   11      0.51      0.00
  -14    4   11     -0.70      0.00
  -13    4   11      0.27      0.00
  -12    4   11     -0.28      0.00
  -11    4   11      1.10      0.00
  -10    4   11      0.27      0.00
   -9    4   11      0.48      0.00
   -8    4   11      0.80      0.00
   -7    4   11     -0.12      0.00
   -6    4   11      1.70      0.00
   -5    4   11      0.68      0.00
   -4    4   11     -1.80      0.00
   -3    4   11      1.23      0.00
   -2    4   11     -2.11      0.00
   -1    4   11     -1.80      0.00
    0    4   11      0.63      0.00
    1    4   11     -3.03      0.00
    2    4   11     -1.97      0.00
    3    4   11     -0.62      0.00
    4    4   11      2.05      0.00
    5    4   11      0.78      0.00
    6    4   11      1.11      0.00
    7    4   11      1.01      0.00
    8    4   11      0.10      0.00
    9    4   11      1.50      0.00
   10    4   11      0.76      0.00
   11    4   11      2.33      0.00
   12    4   11     -0.55      0.00
   13    4   11     -3.33      0.00
   14    4   11      1.03      0.00
   15    4   11     -0.54      0.00
   16    4   11      0.64      0.00
  -16    5   11     -0.85      0.00
  -15    5   11      0.79      0.00
  -14    5   11      0.65      0.00
  -13    5   11      1.59      0.00
  -12    5   11      0.68      0.00
  -11    5   11      0.76      0.00
  -10    5   11      0.64      0.00
   -9    5   11     -1.98      0.00
   -8    5   11      1.50      0.00
   -7    5   11      0.28      0.00
   -6    5   11      0.72      0.00
   -5    5   11     -1.16      0.00
   -4    5   11     -2.47      0.00
   -3    5   11      0.86      0.00
   -2    5   11     -2.68      0.00
   -1    5   11      3.86      0.00
    0    5   11     -1.48      0.00
    1    5   11      1.64      0.00
    2    5   11     -2.50      0.00
    3    5   11     -2.88      0.00
    4    5   11      2.31      0.00
    5    5   11     -1.92      0.00
    6    5   11      1.47      0.00
    7    5   11     -3.77      0.00
    8    5   11      0.67      0.00
    9    5   11      0.35      0.00
   10    5   11      1.13      0.00
   11    5   11      0.58      0.00
   12    5   11      1.31      0.00
   13    5   11      1.30      0.00
   14    5   11      2.34      0.00
   15    5   11      0.31      0.00
  -16    6   11     -0.12      0.00
  -15    6   11      0.84      0.00
  -14    6   11      0.59      0.00
  -13    6   11      0.03      0.00
  -12    6   11     -0.63      0.00
  -11    6   11      1.09      0.00
  -10    6   11     -1.50      0.00
   -9    6   11      0.75      0.00
   -8    6   11      0.98      0.00
   -7    6   11     -0.58      0.00
   -6    6   11      1.56      0.00
   -5    6   11      0.21      0.00
   -4    6   11      0.74      0.00
   -3    6   11      2.15      0.00
   -2    6   11     -0.34      0.00
   -1    6   11      1.38      0.00
    0    6   11     -1.91      0.00
    1    6   11     -0.01      0.00
    2    6   11     -3.70      0.00
    3    6   11      2.10      0.00
    4    6   11     -1.46      0.00
    5    6   11     -0.38      0.00
    6    6   11      1.97      0.00
    7    6   11     -2.47      0.00
    8    6   11      1.52      0.00
    9    6   11     -0.93      0.00
   10    6   11      0.36      0.00
   11    6   11      0.25      0.00
   12    6   11     -1.02      0.00
   13    6   11     -3.00      0.00
   14    6   11     -0.28      0.00
   15    6   11     -0.43      0.00
  -16    7   11      0.54      0.00
  -15    7   11      1.50      0.00
  -14    7   11      0.17      0.00
  -13    7   11      1.61      0.00
  -12    7   11      0.14      0.00
  -11    7   11      1.29      0.00
  -10    7   11     -1.04      0.00
   -9    7   11     -0.25      0.00
   -8    7   11     -0.01      0.00
   -7    7   11      1.53      0.00
   -6    7   11      1.06      0.00
   -5    7   11     -1.59      0.00
   -4    7   11     -0.27      0.00
   -3    7   11     -0.81      0.00
   -2    7   11     -0.08      0.00
   -1    7   11      0.96      0.00
    0    7   11     -1.30      0.00
    1    7   11      1.56      0.00
    2    7   11     -4.15      0.00
    3    7   11      1.77      0.00
    4    7   11     -4.30      0.00
    5    7   11     -0.12      0.00
    6    7   11     -2.89      0.00
    7    7   11     -0.88      0.00
    8    7   11     -0.94      0.00
    9    7   11     -0.58      0.00
   10    7   11     -0.26      0.00
   11    7   11     -0.24      0.00
   12    7   11      0.59      0.00
   13    7   11      1.39      0.00
   14    7   11      1.46      0.00
   15    7   11      0.20      0.00
  -16    8   11      0.78      0.00
  -15    8   11      0.22      0.00
  -14    8   11      1.62      0.00
  -13    8   11     -0.72      0.00
  -12    8   11     -0.60      0.00
  -11    8   11     -0.17      0.00
  -10    8   11     -2.64      0.00
   -9    8   11      1.69      0.00
   -8    8   11     -1.23      0.00
   -7    8   11      1.60      0.00
   -6    8   11     -1.55      0.00
   -5    8   11      1.10      0.00
   -4    8   11      1.37      0.00
   -3    8   11      3.40      0.00
   -2    8   11      2.57      0.00
   -1    8   11      1.82      0.00
    0    8   11      0.31      0.00
    1    8   11     -1.45      0.00
    2    8   11      1.45      0.00
    3    8   11      0.16      0.00
    4    8   11     -0.79      0.00
    5    8   11     -1.24      0.00
    6    8   11      0.21      0.00
    7    8   11     -1.93      0.00
    8    8   11     -1.09      0.00
    9    8   11     -1.40      0.00
   10    8   11     -0.65      0.00
   11    8   11     -1.02      0.00
   12    8   11     -0.68      0.00
   13    8   11     -1.69      0.00
   14    8   11     -0.33      0.00
   15    8   11     -0.92      0.00
  -16    9   11      1.88      0.00
  -15    9   11      1.35      0.00
  -14    9   11      0.33      0.00
  -13    9   11      0.06      0.00
  -12    9   11      0.32      0.00
  -11    9   11     -0.22      0.00
  -10    9   11     -1.20      0.00
   -9    9   11      0.03      0.00
   -8    9   11     -1.31      0.00
   -7    9   11      1.52      0.00
   -6    9   11     -0.72      0.00
   -5    9   11     -0.02      0.00
   -4    9   11      0.43      0.00
   -3    9   11     -0.58      0.00
   -2    9   11      1.29      0.00
   -1    9   11     -1.05      0.00
    0    9   11     -0.97      0.00
    1    9   11      1.32      0.00
    2    9   11     -2.23      0.00
    3    9   11      2.82      0.00
    4    9   11     -5.00      0.00
    5    9   11      1.68      0.00
    6    9   11     -2.48      0.00
    7    9   11      1.49      0.00
    8    9   11     -2.28      0.00
    9    9   11     -0.56      0.00
   10    9   11     -2.71      0.00
   11    9   11     -0.30      0.00
   12    9   11     -0.65      0.00
   13    9   11      1.49      0.00
   14    9   11     -0.41      0.00
   15    9   11      0.82      0.00
  -16   10   11      0.58      0.00
  -15   10   11     -0.27      0.00
  -14   10   11      1.23      0.00
  -13   10   11     -0.61      0.00
  -12   10   11     -0.11      0.00
  -11   10   11     -0.88      0.00
  -10   10   11     -1.04      0.00
   -9   10   11      1.61      0.00
   -8   10   11     -1.32      0.00
   -7   10   11      2.28      0.00
   -6   10   11     -2.79      0.00
   -5   10   11      0.71      0.00
   -4   10   11     -0.15      0.00
   -3   10   11      3.13      0.00
   -2   10   11      2.48      0.00
   -1   10   11      0.48      0.00
    0   10   11      1.44      0.00
    1   10   11     -2.84      0.00
    2   10   11      5.03      0.00
    3   10   11     -1.89      0.00
    4   10   11      1.52      0.00
    5   10   11     -0.14      0.00
    6   10   11     -0.42      0.00
    7   10   11      0.09      0.00
    8   10   11     -2.24      0.00
    9   10   11     -0.70      0.00
   10   10   11     -0.49      0.00
   11   10   11     -0.04      0.00
   12   10   11     -0.30      0.00
   13   10   11     -0.13      0.00
   14   10   11      0.08      0.00
   15   10   11     -1.80      0.00
  -16   11   11      1.40      0.00
  -15   11   11      0.86      0.00
  -14   11   11     -0.01      0.00
  -13   11   11     -1.10      0.00
  -12   11   11     -0.06      0.00
  -11   11   11     -1.52      0.00
  -10   11   11     -0.13      0.00
   -9   11   11     -0.88      0.00
   -8   11   11     -0.91      0.00
   -7   11   11      0.66      0.00
   -6   11   11     -2.20      0.00
   -5   11   11      1.80      0.00
   -4   11   11      0.64      0.00
   -3   11   11      1.19      0.00
   -2   11   11     -0.01      0.00
   -1   11   11     -0.80      0.00
    0   11   11     -1.61      0.00
    1   11   11      0.63      0.00
    2   11   11      0.51      0.00
    3   11   11     -0.67      0.00
    4   11   11     -0.89      0.00
    5   11   11     -1.65      0.00
    6   11   11      2.32      0.00
    7   11   11      0.04      0.00
    8   11   11     -1.45      0.00
    9   11   11      0.21      0.00
   10   11   11     -2.37      0.00
   11   11   11      0.72      0.00
   12   11   11     -0.72      0.00
   13   11   11      2.25      0.00
   14   11   11     -1.81      0.00
   15   11   11      1.29      0.00
  -15   12   11     -0.10      0.00
  -14   12   11      0.18      0.00
  -13   12   11      0.10      0.00
  -12   12   11      0.15      0.00
  -11   12   11     -0.05      0.00
  -10   12   11      0.89      0.00
   -9   12   11     -0.17      0.00
   -8   12   11      1.02      0.00
   -7   12   11     -0.53      0.00
   -6   12   11     -0.58      0.00
   -5   12   11     -0.91      0.00
   -4   12   11     -1.22      0.00
   -3   12   11      1.66      0.00
   -2   12   11      0.23      0.00
   -1   12   11      1.19      0.00
    0   12   11     -0.92      0.00
    1   12   11      0.29      0.00
    2   12   11      2.11      0.00
    3   12   11     -0.46      0.00
    4   12   11      0.30      0.00
    5   12   11      2.20      0.00
    6   12   11      0.16      0.00
    7   12   11     -0.35      0.00
    8   12   11     -0.22      0.00
    9   12   11     -0.90      0.00
   10   12   11      0.32      0.00
   11   12   11      1.28      0.00
   12   12   11     -0.38      0.00
   13   12   11      0.61      0.00
   14   12   11     -0.23      0.00
   15   12   11     -1.82      0.00
  -15   13   11      0.54      0.00
  -14   13   11     -0.86      0.00
  -13   13   11     -0.56      0.00
  -12   13   11     -1.01      0.00
  -11   13   11     -0.43      0.00
  -10   13   11     -0.31      0.00
   -9   13   11     -0.34      0.00
   -8   13   11     -0.34      0.00
   -7   13   11     -0.70      0.00
   -6   13   11     -1.06      0.00
   -5   13   11      0.34      0.00
   -4   13   11      2.17      0.00
   -3   13   11      0.28      0.00
   -2   13   11     -0.52      0.00
   -1   13   11     -1.08      0.00
    0   13   11     -1.39      0.00
    1   13   11      0.10      0.00
    2   13   11      0.65      0.00
    3   13   11     -2.09      0.00
    4   13   11      0.55      0.00
    5   13   11     -2.23      0.00
    6   13   11      3.49      0.00
    7   13   11     -0.63      0.00
    8   13   11     -0.12      0.00
    9   13   11      0.31      0.00
   10   13   11      0.81      0.00
   11   13   11      0.92      0.00
   12   13   11      0.38      0.00
   13   13   11      2.19      0.00
   14   13   11     -1.81      0.00
  -15   14   11     -0.16      0.00
  -14   14   11     -0.02      0.00
  -13   14   11     -0.09      0.00
  -12   14   11      0.48      0.00
  -11   14   11      1.24      0.00
  -10   14   11      0.81      0.00
   -9   14   11     -0.95      0.00
   -8   14   11      1.19      0.00
   -7   14   11     -1.71      0.00
   -6   14   11      0.75      0.00
   -5   14   11     -0.50      0.00
   -4   14   11     -0.80      0.00
   -3   14   11     -0.08      0.00
   -2   14   11     -0.44      0.00
   -1   14   11      2.26      0.00
    0   14   11     -1.96      0.00
    1   14   11      2.69      0.00
    2   14   11     -1.34      0.00
    3   14   11      0.15      0.00
    4   14   11     -2.67      0.00
    5   14   11      3.27      0.00
    6   14   11     -0.52      0.00
    7   14   11     -1.18      0.00
    8   14   11      0.82      0.00
    9   14   11     -0.99      0.00
   10   14   11      0.45      0.00
   11   14   11      1.10      0.00
   12   14   11     -0.64      0.00
   13   14   11      0.10      0.00
   14   14   11     -0.93      0.00
  -15   15   11     -0.17      0.00
  -14   15   11     -1.15      0.00
  -13   15   11     -0.05      0.00
  -12   15   11     -0.71      0.00
  -11   15   11      0.55      0.00
  -10   15   11     -1.00      0.00
   -9   15   11      0.56      0.00
   -8   15   11     -0.14      0.00
   -7   15   11     -1.60      0.00
   -6   15   11      1.18      0.00
   -5   15   11     -1.78      0.00
   -4   15   11      2.57      0.00
   -3   15   11     -1.76      0.00
   -2   15   11      0.56      0.00
   -1   15   11     -1.80      0.00
    0   15   11      0.03      0.00
    1   15   11     -0.35      0.00
    2   15   11     -0.87      0.00
    3   15   11     -1.14      0.00
    4   15   11     -0.71      0.00
    5   15   11      1.23      0.00
    6   15   11      0.13      0.00
    7   15   11      1.18      0.00
    8   15   11     -0.55      0.00
    9   15   11     -0.20      0.00
   10   15   11      2.37      0.00
   11   15   11      0.18      0.00
   12   15   11      0.91      0.00
   13   15   11      0.93      0.00
   14   15   11     -0.67      0.00
  -15   16   11     -0.50      0.00
  -14   16   11      0.60      0.00
  -13   16   11     -0.94      0.00
  -12   16   11      1.10      0.00
  -11   16   11      1.47      0.00
  -10   16   11      0.08      0.00
   -9   16   11     -0.01      0.00
   -8   16   11     -1.29      0.00
   -7   16   11      0.50      0.00
   -6   16   11     -0.27      0.00
   -5   16   11      1.42      0.00
   -4   16   11      0.29      0.00
   -3   16   11     -1.34      0.00
   -2   16   11      0.66      0.00
   -1   16   11      1.13      0.00
    0   16   11     -0.16      0.00
    1   16   11      0.56      0.00
    2   16   11     -0.92      0.00
    3   16   11     -2.40      0.00
    4   16   11     -2.49      0.00
    5   16   11      1.58      0.00
    6   16   11     -1.31      0.00
    7   16   11     -0.52      0.00
    8   16   11     -0.30      0.00
    9   16   11     -0.37      0.00
   10   16   11      0.12      0.00
   11   16   11      0.06      0.00
   12   16   11     -1.08      0.00
   13   16   11     -0.40      0.00
   14   16   11     -0.95      0.00
  -14   17   11     -0.81      0.00
  -13   17   11     -0.51      0.00
  -12   17   11      0.85      0.00
  -11   17   11     -0.38      0.00
  -10   17   11     -0.29      0.00
   -9   17   11     -0.24      0.00
   -8   17   11      0.54      0.00
   -7   17   11     -0.64      0.00
   -6   17   11      1.77      0.00
   -5   17   11     -0.15      0.00
   -4   17   11     -0.22      0.00
   -3   17   11     -0.97      0.00
   -2   17   11      1.03      0.00
   -1   17   11     -0.89      0.00
    0   17   11      0.37      0.00
    1   17   11     -1.34      0.00
    2   17   11     -2.48      0.00
    3   17   11     -1.96      0.00
    4   17   11     -1.21      0.00
    5   17   11      2.05      0.00
    6   17   11     -2.03      0.00
    7   17   11      1.83      0.00
    8   17   11     -1.81      0.00
    9   17   11     -0.41      0.00
   10   17   11      0.85      0.00
   11   17   11     -0.15      0.00
   12   17   11      0.37      0.00
   13   17   11      0.30      0.00
  -14   18   11      0.93      0.00
  -13   18   11     -0.88      0.00
  -12   18   11      1.01      0.00
  -11   18   11      0.88      0.00
  -10   18   11      0.39      0.00
   -9   18   11      0.40      0.00
   -8   18   11     -1.90      0.00
   -7   18   11      1.22      0.00
   -6   18   11     -0.26      0.00
   -5   18   11      1.38      0.00
   -4   18   11      1.10      0.00
   -3   18   11     -0.77      0.00
   -2   18   11      0.92      0.00
   -1   18   11     -0.11      0.00
    0   18   11      0.67      0.00
    1   18   11     -1.85      0.00
    2   18   11      0.47      0.00
    3   18   11     -3.91      0.00
    4   18   11      0.49      0.00
    5   18   11     -1.09      0.00
    6   18   11     -0.26      0.00
    7   18   11     -0.20      0.00
    8   18   11     -0.77      0.00
    9   18   11     -0.40      0.00
   10   18   11      0.13      0.00
   11   18   11     -0.43      0.00
   12   18   11     -1.54      0.00
   13   18   11      0.26      0.00
  -14   19   11     -0.25      0.00
  -13   19   11     -0.47      0.00
  -12   19   11      1.78      0.00
  -11   19   11     -0.67      0.00
  -10   19   11      0.64      0.00
   -9   19   11     -1.36      0.00
   -8   19   11      1.10      0.00
   -7   19   11      1.08      0.00
   -6   19   11      0.94      0.00
   -5   19   11      1.97      0.00
   -4   19   11     -2.97      0.00
   -3   19   11      0.34      0.00
   -2   19   11      0.63      0.00
   -1   19   11      0.81      0.00
    0   19   11     -1.00      0.00
    1   19   11     -1.85      0.00
    2   19   11     -3.67      0.00
    3   19   11     -3.00      0.00
    4   19   11     -0.94      0.00
    5   19   11     -0.39      0.00
    6   19   11     -0.94      0.00
    7   19   11      0.25      0.00
    8   19   11     -1.80      0.00
    9   19   11     -0.28      0.00
   10   19   11     -0.84      0.00
   11   19   11      0.01      0.00
   12   19   11     -0.32      0.00
   13   19   11      1.09      0.00
  -13   20   11     -0.09      0.00
  -12   20   11      0.09      0.00
  -11   20   11      0.85      0.00
  -10   20   11      1.05      0.00
   -9   20   11      0.58      0.00
   -8   20   11      0.41      0.00
   -7   20   11     -0.42      0.00
   -6   20   11      1.41      0.00
   -5   20   11     -0.12      0.00
   -4   20   11      1.14      0.00
   -3   20   11      1.26      0.00
   -2   20   11      0.21      0.00
   -1   20   11     -0.31      0.00
    0   20   11     -0.89      0.00
    1   20   11     -1.59      0.00
    2   20   11      0.13      0.00
    3   20   11     -2.05      0.00
    4   20   11      2.29      0.00
    5   20   11     -1.67      0.00
    6   20   11      1.34      0.00
    7   20   11     -0.83      0.00
    8   20   11      0.74      0.00
    9   20   11     -0.95      0.00
   10   20   11      0.44      0.00
   11   20   11     -0.24      0.00
   12   20   11     -1.44      0.00
  -13   21   11      0.11      0.00
  -12   21   11      1.37      0.00
  -11   21   11      0.62      0.00
  -10   21   11      0.18      0.00
   -9   21   11     -1.20      0.00
   -8   21   11      0.62      0.00
   -7   21   11      1.14      0.00
   -6   21   11      0.93      0.00
   -5   21   11      0.17      0.00
   -4   21   11     -2.05      0.00
   -3   21   11     -0.76      0.00
   -2   21   11      1.18      0.00
   -1   21   11      1.09      0.00
    0   21   11     -1.62      0.00
    1   21   11     -1.03      0.00
    2   21   11     -3.47      0.00
    3   21   11     -1.38      0.00
    4   21   11     -1.03      0.00
    5   21   11     -1.30      0.00
    6   21   11      0.24      0.00
    7   21   11     -0.59      0.00
    8   21   11     -0.65      0.00
    9   21   11     -0.25      0.00
   10   21   11     -0.57      0.00
   11   21   11      0.09      0.00
   12   21   11     -0.26      0.00
  -13   22   11      0.00      0.00
  -12   22   11     -0.45      0.00
  -11   22   11      1.31      0.00
  -10   22   11      0.79      0.00
   -9   22   11      2.01      0.00
   -8   22   11      1.66      0.00
   -7   22   11     -0.39      0.00
   -6   22   11      1.51      0.00
   -5   22   11     -0.24      0.00
   -4   22   11      0.63      0.00
   -3   22   11      2.34      0.00
   -2   22   11      0.78      0.00
   -1   22   11     -1.08      0.00
    0   22   11     -1.55      0.00
    1   22   11     -0.80      0.00
    2   22   11     -0.32      0.00
    3   22   11      0.22      0.00
    4   22   11      1.69      0.00
    5   22   11     -0.46      0.00
    6   22   11      1.21      0.00
    7   22   11     -1.15      0.00
    8   22   11      2.18      0.00
    9   22   11     -0.80      0.00
   10   22   11      0.40      0.00
   11   22   11     -0.18      0.00
   12   22   11     -0.83      0.00
  -12   23   11      0.60      0.00
  -11   23   11      1.04      0.00
  -10   23   11     -0.46      0.00
   -9   23   11     -0.66      0.00
   -8   23   11     -0.10      0.00
   -7   23   11     -0.14      0.00
   -6   23   11      1.48      0.00
   -5   23   11     -2.30      0.00
   -4   23   11      0.00      0.00
   -3   23   11     -1.27      0.00
   -2   23   11      2.15      0.00
   -1   23   11      0.03      0.00
    0   23   11     -0.12      0.00
    1   23   11     -0.19      0.00
    2   23   11     -1.40      0.00
    3   23   11      0.83      0.00
    4   23   11     -0.79      0.00
    5   23   11      0.39      0.00
    6   23   11     -0.45      0.00
    7   23   11      0.91      0.00
    8   23   11      0.22      0.00
    9   23   11     -0.42      0.00
   10   23   11      0.58      0.00
   11   23   11     -0.01      0.00
  -12   24   11     -0.35      0.00
  -11   24   11      1.30      0.00
  -10   24   11      0.03      0.00
   -9   24   11      3.12      0.00
   -8   24   11      0.48      0.00
   -7   24   11      1.40      0.00
   -6   24   11      0.12      0.00
   -5   24   11      0.41      0.00
   -4   24   11      0.25      0.00
   -3   24   11      1.76      0.00
   -2   24   11      2.04      0.00
   -1   24   11     -1.89      0.00
    0   24   11      0.11      0.00
    1   24   11     -0.96      0.00
    2   24   11      0.29      0.00
    3   24   11      0.18      0.00
    4   24   11      0.59      0.00
    5   24   11     -0.43      0.00
    6   24   11     -0.57      0.00
    7   24   11     -0.83      0.00
    8   24   11      1.60      0.00
    9   24   11      0.19      0.00
   10   24   11      0.13      0.00
   11   24   11     -0.23      0.00
  -11   25   11      0.24      0.00
  -10   25   11     -0.06      0.00
   -9   25   11     -0.10      0.00
   -8   25   11     -0.22      0.00
   -7   25   11     -0.25      0.00
   -6   25   11      0.59      0.00
   -5   25   11     -1.27      0.00
   -4   25   11     -0.59      0.00
   -3   25   11      1.31      0.00
   -2   25   11      1.17      0.00
   -1   25   11     -0.42      0.00
    0   25   11      1.13      0.00
    1   25   11     -0.40      0.00
    2   25   11      0.56      0.00
    3   25   11      0.85      0.00
    4   25   11      0.15      0.00
    5   25   11      1.59      0.00
    6   25   11     -1.34      0.00
    7   25   11      2.76      0.00
    8   25   11      0.18      0.00
    9   25   11     -0.43      0.00
   10   25   11      0.75      0.00
  -11   26   11      0.92      0.00
  -10   26   11     -0.03      0.00
   -9   26   11      2.11      0.00
   -8   26   11     -0.41      0.00
   -7   26   11      2.05      0.00
   -6   26   11      0.33      0.00
   -5   26   11     -0.19      0.00
   -4   26   11      0.16      0.00
   -3   26   11      0.85      0.00
   -2   26   11      1.15      0.00
   -1   26   11     -0.72      0.00
    0   26   11      1.24      0.00
    1   26   11     -1.07      0.00
    2   26   11      0.51      0.00
    3   26   11     -1.07      0.00
    4   26   11      0.39      0.00
    5   26   11     -2.03      0.00
    6   26   11     -1.95      0.00
    7   26   11     -0.45      0.00
    8   26   11     -0.07      0.00
    9   26   11      1.12      0.00
   10   26   11      0.26      0.00
  -10   27   11      0.38      0.00
   -9   27   11      0.94      0.00
   -8   27   11     -0.04      0.00
   -7   27   11      1.26      0.00
   -6   27   11     -1.19      0.00
   -5   27   11      0.98      0.00
   -4   27   11     -1.77      0.00
   -3   27   11      3.86      0.00
   -2   27   11     -0.92      0.00
   -1   27   11      0.64      0.00
    0   27   11      0.11      0.00
    1   27   11     -0.83      0.00
    2   27   11      0.38      0.00
    3   27   11     -0.37      0.00
    4   27   11      0.43      0.00
    5   27   11      0.43      0.00
    6   27   11     -0.91      0.00
    7   27   11      2.60      0.00
    8   27   11     -0.37      0.00
    9   27   11      0.03      0.00
   -9   28   11      0.28      0.00
   -8   28   11     -0.30      0.00
   -7   28   11      1.61      0.00
   -6   28   11      1.49      0.00
   -5   28   11     -1.20      0.00
   -4   28   11     -0.10      0.00
   -3   28   11      0.05      0.00
   -2   28   11     -1.28      0.00
   -1   28   11      1.75      0.00
    0   28   11      0.39      0.00
    1   28   11     -0.15      0.00
    2   28   11     -0.01      0.00
    3   28   11     -1.06      0.00
    4   28   11      0.95      0.00
    5   28   11     -2.63      0.00
    6   28   11     -1.59      0.00
    7   28   11     -0.56      0.00
    8   28   11     -0.88      0.00
    9   28   11      0.98      0.00
   -9   29   11      1.33      0.00
   -8   29   11      0.27      0.00
   -7   29   11      2.10      0.00
   -6   29   11     -1.92      0.00
   -5   29   11      0.98      0.00
   -4   29   11     -0.58      0.00
   -3   29   11      3.20      0.00
   -2   29   11     -0.92      0.00
   -1   29   11      1.65      0.00
    0   29   11     -1.19      0.00
    1   29   11     -0.72      0.00
    2   29   11     -0.76      0.00
    3   29   11     -0.28      0.00
    4   29   11     -0.49      0.00
    5   29   11     -1.21      0.00
    6   29   11     -0.04      0.00
    7   29   11      0.95      0.00
    8   29   11     -0.69      0.00
   -8   30   11     -0.48      0.00
   -7   30   11      1.54      0.00
   -6   30   11      1.03      0.00
   -5   30   11     -0.98      0.00
   -4   30   11     -0.78      0.00
   -3   30   11     -1.01      0.00
   -2   30   11     -2.26      0.00
   -1   30   11      2.95      0.00
    0   30   11     -0.57      0.00
    1   30   11      0.87      0.00
    2   30   11      0.44      0.00
    3   30   11      0.12      0.00
    4   30   11      1.53      0.00
    5   30   11     -0.89      0.00
    6   30   11     -0.40      0.00
    7   30   11     -0.64      0.00
   -7   31   11      1.23      0.00
   -6   31   11     -1.50      0.00
   -5   31   11     -0.07      0.00
   -4   31   11      1.15      0.00
   -3   31   11      0.97      0.00
   -2   31   11      1.32      0.00
   -1   31   11      1.04      0.00
    0   31   11     -0.69      0.00
    1   31   11     -0.29      0.00
    2   31   11     -0.89      0.00
    3   31   11      1.29      0.00
    4   31   11     -1.45      0.00
    5   31   11     -1.16      0.00
    6   31   11     -0.12      0.00
   -5   32   11     -0.08      0.00
   -4   32   11     -1.14      0.00
   -3   32   11     -1.48      0.00
   -2   32   11     -1.49      0.00
   -1   32   11      2.11      0.00
    0   32   11     -0.32      0.00
    1   32   11      0.65      0.00
    2   32   11      2.00      0.00
    3   32   11      0.50      0.00
    4   32   11      1.41      0.00
    5   32   11      1.26      0.00
   -4   33   11      1.05      0.00
   -3   33   11      0.00      0.00
   -2   33   11      2.81      0.00
   -1   33   11     -0.20      0.00
    0   33   11      0.09      0.00
    1   33   11      0.16      0.00
    2   33   11     -0.42      0.00
    3   33   11      2.18      0.00
    1   34   11     -0.19      0.00
  -16    0   12      1.26      0.00
  -15    0   12      0.95      0.00
  -14    0   12     -0.28      0.00
  -13    0   12      0.43      0.00
  -12    0   12      0.24      0.00
  -11    0   12      0.20      0.00
  -10    0   12      1.83      0.00
   -9    0   12     -1.58      0.00
   -8    0   12      0.51      0.00
   -7    0   12      1.67      0.00
   -6    0   12      0.75      0.00
   -5    0   12      0.29      0.00
   -4    0   12      0.13      0.00
   -3    0   12      0.41      0.00
   -2    0   12     -2.05      0.00
   -1    0   12      2.09      0.00
    0    0   12     -1.52      0.00
    1    0   12     -0.79      0.00
    2    0   12      1.50      0.00
    3    0   12      1.15      0.00
    4    0   12      1.21      0.00
    5    0   12    -12.28      0.00
    6    0   12      3.92      0.00
    7    0   12     -5.38      0.00
    8    0   12      1.28      0.00
    9    0   12      0.07      0.00
   10    0   12     -1.74      0.00
   11    0   12      1.91      0.00
   12    0   12     -2.02      0.00
   13    0   12      2.11      0.00
   14    0   12     -2.05      0.00
   15    0   12     -3.32      0.00
  -16    1   12      0.16      0.00
  -15    1   12      0.31      0.00
  -14    1   12      0.17      0.00
  -13    1   12      0.19      0.00
  -12    1   12     -0.20      0.00
  -11    1   12     -0.34      0.00
  -10    1   12     -0.35      0.00
   -9    1   12     -0.58      0.00
   -8    1   12      0.56      0.00
   -7    1   12     -0.34      0.00
   -6    1   12      0.11      0.00
   -5    1   12     -0.34      0.00
   -4    1   12      1.01      0.00
   -3    1   12     -0.23      0.00
   -2    1   12      1.03      0.00
   -1    1   12      1.28      0.00
    0    1   12     -1.69      0.00
    1    1   12      2.21      0.00
    2    1   12     -1.10      0.00
    3    1   12      1.49      0.00
    4    1   12     -2.42      0.00
    5    1   12     -0.22      0.00
    6    1   12     -0.84      0.00
    7    1   12     -1.28      0.00
    8    1   12      1.15      0.00
    9    1   12     -1.35      0.00
   10    1   12     -0.05      0.00
   11    1   12     -1.52      0.00
   12    1   12      0.22      0.00
   13    1   12      1.09      0.00
   14    1   12     -0.79      0.00
   15    1   12      0.67      0.00
  -16    2   12      1.32      0.00
  -15    2   12      0.71      0.00
  -14    2   12     -0.32      0.00
  -13    2   12      0.08      0.00
  -12    2   12     -0.24      0.00
  -11    2   12      0.15      0.00
  -10    2   12      0.58      0.00
   -9    2   12     -0.43      0.00
   -8    2   12     -0.61      0.00
   -7    2   12      1.16      0.00
   -6    2   12      0.20      0.00
   -5    2   12      0.21      0.00
   -4    2   12      0.57      0.00
   -3    2   12     -0.33      0.00
   -2    2   12      0.28      0.00
   -1    2   12      0.41      0.00
    0    2   12     -0.15      0.00
    1    2   12     -0.52      0.00
    2    2   12      1.16      0.00
    3    2   12      2.68      0.00
    4    2   12     -0.71      0.00
    5    2   12     -6.48      0.00
    6    2   12      1.37      0.00
    7    2   12     -2.27      0.00
    8    2   12      0.19      0.00
    9    2   12     -0.51      0.00
   10    2   12     -2.18      0.00
   11    2   12      0.57      0.00
   12    2   12     -1.89      0.00
   13    2   12      0.83      0.00
   14    2   12     -2.38      0.00
   15    2   12     -2.54      0.00
  -16    3   12      0.64      0.00
  -15    3   12      0.14      0.00
  -14    3   12      0.53      0.00
  -13    3   12      0.10      0.00
  -12    3   12     -0.12      0.00
  -11    3   12     -0.86      0.00
  -10    3   12     -0.36      0.00
   -9    3   12     -0.66      0.00
   -8    3   12      0.58      0.00
   -7    3   12      0.20      0.00
   -6    3   12     -0.57      0.00
   -5    3   12     -0.36      0.00
   -4    3   12      1.18      0.00
   -3    3   12     -0.81      0.00
   -2    3   12      1.96      0.00
   -1    3   12      0.75      0.00
    0    3   12     -2.39      0.00
    1    3   12      2.73      0.00
    2    3   12     -0.20      0.00
    3    3   12      1.37      0.00
    4    3   12     -3.16      0.00
    5    3   12     -0.59      0.00
    6    3   12     -1.76      0.00
    7    3   12     -0.88      0.00
    8    3   12      1.88      0.00
    9    3   12     -1.63      0.00
   10    3   12     -0.32      0.00
   11    3   12     -3.00      0.00
   12    3   12      0.83      0.00
   13    3   12      2.26      0.00
   14    3   12     -1.09      0.00
   15    3   12      0.89      0.00
  -16    4   12      1.00      0.00
  -15    4   12     -0.15      0.00
  -14    4   12     -0.34      0.00
  -13    4   12     -1.12      0.00
  -12    4   12     -0.66      0.00
  -11    4   12     -0.72      0.00
  -10    4   12     -0.45      0.00
   -9    4   12      0.97      0.00
   -8    4   12     -1.34      0.00
   -7    4   12      0.13      0.00
   -6    4   12     -0.33      0.00
   -5    4   12      0.74      0.00
   -4    4   12      1.08      0.00
   -3    4   12     -0.42      0.00
   -2    4   12      3.16      0.00
   -1    4   12     -1.60      0.00
    0    4   12      1.32      0.00
    1    4   12     -0.48      0.00
    2    4   12      0.43      0.00
    3    4   12      2.70      0.00
    4    4   12     -2.29      0.00
    5    4   12      1.14      0.00
    6    4   12     -1.03      0.00
    7    4   12      1.83      0.00
    8    4   12     -0.93      0.00
    9    4   12     -0.69      0.00
   10    4   12     -2.48      0.00
   11    4   12     -0.61      0.00
   12    4   12     -1.28      0.00
   13    4   12     -0.87      0.00
   14    4   12     -2.58      0.00
   15    4   12     -1.05      0.00
  -16    5   12      0.81      0.00
  -15    5   12     -0.77      0.00
  -14    5   12      0.06      0.00
  -13    5   12     -0.42      0.00
  -12    5   12     -0.06      0.00
  -11    5   12     -1.21      0.00
  -10    5   12      0.54      0.00
   -9    5   12     -0.33      0.00
   -8    5   12     -0.41      0.00
   -7    5   12      0.96      0.00
   -6    5   12     -1.19      0.00
   -5    5   12      0.02      0.00
   -4    5   12     -0.26      0.00
   -3    5   12     -1.11      0.00
   -2    5   12      1.16      0.00
   -1    5   12     -2.67      0.00
    0    5   12      0.12      0.00
    1    5   12     -0.21      0.00
    2    5   12      2.80      0.00
    3    5   12     -1.53      0.00
    4    5   12      0.40      0.00
    5    5   12     -0.92      0.00
    6    5   12     -1.52      0.00
    7    5   12      1.85      0.00
    8    5   12      0.82      0.00
    9    5   12      0.56      0.00
   10    5   12     -0.66      0.00
   11    5   12     -1.82      0.00
   12    5   12      1.54      0.00
   13    5   12      2.07      0.00
   14    5   12      0.39      0.00
   15    5   12      0.08      0.00
  -15    6   12     -0.94      0.00
  -14    6   12     -0.21      0.00
  -13    6   12     -1.89      0.00
  -12    6   12     -0.33      0.00
  -11    6   12     -1.59      0.00
  -10    6   12      0.76      0.00
   -9    6   12      0.47      0.00
   -8    6   12      0.17      0.00
   -7    6   12     -0.97      0.00
   -6    6   12     -0.21      0.00
   -5    6   12      1.30      0.00
   -4    6   12      0.40      0.00
   -3    6   12      0.98      0.00
   -2    6   12      1.74      0.00
   -1    6   12     -0.70      0.00
    0    6   12      0.85      0.00
    1    6   12     -0.90      0.00
    2    6   12      0.51      0.00
    3    6   12     -1.39      0.00
    4    6   12      0.60      0.00
    5    6   12      0.54      0.00
    6    6   12      1.49      0.00
    7    6   12      1.03      0.00
    8    6   12      0.14      0.00
    9    6   12      0.38      0.00
   10    6   12     -1.27      0.00
   11    6   12      0.39      0.00
   12    6   12     -0.12      0.00
   13    6   12     -1.09      0.00
   14    6   12     -1.77      0.00
   15    6   12     -0.33      0.00
  -15    7   12     -0.86      0.00
  -14    7   12     -1.47      0.00
  -13    7   12     -0.46      0.00
  -12    7   12     -0.68      0.00
  -11    7   12     -0.93      0.00
  -10    7   12      1.30      0.00
   -9    7   12     -1.11      0.00
   -8    7   12     -0.01      0.00
   -7    7   12     -0.94      0.00
   -6    7   12      0.55      0.00
   -5    7   12     -0.49      0.00
   -4    7   12     -0.34      0.00
   -3    7   12     -1.08      0.00
   -2    7   12     -0.65      0.00
   -1    7   12     -3.54      0.00
    0    7   12      0.67      0.00
    1    7   12      0.11      0.00
    2    7   12      1.17      0.00
    3    7   12     -1.67      0.00
    4    7   12      1.05      0.00
    5    7   12     -0.89      0.00
    6    7   12     -1.05      0.00
    7    7   12      1.96      0.00
    8    7   12      0.78      0.00
    9    7   12      1.46      0.00
   10    7   12     -0.37      0.00
   11    7   12     -0.04      0.00
   12    7   12      1.79      0.00
   13    7   12      1.33      0.00
   14    7   12      1.32      0.00
  -15    8   12     -0.84      0.00
  -14    8   12     -0.32      0.00
  -13    8   12     -0.56      0.00
  -12    8   12     -0.40      0.00
  -11    8   12     -0.28      0.00
  -10    8   12      1.26      0.00
   -9    8   12     -0.04      0.00
   -8    8   12      1.01      0.00
   -7    8   12     -1.54      0.00
   -6    8   12      0.30      0.00
   -5    8   12     -0.03      0.00
   -4    8   12     -0.48      0.00
   -3    8   12      0.84      0.00
   -2    8   12     -1.15      0.00
   -1    8   12      0.95      0.00
    0    8   12      0.99      0.00
    1    8   12     -0.93      0.00
    2    8   12      1.17      0.00
    3    8   12     -3.57      0.00
    4    8   12      3.37      0.00
    5    8   12     -1.97      0.00
    6    8   12      3.25      0.00
    7    8   12     -1.14      0.00
    8    8   12      1.56      0.00
    9    8   12      0.80      0.00
   10    8   12      1.20      0.00
   11    8   12      0.72      0.00
   12    8   12      1.27      0.00
   13    8   12     -1.33      0.00
   14    8   12     -0.09      0.00
  -15    9   12     -0.25      0.00
  -14    9   12     -2.15      0.00
  -13    9   12     -0.06      0.00
  -12    9   12     -0.77      0.00
  -11    9   12      0.09      0.00
  -10    9   12      1.19      0.00
   -9    9   12     -1.45      0.00
   -8    9   12      0.99      0.00
   -7    9   12     -2.97      0.00
   -6    9   12      2.25      0.00
   -5    9   12     -0.91      0.00
   -4    9   12      0.67      0.00
   -3    9   12     -1.46      0.00
   -2    9   12     -2.36      0.00
   -1    9   12     -1.80      0.00
    0    9   12     -1.34      0.00
    1    9   12      2.17      0.00
    2    9   12     -3.02      0.00
    3    9   12     -0.07      0.00
    4    9   12     -1.30      0.00
    5    9   12     -0.72      0.00
    6    9   12     -0.94      0.00
    7    9   12      0.67      0.00
    8    9   12      1.49      0.00
    9    9   12      1.47      0.00
   10    9   12      0.20      0.00
   11    9   12      0.34      0.00
   12    9   12      1.58      0.00
   13    9   12      0.07      0.00
   14    9   12      0.47      0.00
  -15   10   12     -0.67      0.00
  -14   10   12     -0.73      0.00
  -13   10   12      1.20      0.00
  -12   10   12     -0.94      0.00
  -11   10   12      1.83      0.00
  -10   10   12     -0.08      0.00
   -9   10   12      0.96      0.00
   -8   10   12      0.15      0.00
   -7   10   12     -0.60      0.00
   -6   10   12      1.60      0.00
   -5   10   12     -1.43      0.00
   -4   10   12     -0.19      0.00
   -3   10   12     -0.82      0.00
   -2   10   12     -1.23      0.00
   -1   10   12      0.78      0.00
    0   10   12      2.24      0.00
    1   10   12     -0.86      0.00
    2   10   12      0.43      0.00
    3   10   12     -1.82      0.00
    4   10   12      1.47      0.00
    5   10   12     -0.39      0.00
    6   10   12     -0.39      0.00
    7   10   12     -0.22      0.00
    8   10   12      0.96      0.00
    9   10   12      0.28      0.00
   10   10   12      2.47      0.00
   11   10   12     -0.54      0.00
   12   10   12      2.03      0.00
   13   10   12     -2.44      0.00
   14   10   12      1.65      0.00
  -15   11   12     -0.06      0.00
  -14   11   12     -1.09      0.00
  -13   11   12     -0.07      0.00
  -12   11   12     -0.04      0.00
  -11   11   12      0.23      0.00
  -10   11   12      0.04      0.00
   -9   11   12     -0.24      0.00
   -8   11   12     -0.29      0.00
   -7   11   12     -1.38      0.00
   -6   11   12      0.65      0.00
   -5   11   12      0.37      0.00
   -4   11   12      1.20      0.00
   -3   11   12     -1.47      0.00
   -2   11   12     -1.86      0.00
   -1   11   12     -0.65      0.00
    0   11   12     -0.82      0.00
    1   11   12      0.97      0.00
    2   11   12     -2.56      0.00
    3   11   12     -0.95      0.00
    4   11   12     -0.91      0.00
    5   11   12     -2.16      0.00
    6   11   12     -0.80      0.00
    7   11   12      0.42      0.00
    8   11   12      0.51      0.00
    9   11   12      1.90      0.00
   10   11   12      0.09      0.00
   11   11   12     -0.48      0.00
   12   11   12      1.34      0.00
   13   11   12     -1.00      0.00
   14   11   12     -0.41      0.00
  -15   12   12     -0.90      0.00
  -14   12   12     -0.52      0.00
  -13   12   12      1.28      0.00
  -12   12   12     -0.40      0.00
  -11   12   12      1.52      0.00
  -10   12   12     -0.15      0.00
   -9   12   12      1.16      0.00
   -8   12   12      0.02      0.00
   -7   12   12      0.98      0.00
   -6   12   12      2.16      0.00
   -5   12   12     -0.16      0.00
   -4   12   12     -0.82      0.00
   -3   12   12     -0.73      0.00
   -2   12   12     -0.29      0.00
   -1   12   12      0.29      0.00
    0   12   12      1.89      0.00
    1   12   12     -1.04      0.00
    2   12   12     -0.93      0.00
    3   12   12     -0.32      0.00
    4   12   12     -1.06      0.00
    5   12   12      0.95      0.00
    6   12   12     -3.79      0.00
    7   12   12      1.26      0.00
    8   12   12     -0.53      0.00
    9   12   12      0.05      0.00
   10   12   12      0.62      0.00
   11   12   12     -1.23      0.00
   12   12   12      1.08      0.00
   13   12   12     -3.01      0.00
   14   12   12      2.20      0.00
  -14   13   12     -0.17      0.00
  -13   13   12      0.08      0.00
  -12   13   12     -0.05      0.00
  -11   13   12     -0.85      0.00
  -10   13   12     -1.06      0.00
   -9   13   12      0.86      0.00
   -8   13   12     -1.76      0.00
   -7   13   12      1.42      0.00
   -6   13   12     -1.12      0.00
   -5   13   12      1.60      0.00
   -4   13   12      1.47      0.00
   -3   13   12     -0.12      0.00
   -2   13   12      0.19      0.00
   -1   13   12     -0.36      0.00
    0   13   12      1.80      0.00
    1   13   12     -1.40      0.00
    2   13   12      0.65      0.00
    3   13   12     -2.18      0.00
    4   13   12      2.02      0.00
    5   13   12     -4.52      0.00
    6   13   12      0.39      0.00
    7   13   12     -0.14      0.00
    8   13   12     -0.62      0.00
    9   13   12      1.43      0.00
   10   13   12     -0.13      0.00
   11   13   12     -1.06      0.00
   12   13   12      1.22      0.00
   13   13   12     -0.72      0.00
  -14   14   12      0.24      0.00
  -13   14   12      0.62      0.00
  -12   14   12      0.42      0.00
  -11   14   12     -0.29      0.00
  -10   14   12      1.41      0.00
   -9   14   12     -0.25      0.00
   -8   14   12      0.84      0.00
   -7   14   12      1.47      0.00
   -6   14   12      0.19      0.00
   -5   14   12      1.75      0.00
   -4   14   12     -3.00      0.00
   -3   14   12      0.82      0.00
   -2   14   12     -0.78      0.00
   -1   14   12      0.83      0.00
    0   14   12     -0.03      0.00
    1   14   12     -0.85      0.00
    2   14   12     -0.34      0.00
    3   14   12      0.18      0.00
    4   14   12     -0.42      0.00
    5   14   12     -0.47      0.00
    6   14   12     -2.20      0.00
    7   14   12      0.24      0.00
    8   14   12     -0.56      0.00
    9   14   12      0.11      0.00
   10   14   12     -2.00      0.00
   11   14   12     -0.78      0.00
   12   14   12     -0.58      0.00
   13   14   12     -2.05      0.00
  -14   15   12     -0.47      0.00
  -13   15   12      0.99      0.00
  -12   15   12     -1.12      0.00
  -11   15   12     -1.34      0.00
  -10   15   12     -1.05      0.00
   -9   15   12      0.64      0.00
   -8   15   12      0.05      0.00
   -7   15   12      1.22      0.00
   -6   15   12      0.45      0.00
   -5   15   12      0.59      0.00
   -4   15   12      1.34      0.00
   -3   15   12      1.38      0.00
   -2   15   12      0.48      0.00
   -1   15   12     -0.04      0.00
    0   15   12      1.56      0.00
    1   15   12     -0.98      0.00
    2   15   12      0.80      0.00
    3   15   12     -0.18      0.00
    4   15   12      2.85      0.00
    5   15   12     -4.03      0.00
    6   15   12      1.99      0.00
    7   15   12     -1.11      0.00
    8   15   12      0.41      0.00
    9   15   12      0.03      0.00
   10   15   12      0.12      0.00
   11   15   12     -0.84      0.00
   12   15   12      1.14      0.00
   13   15   12      0.09      0.00
  -14   16   12      0.49      0.00
  -13   16   12      0.47      0.00
  -12   16   12     -0.48      0.00
  -11   16   12     -0.63      0.00
  -10   16   12      1.38      0.00
   -9   16   12     -0.43      0.00
   -8   16   12      0.69      0.00
   -7   16   12      0.80      0.00
   -6   16   12     -1.98      0.00
   -5   16   12      0.63      0.00
   -4   16   12     -2.63      0.00
   -3   16   12      0.39      0.00
   -2   16   12     -0.89      0.00
   -1   16   12      0.80      0.00
    0   16   12     -0.92      0.00
    1   16   12     -0.24      0.00
    2   16   12      1.83      0.00
    3   16   12      1.80      0.00
    4   16   12      0.92      0.00
    5   16   12     -0.87      0.00
    6   16   12      0.72      0.00
    7   16   12     -1.12      0.00
    8   16   12      0.88      0.00
    9   16   12      0.21      0.00
   10   16   12     -1.89      0.00
   11   16   12     -0.02      0.00
   12   16   12     -0.82      0.00
   13   16   12     -0.52      0.00
  -13   17   12      1.33      0.00
  -12   17   12     -1.65      0.00
  -11   17   12     -1.08      0.00
  -10   17   12     -0.87      0.00
   -9   17   12     -0.28      0.00
   -8   17   12      2.16      0.00
   -7   17   12     -0.66      0.00
   -6   17   12      1.90      0.00
   -5   17   12     -0.75      0.00
   -4   17   12      0.07      0.00
   -3   17   12      1.32      0.00
   -2   17   12     -0.60      0.00
   -1   17   12     -0.05      0.00
    0   17   12     -0.29      0.00
    1   17   12      0.94      0.00
    2   17   12     -0.46      0.00
    3   17   12      2.41      0.00
    4   17   12      0.88      0.00
    5   17   12     -0.59      0.00
    6   17   12      1.57      0.00
    7   17   12     -0.79      0.00
    8   17   12      1.37      0.00
    9   17   12     -0.49      0.00
   10   17   12     -0.04      0.00
   11   17   12     -0.39      0.00
   12   17   12      1.04      0.00
  -13   18   12      0.42      0.00
  -12   18   12     -1.81      0.00
  -11   18   12     -0.02      0.00
  -10   18   12     -0.05      0.00
   -9   18   12      1.16      0.00
   -8   18   12     -0.21      0.00
   -7   18   12     -0.35      0.00
   -6   18   12     -1.85      0.00
   -5   18   12     -2.49      0.00
   -4   18   12      0.63      0.00
   -3   18   12     -1.80      0.00
   -2   18   12      0.06      0.00
   -1   18   12     -0.66      0.00
    0   18   12     -0.11      0.00
    1   18   12      0.19      0.00
    2   18   12      3.62      0.00
    3   18   12      3.50      0.00
    4   18   12      1.33      0.00
    5   18   12      1.14      0.00
    6   18   12      1.17      0.00
    7   18   12     -0.31      0.00
    8   18   12      1.76      0.00
    9   18   12      0.69      0.00
   10   18   12     -0.10      0.00
   11   18   12      0.63      0.00
   12   18   12     -0.01      0.00
  -13   19   12      0.42      0.00
  -12   19   12     -0.84      0.00
  -11   19   12     -1.18      0.00
  -10   19   12     -1.14      0.00
   -9   19   12     -1.00      0.00
   -8   19   12      0.90      0.00
   -7   19   12     -0.54      0.00
   -6   19   12      0.03      0.00
   -5   19   12     -0.06      0.00
   -4   19   12     -1.38      0.00
   -3   19   12     -0.40      0.00
   -2   19   12     -0.64      0.00
   -1   19   12     -0.76      0.00
    0   19   12      0.09      0.00
    1   19   12      1.42      0.00
    2   19   12      0.26      0.00
    3   19   12      1.76      0.00
    4   19   12     -0.92      0.00
    5   19   12      1.43      0.00
    6   19   12     -0.46      0.00
    7   19   12      0.26      0.00
    8   19   12      0.28      0.00
    9   19   12      0.21      0.00
   10   19   12     -0.70      0.00
   11   19   12      0.04      0.00
   12   19   12      0.72      0.00
  -12   20   12     -1.55      0.00
  -11   20   12     -0.57      0.00
  -10   20   12     -0.17      0.00
   -9   20   12      1.84      0.00
   -8   20   12     -0.23      0.00
   -7   20   12     -1.02      0.00
   -6   20   12     -0.95      0.00
   -5   20   12     -2.72      0.00
   -4   20   12      1.76      0.00
   -3   20   12     -1.84      0.00
   -2   20   12     -0.18      0.00
   -1   20   12     -1.60      0.00
    0   20   12      0.71      0.00
    1   20   12      0.12      0.00
    2   20   12      3.92      0.00
    3   20   12      2.60      0.00
    4   20   12      1.69      0.00
    5   20   12      2.16      0.00
    6   20   12      0.25      0.00
    7   20   12      0.92      0.00
    8   20   12      1.08      0.00
    9   20   12      1.21      0.00
   10   20   12      0.36      0.00
   11   20   12      0.88      0.00
  -12   21   12      0.11      0.00
  -11   21   12     -1.41      0.00
  -10   21   12     -0.86      0.00
   -9   21   12     -1.69      0.00
   -8   21   12     -0.99      0.00
   -7   21   12      0.68      0.00
   -6   21   12     -1.61      0.00
   -5   21   12      0.98      0.00
   -4   21   12     -1.39      0.00
   -3   21   12     -2.11      0.00
   -2   21   12     -0.74      0.00
   -1   21   12     -0.96      0.00
    0   21   12      1.06      0.00
    1   21   12      0.92      0.00
    2   21   12      1.04      0.00
    3   21   12     -0.51      0.00
    4   21   12     -1.16      0.00
    5   21   12      0.47      0.00
    6   21   12     -1.04      0.00
    7   21   12      0.46      0.00
    8   21   12     -1.15      0.00
    9   21   12      0.73      0.00
   10   21   12     -0.88      0.00
   11   21   12      0.55      0.00
  -12   22   12     -0.67      0.00
  -11   22   12     -1.52      0.00
  -10   22   12      0.49      0.00
   -9   22   12      1.09      0.00
   -8   22   12      0.24      0.00
   -7   22   12     -0.39      0.00
   -6   22   12     -1.01      0.00
   -5   22   12      0.54      0.00
   -4   22   12     -0.03      0.00
   -3   22   12      0.20      0.00
   -2   22   12     -1.53      0.00
   -1   22   12     -0.80      0.00
    0   22   12      0.48      0.00
    1   22   12     -0.24      0.00
    2   22   12      2.55      0.00
    3   22   12     -0.23      0.00
    4   22   12      1.30      0.00
    5   22   12      0.49      0.00
    6   22   12     -0.05      0.00
    7   22   12     -0.05      0.00
    8   22   12      0.05      0.00
    9   22   12      1.11      0.00
   10   22   12     -0.43      0.00
   11   22   12      0.54      0.00
  -11   23   12     -1.21      0.00
  -10   23   12      0.00      0.00
   -9   23   12     -2.57      0.00
   -8   23   12     -0.52      0.00
   -7   23   12      0.21      0.00
   -6   23   12     -0.56      0.00
   -5   23   12      0.55      0.00
   -4   23   12     -0.40      0.00
   -3   23   12     -2.23      0.00
   -2   23   12     -2.14      0.00
   -1   23   12      0.24      0.00
    0   23   12      0.13      0.00
    1   23   12      1.19      0.00
    2   23   12      0.01      0.00
    3   23   12     -0.96      0.00
    4   23   12     -0.75      0.00
    5   23   12     -0.36      0.00
    6   23   12      0.45      0.00
    7   23   12      0.11      0.00
    8   23   12     -1.17      0.00
    9   23   12      0.31      0.00
   10   23   12     -0.52      0.00
  -11   24   12     -1.02      0.00
  -10   24   12      0.20      0.00
   -9   24   12      0.50      0.00
   -8   24   12      0.15      0.00
   -7   24   12      0.45      0.00
   -6   24   12     -0.95      0.00
   -5   24   12      2.16      0.00
   -4   24   12     -0.64      0.00
   -3   24   12     -0.38      0.00
   -2   24   12     -1.43      0.00
   -1   24   12     -0.09      0.00
    0   24   12      0.01      0.00
    1   24   12     -0.34      0.00
    2   24   12      0.89      0.00
    3   24   12     -1.73      0.00
    4   24   12     -0.14      0.00
    5   24   12     -1.18      0.00
    6   24   12      0.53      0.00
    7   24   12     -2.20      0.00
    8   24   12      0.02      0.00
    9   24   12      0.57      0.00
   10   24   12     -0.79      0.00
  -10   25   12      0.25      0.00
   -9   25   12     -2.52      0.00
   -8   25   12      0.53      0.00
   -7   25   12     -0.87      0.00
   -6   25   12      0.07      0.00
   -5   25   12      0.34      0.00
   -4   25   12      0.02      0.00
   -3   25   12     -0.95      0.00
   -2   25   12     -2.54      0.00
   -1   25   12      1.02      0.00
    0   25   12     -0.99      0.00
    1   25   12      1.53      0.00
    2   25   12     -1.04      0.00
    3   25   12      0.06      0.00
    4   25   12     -0.69      0.00
    5   25   12      0.99      0.00
    6   25   12      1.80      0.00
    7   25   12      0.32      0.00
    8   25   12     -0.02      0.00
    9   25   12     -0.39      0.00
   -9   26   12      0.15      0.00
   -8   26   12      0.06      0.00
   -7   26   12     -0.22      0.00
   -6   26   12      0.34      0.00
   -5   26   12      0.31      0.00
   -4   26   12      0.73      0.00
   -3   26   12     -3.82      0.00
   -2   26   12      0.40      0.00
   -1   26   12     -1.00      0.00
    0   26   12      0.43      0.00
    1   26   12      0.01      0.00
    2   26   12      0.60      0.00
    3   26   12     -1.00      0.00
    4   26   12     -0.98      0.00
    5   26   12     -0.54      0.00
    6   26   12      0.90      0.00
    7   26   12     -2.86      0.00
    8   26   12      0.56      0.00
    9   26   12      0.06      0.00
   -9   27   12     -1.10      0.00
   -8   27   12      0.40      0.00
   -7   27   12     -0.73      0.00
   -6   27   12     -1.25      0.00
   -5   27   12      1.54      0.00
   -4   27   12     -0.08      0.00
   -3   27   12      0.71      0.00
   -2   27   12     -0.43      0.00
   -1   27   12     -0.03      0.00
    0   27   12     -0.19      0.00
    1   27   12      0.68      0.00
    2   27   12     -0.74      0.00
    3   27   12      0.15      0.00
    4   27   12     -1.03      0.00
    5   27   12      2.44      0.00
    6   27   12      1.44      0.00
    7   27   12      0.81      0.00
    8   27   12      0.83      0.00
   -8   28   12      0.23      0.00
   -7   28   12     -1.59      0.00
   -6   28   12      1.75      0.00
   -5   28   12     -1.08      0.00
   -4   28   12      1.16      0.00
   -3   28   12     -5.01      0.00
   -2   28   12      1.49      0.00
   -1   28   12     -2.07      0.00
    0   28   12      1.17      0.00
    1   28   12      0.59      0.00
    2   28   12      1.20      0.00
    3   28   12     -0.12      0.00
    4   28   12     -0.26      0.00
    5   28   12      1.15      0.00
    6   28   12      0.56      0.00
    7   28   12     -1.58      0.00
   -7   29   12     -0.58      0.00
   -6   29   12     -1.83      0.00
   -5   29   12      2.01      0.00
   -4   29   12      0.31      0.00
   -3   29   12      2.02      0.00
   -2   29   12      1.79      0.00
   -1   29   12     -1.37      0.00
    0   29   12      1.39      0.00
    1   29   12     -0.49      0.00
    2   29   12     -0.34      0.00
    3   29   12     -0.75      0.00
    4   29   12     -1.22      0.00
    5   29   12      1.62      0.00
    6   29   12      0.09      0.00
   -6   30   12      1.80      0.00
   -5   30   12     -0.21      0.00
   -4   30   12      0.01      0.00
   -3   30   12     -2.56      0.00
   -2   30   12      0.38      0.00
   -1   30   12     -1.47      0.00
    0   30   12      0.74      0.00
    1   30   12      1.07      0.00
    2   30   12      1.21      0.00
    3   30   12     -0.50      0.00
    4   30   12      1.17      0.00
    5   30   12      1.59      0.00
   -4   31   12      0.91      0.00
   -3   31   12      2.18      0.00
   -2   31   12      1.73      0.00
   -1   31   12     -1.55      0.00
    0   31   12      1.63      0.00
    1   31   12     -0.61      0.00
    2   31   12     -1.12      0.00
    3   31   12     -0.92      0.00
    4   31   12     -0.83      0.00
   -2   32   12     -1.36      0.00
   -1   32   12      0.05      0.00
    0   32   12     -0.46      0.00
    1   32   12      0.88      0.00
    2   32   12      0.55      0.00
  -15    1   13     -0.56      0.00
  -14    1   13     -0.20      0.00
  -13    1   13     -0.69      0.00
  -12    1   13     -0.76      0.00
  -11    1   13     -0.23      0.00
  -10    1   13     -1.04      0.00
   -9    1   13      1.69      0.00
   -8    1   13      0.91      0.00
   -7    1   13     -1.53      0.00
   -6    1   13     -0.39      0.00
   -5    1   13     -0.80      0.00
   -4    1   13     -0.02      0.00
   -3    1   13      0.62      0.00
   -2    1   13     -0.03      0.00
   -1    1   13     -1.29      0.00
    0    1   13     -1.96      0.00
    1    1   13     -0.39      0.00
    2    1   13     -2.52      0.00
    3    1   13     -1.46      0.00
    4    1   13     -1.57      0.00
    5    1   13      0.76      0.00
    6    1   13     -2.26      0.00
    7    1   13      0.48      0.00
    8    1   13     -0.79      0.00
    9    1   13     -0.17      0.00
   10    1   13      2.74      0.00
   11    1   13     -1.23      0.00
   12    1   13      0.81      0.00
   13    1   13     -2.48      0.00
   14    1   13      2.04      0.00
  -15    2   13     -1.00      0.00
  -14    2   13     -0.21      0.00
  -13    2   13     -0.98      0.00
  -12    2   13      0.22      0.00
  -11    2   13      0.18      0.00
  -10    2   13      0.46      0.00
   -9    2   13      0.72      0.00
   -8    2   13     -1.11      0.00
   -7    2   13     -0.04      0.00
   -6    2   13      0.07      0.00
   -5    2   13      0.03      0.00
   -4    2   13      0.00      0.00
   -3    2   13     -0.12      0.00
   -2    2   13     -0.27      0.00
   -1    2   13     -0.84      0.00
    0    2   13      2.88      0.00
    1    2   13     -2.05      0.00
    2    2   13      1.56      0.00
    3    2   13     -1.96      0.00
    4    2   13      1.66      0.00
    5    2   13     -0.55      0.00
    6    2   13      0.86      0.00
    7    2   13     -0.25      0.00
    8    2   13     -2.21      0.00
    9    2   13      0.81      0.00
   10    2   13     -0.61      0.00
   11    2   13      2.43      0.00
   12    2   13     -0.72      0.00
   13    2   13     -0.57      0.00
   14    2   13      0.94      0.00
  -15    3   13      0.03      0.00
  -14    3   13      0.03      0.00
  -13    3   13     -0.24      0.00
  -12    3   13     -0.17      0.00
  -11    3   13      0.09      0.00
  -10    3   13     -0.03      0.00
   -9    3   13     -0.21      0.00
   -8    3   13      0.95      0.00
   -7    3   13     -1.31      0.00
   -6    3   13     -0.28      0.00
   -5    3   13     -1.15      0.00
   -4    3   13     -0.29      0.00
   -3    3   13      0.91      0.00
   -2    3   13     -2.22      0.00
   -1    3   13      0.80      0.00
    0    3   13     -1.75      0.00
    1    3   13      0.20      0.00
    2    3   13     -0.10      0.00
    3    3   13     -1.24      0.00
    4    3   13      1.26      0.00
    5    3   13     -2.00      0.00
    6    3   13      0.14      0.00
    7    3   13     -1.27      0.00
    8    3   13      0.02      0.00
    9    3   13      0.30      0.00
   10    3   13      2.47      0.00
   11    3   13      0.20      0.00
   12    3   13      0.09      0.00
   13    3   13     -0.69      0.00
   14    3   13      1.79      0.00
  -15    4   13     -0.12      0.00
  -14    4   13     -0.36      0.00
  -13    4   13     -0.11      0.00
  -12    4   13      0.73      0.00
  -11    4   13      1.24      0.00
  -10    4   13      0.76      0.00
   -9    4   13      0.89      0.00
   -8    4   13     -0.24      0.00
   -7    4   13     -0.86      0.00
   -6    4   13      0.47      0.00
   -5    4   13     -0.78      0.00
   -4    4   13     -0.08      0.00
   -3    4   13     -1.24      0.00
   -2    4   13     -1.27      0.00
   -1    4   13      0.84      0.00
    0    4   13      1.00      0.00
    1    4   13     -0.36      0.00
    2    4   13     -0.54      0.00
    3    4   13     -0.03      0.00
    4    4   13     -0.02      0.00
    5    4   13      1.11      0.00
    6    4   13      1.35      0.00
    7    4   13     -0.81      0.00
    8    4   13     -1.52      0.00
    9    4   13      0.15      0.00
   10    4   13      0.14      0.00
   11    4   13      2.55      0.00
   12    4   13     -1.48      0.00
   13    4   13     -0.77      0.00
   14    4   13     -0.20      0.00
  -15    5   13      0.35      0.00
  -14    5   13     -0.02      0.00
  -13    5   13      0.40      0.00
  -12    5   13     -0.14      0.00
  -11    5   13      1.28      0.00
  -10    5   13     -0.04      0.00
   -9    5   13     -0.24      0.00
   -8    5   13      0.03      0.00
   -7    5   13      0.44      0.00
   -6    5   13      0.21      0.00
   -5    5   13     -0.72      0.00
   -4    5   13      0.28      0.00
   -3    5   13      0.42      0.00
   -2    5   13     -2.25      0.00
   -1    5   13      0.73      0.00
    0    5   13     -1.04      0.00
    1    5   13     -0.31      0.00
    2    5   13      0.88      0.00
    3    5   13     -0.05      0.00
    4    5   13      1.20      0.00
    5    5   13     -1.84      0.00
    6    5   13     -0.28      0.00
    7    5   13     -0.73      0.00
    8    5   13      0.27      0.00
    9    5   13      0.44      0.00
   10    5   13      2.36      0.00
   11    5   13      0.79      0.00
   12    5   13     -0.16      0.00
   13    5   13      0.56      0.00
   14    5   13      1.41      0.00
  -15    6   13      0.95      0.00
  -14    6   13      0.32      0.00
  -13    6   13      0.70      0.00
  -12    6   13      1.47      0.00
  -11    6   13      1.49      0.00
  -10    6   13      0.21      0.00
   -9    6   13      0.54      0.00
   -8    6   13      0.59      0.00
   -7    6   13     -0.38      0.00
   -6    6   13      0.03      0.00
   -5    6   13     -0.46      0.00
   -4    6   13     -0.10      0.00
   -3    6   13     -1.33      0.00
   -2    6   13     -0.73      0.00
   -1    6   13      3.55      0.00
    0    6   13     -1.02      0.00
    1    6   13      1.43      0.00
    2    6   13     -1.67      0.00
    3    6   13      1.63      0.00
    4    6   13     -1.92      0.00
    5    6   13      2.07      0.00
    6    6   13      0.60      0.00
    7    6   13     -1.21      0.00
    8    6   13     -0.90      0.00
    9    6   13     -0.88      0.00
   10    6   13      0.59      0.00
   11    6   13      1.10      0.00
   12    6   13     -2.03      0.00
   13    6   13     -0.39      0.00
   14    6   13     -1.48      0.00
  -14    7   13      0.20      0.00
  -13    7   13      0.32      0.00
  -12    7   13      0.13      0.00
  -11    7   13      1.35      0.00
  -10    7   13     -0.36      0.00
   -9    7   13      0.69      0.00
   -8    7   13     -1.13      0.00
   -7    7   13      1.62      0.00
   -6    7   13      0.06      0.00
   -5    7   13      0.12      0.00
   -4    7   13      0.46      0.00
   -3    7   13     -0.16      0.00
   -2    7   13      0.21      0.00
   -1    7   13     -0.93      0.00
    0    7   13     -0.60      0.00
    1    7   13     -0.43      0.00
    2    7   13     -0.05      0.00
    3    7   13      1.89      0.00
    4    7   13     -0.70      0.00
    5    7   13      1.19      0.00
    6    7   13     -2.10      0.00
    7    7   13      1.27      0.00
    8    7   13     -0.43      0.00
    9    7   13     -0.38      0.00
   10    7   13      0.83      0.00
   11    7   13     -0.01      0.00
   12    7   13     -0.95      0.00
   13    7   13      0.56      0.00
  -14    8   13      1.51      0.00
  -13    8   13      0.35      0.00
  -12    8   13      1.87      0.00
  -11    8   13      0.65      0.00
  -10    8   13     -0.45      0.00
   -9    8   13      0.35      0.00
   -8    8   13      0.20      0.00
   -7    8   13      2.02      0.00
   -6    8   13     -1.07      0.00
   -5    8   13      0.83      0.00
   -4    8   13     -0.42      0.00
   -3    8   13     -0.21      0.00
   -2    8   13      1.18      0.00
   -1    8   13      3.31      0.00
    0    8   13      0.25      0.00
    1    8   13     -0.24      0.00
    2    8   13      0.53      0.00
    3    8   13      0.69      0.00
    4    8   13     -0.90      0.00
    5    8   13      1.26      0.00
    6    8   13      0.25      0.00
    7    8   13     -0.82      0.00
    8    8   13     -1.17      0.00
    9    8   13     -1.11      0.00
   10    8   13      0.11      0.00
   11    8   13     -0.01      0.00
   12    8   13     -2.46      0.00
   13    8   13      0.25      0.00
  -14    9   13      0.78      0.00
  -13    9   13     -0.84      0.00
  -12    9   13      1.19      0.00
  -11    9   13     -0.87      0.00
  -10    9   13      0.82      0.00
   -9    9   13     -0.32      0.00
   -8    9   13     -0.46      0.00
   -7    9   13      0.47      0.00
   -6    9   13     -0.88      0.00
   -5    9   13      0.77      0.00
   -4    9   13     -0.54      0.00
   -3    9   13      0.68      0.00
   -2    9   13      1.46      0.00
   -1    9   13     -0.62      0.00
    0    9   13     -1.46      0.00
    1    9   13      0.80      0.00
    2    9   13     -0.71      0.00
    3    9   13      2.52      0.00
    4    9   13     -0.33      0.00
    5    9   13      2.04      0.00
    6    9   13     -0.61      0.00
    7    9   13      0.88      0.00
    8    9   13     -0.50      0.00
    9    9   13     -1.07      0.00
   10    9   13     -1.55      0.00
   11    9   13     -0.11      0.00
   12    9   13     -2.38      0.00
   13    9   13      1.10      0.00
  -14   10   13      1.58      0.00
  -13   10   13      0.15      0.00
  -12   10   13      1.09      0.00
  -11   10   13      0.47      0.00
  -10   10   13     -0.39      0.00
   -9   10   13      0.00      0.00
   -8   10   13      0.44      0.00
   -7   10   13      2.59      0.00
   -6   10   13     -0.60      0.00
   -5   10   13      0.11      0.00
   -4   10   13     -0.96      0.00
   -3   10   13      0.29      0.00
   -2   10   13      1.56      0.00
   -1   10   13      0.66      0.00
    0   10   13      0.92      0.00
    1   10   13     -1.72      0.00
    2   10   13      1.27      0.00
    3   10   13      1.10      0.00
    4   10   13      0.10      0.00
    5   10   13      1.70      0.00
    6   10   13      1.08      0.00
    7   10   13     -0.23      0.00
    8   10   13      0.11      0.00
    9   10   13     -1.37      0.00
   10   10   13      0.11      0.00
   11   10   13     -0.30      0.00
   12   10   13     -2.72      0.00
   13   10   13      0.71      0.00
  -14   11   13      0.90      0.00
  -13   11   13     -1.64      0.00
  -12   11   13      1.57      0.00
  -11   11   13     -2.27      0.00
  -10   11   13      1.75      0.00
   -9   11   13     -1.27      0.00
   -8   11   13      0.88      0.00
   -7   11   13     -0.94      0.00
   -6   11   13     -1.38      0.00
   -5   11   13      0.58      0.00
   -4   11   13     -0.57      0.00
   -3   11   13      1.32      0.00
   -2   11   13      0.78      0.00
   -1   11   13      0.51      0.00
    0   11   13     -2.10      0.00
    1   11   13      1.30      0.00
    2   11   13     -0.37      0.00
    3   11   13      1.56      0.00
    4   11   13      0.91      0.00
    5   11   13      1.10      0.00
    6   11   13      2.31      0.00
    7   11   13     -0.76      0.00
    8   11   13      0.68      0.00
    9   11   13     -0.66      0.00
   10   11   13     -1.34      0.00
   11   11   13      0.80      0.00
   12   11   13     -2.12      0.00
   13   11   13      2.34      0.00
  -14   12   13      0.57      0.00
  -13   12   13      0.05      0.00
  -12   12   13     -0.13      0.00
  -11   12   13      1.05      0.00
  -10   12   13      0.01      0.00
   -9   12   13     -1.00      0.00
   -8   12   13      1.55      0.00
   -7   12   13      0.03      0.00
   -6   12   13      0.99      0.00
   -5   12   13     -2.08      0.00
   -4   12   13     -1.22      0.00
   -3   12   13     -0.04      0.00
   -2   12   13      0.15      0.00
   -1   12   13     -0.47      0.00
    0   12   13     -0.92      0.00
    1   12   13     -0.10      0.00
    2   12   13     -0.61      0.00
    3   12   13      3.01      0.00
    4   12   13     -1.33      0.00
    5   12   13      3.77      0.00
    6   12   13      0.42      0.00
    7   12   13      0.32      0.00
    8   12   13      1.46      0.00
    9   12   13     -1.41      0.00
   10   12   13      0.48      0.00
   11   12   13     -0.07      0.00
   12   12   13     -2.22      0.00
   13   12   13      0.74      0.00
  -13   13   13     -1.05      0.00
  -12   13   13      1.03      0.00
  -11   13   13     -0.80      0.00
  -10   13   13      0.27      0.00
   -9   13   13      0.17      0.00
   -8   13   13      0.00      0.00
   -7   13   13     -1.09      0.00
   -6   13   13     -0.92      0.00
   -5   13   13     -0.90      0.00
   -4   13   13      1.43      0.00
   -3   13   13     -0.21      0.00
   -2   13   13      0.53      0.00
   -1   13   13     -0.01      0.00
    0   13   13     -0.50      0.00
    1   13   13      0.91      0.00
    2   13   13      0.30      0.00
    3   13   13      0.89      0.00
    4   13   13      0.87      0.00
    5   13   13      1.53      0.00
    6   13   13      2.50      0.00
    7   13   13     -0.62      0.00
    8   13   13      1.27      0.00
    9   13   13     -0.10      0.00
   10   13   13      0.98      0.00
   11   13   13      0.82      0.00
   12   13   13     -0.25      0.00
  -13   14   13     -0.85      0.00
  -12   14   13      0.22      0.00
  -11   14   13      1.29      0.00
  -10   14   13      0.78      0.00
   -9   14   13     -1.20      0.00
   -8   14   13      1.32      0.00
   -7   14   13     -1.20      0.00
   -6   14   13      0.38      0.00
   -5   14   13     -2.16      0.00
   -4   14   13     -1.48      0.00
   -3   14   13     -0.81      0.00
   -2   14   13     -0.94      0.00
   -1   14   13     -0.20      0.00
    0   14   13     -1.95      0.00
    1   14   13      1.01      0.00
    2   14   13     -0.82      0.00
    3   14   13      2.20      0.00
    4   14   13     -2.13      0.00
    5   14   13      4.36      0.00
    6   14   13     -1.76      0.00
    7   14   13      1.42      0.00
    8   14   13      0.44      0.00
    9   14   13      0.09      0.00
   10   14   13      0.27      0.00
   11   14   13      0.47      0.00
   12   14   13     -1.19      0.00
  -13   15   13     -0.35      0.00
  -12   15   13      1.03      0.00
  -11   15   13      0.62      0.00
  -10   15   13     -1.36      0.00
   -9   15   13      1.31      0.00
   -8   15   13     -1.71      0.00
   -7   15   13     -0.72      0.00
   -6   15   13      0.31      0.00
   -5   15   13     -1.11      0.00
   -4   15   13      2.81      0.00
   -3   15   13     -0.82      0.00
   -2   15   13      0.84      0.00
   -1   15   13     -0.51      0.00
    0   15   13      1.50      0.00
    1   15   13      1.15      0.00
    2   15   13     -0.21      0.00
    3   15   13     -0.07      0.00
    4   15   13      0.36      0.00
    5   15   13      1.26      0.00
    6   15   13      0.77      0.00
    7   15   13      0.13      0.00
    8   15   13      0.22      0.00
    9   15   13     -0.30      0.00
   10   15   13      1.74      0.00
   11   15   13     -0.10      0.00
   12   15   13      0.75      0.00
  -13   16   13     -1.50      0.00
  -12   16   13      1.48      0.00
  -11   16   13      1.15      0.00
  -10   16   13      1.72      0.00
   -9   16   13      0.01      0.00
   -8   16   13     -0.47      0.00
   -7   16   13      0.62      0.00
   -6   16   13     -2.10      0.00
   -5   16   13     -0.40      0.00
   -4   16   13     -1.34      0.00
   -3   16   13     -1.68      0.00
   -2   16   13     -0.66      0.00
   -1   16   13     -0.25      0.00
    0   16   13     -0.52      0.00
    1   16   13     -0.21      0.00
    2   16   13      0.87      0.00
    3   16   13     -0.32      0.00
    4   16   13     -0.52      0.00
    5   16   13      2.31      0.00
    6   16   13     -2.17      0.00
    7   16   13      1.82      0.00
    8   16   13     -1.09      0.00
    9   16   13      1.53      0.00
   10   16   13      0.00      0.00
   11   16   13      0.77      0.00
   12   16   13     -0.61      0.00
  -12   17   13      1.70      0.00
  -11   17   13      0.24      0.00
  -10   17   13     -0.77      0.00
   -9   17   13     -0.09      0.00
   -8   17   13     -1.39      0.00
   -7   17   13     -0.24      0.00
   -6   17   13      1.35      0.00
   -5   17   13      1.76      0.00
   -4   17   13      1.19      0.00
   -3   17   13      1.91      0.00
   -2   17   13      0.00      0.00
   -1   17   13      0.85      0.00
    0   17   13      1.23      0.00
    1   17   13      1.42      0.00
    2   17   13     -2.09      0.00
    3   17   13     -2.20      0.00
    4   17   13     -0.16      0.00
    5   17   13     -1.43      0.00
    6   17   13     -0.14      0.00
    7   17   13     -0.42      0.00
    8   17   13     -0.95      0.00
    9   17   13     -0.94      0.00
   10   17   13      0.63      0.00
   11   17   13     -0.87      0.00
  -12   18   13      1.30      0.00
  -11   18   13      1.18      0.00
  -10   18   13      1.88      0.00
   -9   18   13      0.97      0.00
   -8   18   13     -1.23      0.00
   -7   18   13      1.52      0.00
   -6   18   13     -2.31      0.00
   -5   18   13     -0.16      0.00
   -4   18   13      0.14      0.00
   -3   18   13     -1.41      0.00
   -2   18   13      0.11      0.00
   -1   18   13      0.35      0.00
    0   18   13      0.74      0.00
    1   18   13     -0.90      0.00
    2   18   13      0.68      0.00
    3   18   13     -0.34      0.00
    4   18   13      0.70      0.00
    5   18   13      0.01      0.00
    6   18   13     -0.55      0.00
    7   18   13      0.65      0.00
    8   18   13     -0.90      0.00
    9   18   13      1.08      0.00
   10   18   13      0.32      0.00
   11   18   13      0.45      0.00
  -12   19   13      1.77      0.00
  -11   19   13      0.42      0.00
  -10   19   13      0.23      0.00
   -9   19   13     -1.56      0.00
   -8   19   13     -0.18      0.00
   -7   19   13      0.37      0.00
   -6   19   13      1.33      0.00
   -5   19   13      3.81      0.00
   -4   19   13     -1.22      0.00
   -3   19   13      3.78      0.00
   -2   19   13     -0.96      0.00
   -1   19   13      2.10      0.00
    0   19   13     -0.17      0.00
    1   19   13      0.71      0.00
    2   19   13     -3.09      0.00
    3   19   13     -3.05      0.00
    4   19   13     -0.91      0.00
    5   19   13     -3.01      0.00
    6   19   13      0.07      0.00
    7   19   13     -1.07      0.00
    8   19   13     -0.85      0.00
    9   19   13     -1.47      0.00
   10   19   13      0.07      0.00
   11   19   13     -1.27      0.00
  -11   20   13      1.24      0.00
  -10   20   13      1.21      0.00
   -9   20   13      1.22      0.00
   -8   20   13     -0.07      0.00
   -7   20   13      0.05      0.00
   -6   20   13     -0.07      0.00
   -5   20   13     -1.42      0.00
   -4   20   13      1.67      0.00
   -3   20   13      0.21      0.00
   -2   20   13      0.63      0.00
   -1   20   13      1.54      0.00
    0   20   13      0.18      0.00
    1   20   13     -0.31      0.00
    2   20   13     -1.13      0.00
    3   20   13      1.47      0.00
    4   20   13      0.13      0.00
    5   20   13     -0.29      0.00
    6   20   13      0.24      0.00
    7   20   13     -0.13      0.00
    8   20   13      0.05      0.00
    9   20   13      0.12      0.00
   10   20   13      0.66      0.00
  -11   21   13      1.67      0.00
  -10   21   13     -0.12      0.00
   -9   21   13     -1.10      0.00
   -8   21   13      0.02      0.00
   -7   21   13      0.49      0.00
   -6   21   13      1.18      0.00
   -5   21   13      1.70      0.00
   -4   21   13     -0.81      0.00
   -3   21   13      1.84      0.00
   -2   21   13      0.18      0.00
   -1   21   13      1.50      0.00
    0   21   13     -0.39      0.00
    1   21   13     -0.01      0.00
    2   21   13     -2.11      0.00
    3   21   13     -1.15      0.00
    4   21   13     -1.08      0.00
    5   21   13     -1.42      0.00
    6   21   13      0.33      0.00
    7   21   13     -0.29      0.00
    8   21   13     -0.18      0.00
    9   21   13     -1.52      0.00
   10   21   13      0.56      0.00
  -10   22   13      0.34      0.00
   -9   22   13      1.58      0.00
   -8   22   13      0.48      0.00
   -7   22   13     -0.97      0.00
   -6   22   13      0.55      0.00
   -5   22   13     -1.60      0.00
   -4   22   13      1.31      0.00
   -3   22   13      1.48      0.00
   -2   22   13      1.62      0.00
   -1   22   13      1.35      0.00
    0   22   13     -0.02      0.00
    1   22   13     -0.21      0.00
    2   22   13     -0.92      0.00
    3   22   13      2.02      0.00
    4   22   13     -0.28      0.00
    5   22   13      0.49      0.00
    6   22   13     -0.72      0.00
    7   22   13      0.34      0.00
    8   22   13      0.13      0.00
    9   22   13     -0.04      0.00
  -10   23   13     -0.51      0.00
   -9   23   13     -0.37      0.00
   -8   23   13     -0.06      0.00
   -7   23   13     -0.17      0.00
   -6   23   13      1.51      0.00
   -5   23   13     -1.34      0.00
   -4   23   13      1.00      0.00
   -3   23   13      0.30      0.00
   -2   23   13      1.91      0.00
   -1   23   13      0.58      0.00
    0   23   13      0.08      0.00
    1   23   13      0.27      0.00
    2   23   13     -0.98      0.00
    3   23   13      1.31      0.00
    4   23   13     -0.04      0.00
    5   23   13      0.77      0.00
    6   23   13      0.24      0.00
    7   23   13      1.39      0.00
    8   23   13     -0.15      0.00
    9   23   13     -1.03      0.00
   -9   24   13      1.81      0.00
   -8   24   13     -0.53      0.00
   -7   24   13     -0.69      0.00
   -6   24   13     -0.62      0.00
   -5   24   13     -1.08      0.00
   -4   24   13     -0.01      0.00
   -3   24   13      1.01      0.00
   -2   24   13      2.69      0.00
   -1   24   13     -0.13      0.00
    0   24   13      1.11      0.00
    1   24   13     -0.63      0.00
    2   24   13      1.26      0.00
    3   24   13      1.44      0.00
    4   24   13      0.52      0.00
    5   24   13      0.26      0.00
    6   24   13     -1.56      0.00
    7   24   13      0.44      0.00
    8   24   13     -0.43      0.00
   -9   25   13     -0.36      0.00
   -8   25   13      0.09      0.00
   -7   25   13     -0.45      0.00
   -6   25   13      1.00      0.00
   -5   25   13     -1.42      0.00
   -4   25   13      0.67      0.00
   -3   25   13      2.45      0.00
   -2   25   13      1.20      0.00
   -1   25   13      1.09      0.00
    0   25   13     -0.38      0.00
    1   25   13      0.79      0.00
    2   25   13     -1.29      0.00
    3   25   13      1.96      0.00
    4   25   13      1.07      0.00
    5   25   13      1.09      0.00
    6   25   13      0.02      0.00
    7   25   13      2.35      0.00
    8   25   13     -0.59      0.00
   -8   26   13     -0.95      0.00
   -7   26   13     -0.54      0.00
   -6   26   13     -0.05      0.00
   -5   26   13     -1.68      0.00
   -4   26   13     -0.16      0.00
   -3   26   13     -0.71      0.00
   -2   26   13      1.95      0.00
   -1   26   13     -1.02      0.00
    0   26   13      1.12      0.00
    1   26   13     -0.69      0.00
    2   26   13      2.08      0.00
    3   26   13      1.27      0.00
    4   26   13      1.28      0.00
    5   26   13     -0.95      0.00
    6   26   13     -1.04      0.00
    7   26   13     -0.24      0.00
   -7   27   13      0.57      0.00
   -6   27   13     -0.57      0.00
   -5   27   13      0.19      0.00
   -4   27   13     -0.78      0.00
   -3   27   13      4.98      0.00
   -2   27   13     -0.89      0.00
   -1   27   13      2.28      0.00
    0   27   13     -1.32      0.00
    1   27   13      0.35      0.00
    2   27   13     -2.08      0.00
    3   27   13      0.99      0.00
    4   27   13      0.88      0.00
    5   27   13     -0.21      0.00
    6   27   13     -0.10      0.00
   -6   28   13      1.81      0.00
   -5   28   13     -2.26      0.00
   -4   28   13      0.58      0.00
   -3   28   13     -2.19      0.00
   -2   28   13     -0.14      0.00
   -1   28   13     -0.63      0.00
    0   28   13     -0.75      0.00
    1   28   13     -0.36      0.00
    2   28   13      1.04      0.00
    3   28   13      1.49      0.00
    4   28   13      1.05      0.00
    5   28   13     -1.41      0.00
   -4   29   13     -0.69      0.00
   -3   29   13      4.13      0.00
   -2   29   13     -1.27      0.00
   -1   29   13      2.37      0.00
    0   29   13     -0.99      0.00
    1   29   13     -0.64      0.00
    2   29   13     -1.58      0.00
    3   29   13      0.28      0.00
    4   29   13     -0.08      0.00
   -2   30   13     -1.12      0.00
   -1   30   13      0.20      0.00
    0   30   13     -2.12      0.00
    1   30   13     -0.04      0.00
    2   30   13      0.55      0.00
  -14    0   14      0.17      0.00
  -13    0   14      0.90      0.00
  -12    0   14      1.29      0.00
  -11    0   14      0.65      0.00
  -10    0   14      1.26      0.00
   -9    0   14     -1.96      0.00
   -8    0   14     -0.52      0.00
   -7    0   14      1.53      0.00
   -6    0   14      0.11      0.00
   -5    0   14      1.02      0.00
   -4    0   14      0.02      0.00
   -3    0   14     -0.14      0.00
   -2    0   14     -1.21      0.00
   -1    0   14      0.67      0.00
    0    0   14      2.45      0.00
    1    0   14      0.89      0.00
    2    0   14      2.46      0.00
    3    0   14      0.02      0.00
    4    0   14      1.71      0.00
    5    0   14      1.17      0.00
    6    0   14      2.31      0.00
    7    0   14      2.12      0.00
    8    0   14      1.54      0.00
    9    0   14      0.70      0.00
   10    0   14     -2.79      0.00
   11    0   14      1.14      0.00
   12    0   14      0.35      0.00
   13    0   14      2.68      0.00
  -14    1   14     -0.31      0.00
  -13    1   14      0.93      0.00
  -12    1   14     -0.44      0.00
  -11    1   14      0.16      0.00
  -10    1   14     -0.67      0.00
   -9    1   14     -0.50      0.00
   -8    1   14      0.62      0.00
   -7    1   14     -0.09      0.00
   -6    1   14      0.28      0.00
   -5    1   14      0.24      0.00
   -4    1   14      0.31      0.00
   -3    1   14      0.88      0.00
   -2    1   14      0.01      0.00
   -1    1   14      1.32      0.00
    0    1   14     -1.38      0.00
    1    1   14      1.30      0.00
    2    1   14     -1.46      0.00
    3    1   14      1.27      0.00
    4    1   14     -0.81      0.00
    5    1   14      0.34      0.00
    6    1   14     -0.51      0.00
    7    1   14      0.13      0.00
    8    1   14      0.63      0.00
    9    1   14     -0.47      0.00
   10    1   14      0.62      0.00
   11    1   14     -1.10      0.00
   12    1   14      0.44      0.00
   13    1   14     -0.14      0.00
  -14    2   14      0.20      0.00
  -13    2   14      1.15      0.00
  -12    2   14      0.91      0.00
  -11    2   14      0.62      0.00
  -10    2   14      0.39      0.00
   -9    2   14     -1.04      0.00
   -8    2   14     -0.89      0.00
   -7    2   14      1.28      0.00
   -6    2   14     -0.43      0.00
   -5    2   14      0.84      0.00
   -4    2   14     -0.18      0.00
   -3    2   14     -0.73      0.00
   -2    2   14      0.24      0.00
   -1    2   14     -0.40      0.00
    0    2   14      2.78      0.00
    1    2   14      0.72      0.00
    2    2   14      1.86      0.00
    3    2   14      0.57      0.00
    4    2   14      0.64      0.00
    5    2   14      2.06      0.00
    6    2   14      1.13      0.00
    7    2   14      2.12      0.00
    8    2   14      0.80      0.00
    9    2   14     -0.13      0.00
   10    2   14     -2.71      0.00
   11    2   14     -0.27      0.00
   12    2   14      0.48      0.00
   13    2   14      1.48      0.00
  -14    3   14     -0.04      0.00
  -13    3   14      1.47      0.00
  -12    3   14     -0.72      0.00
  -11    3   14      0.00      0.00
  -10    3   14     -1.31      0.00
   -9    3   14     -0.97      0.00
   -8    3   14      0.88      0.00
   -7    3   14      0.10      0.00
   -6    3   14      0.09      0.00
   -5    3   14      0.52      0.00
   -4    3   14      0.23      0.00
   -3    3   14      2.06      0.00
   -2    3   14     -0.04      0.00
   -1    3   14      1.29      0.00
    0    3   14     -1.92      0.00
    1    3   14      1.18      0.00
    2    3   14     -1.81      0.00
    3    3   14      1.74      0.00
    4    3   14     -0.06      0.00
    5    3   14      0.18      0.00
    6    3   14     -0.43      0.00
    7    3   14      0.92      0.00
    8    3   14      1.05      0.00
    9    3   14     -0.30      0.00
   10    3   14      0.78      0.00
   11    3   14     -2.16      0.00
   12    3   14      0.80      0.00
   13    3   14     -0.55      0.00
  -14    4   14      0.10      0.00
  -13    4   14      1.22      0.00
  -12    4   14      0.54      0.00
  -11    4   14     -0.13      0.00
  -10    4   14     -0.41      0.00
   -9    4   14      0.06      0.00
   -8    4   14     -0.25      0.00
   -7    4   14      0.51      0.00
   -6    4   14     -0.74      0.00
   -5    4   14      0.70      0.00
   -4    4   14     -0.44      0.00
   -3    4   14     -1.22      0.00
   -2    4   14      1.60      0.00
   -1    4   14     -1.59      0.00
    0    4   14      1.92      0.00
    1    4   14      0.24      0.00
    2    4   14      0.18      0.00
    3    4   14      0.63      0.00
    4    4   14     -1.06      0.00
    5    4   14      2.01      0.00
    6    4   14     -0.01      0.00
    7    4   14      1.20      0.00
    8    4   14      0.04      0.00
    9    4   14     -0.80      0.00
   10    4   14     -2.02      0.00
   11    4   14     -1.79      0.00
   12    4   14      0.71      0.00
   13    4   14     -0.01      0.00
  -14    5   14      0.59      0.00
  -13    5   14      0.27      0.00
  -12    5   14     -1.03      0.00
  -11    5   14     -0.87      0.00
  -10    5   14     -1.12      0.00
   -9    5   14     -0.74      0.00
   -8    5   14     -0.21      0.00
   -7    5   14      0.33      0.00
   -6    5   14     -0.37      0.00
   -5    5   14      0.42      0.00
   -4    5   14      0.03      0.00
   -3    5   14      2.52      0.00
   -2    5   14      0.11      0.00
   -1    5   14     -1.65      0.00
    0    5   14      0.37      0.00
    1    5   14     -1.46      0.00
    2    5   14      0.21      0.00
    3    5   14      0.08      0.00
    4    5   14      2.36      0.00
    5    5   14     -1.19      0.00
    6    5   14      0.55      0.00
    7    5   14      1.12      0.00
    8    5   14      0.36      0.00
    9    5   14      0.53      0.00
   10    5   14     -0.15      0.00
   11    5   14     -1.49      0.00
   12    5   14      1.00      0.00
   13    5   14     -0.69      0.00
  -14    6   14     -0.12      0.00
  -13    6   14      0.94      0.00
  -12    6   14      0.45      0.00
  -11    6   14     -1.19      0.00
  -10    6   14     -0.26      0.00
   -9    6   14     -0.50      0.00
   -8    6   14      1.52      0.00
   -7    6   14     -0.67      0.00
   -6    6   14     -0.33      0.00
   -5    6   14      0.38      0.00
   -4    6   14     -0.26      0.00
   -3    6   14     -0.85      0.00
   -2    6   14      0.13      0.00
   -1    6   14     -0.73      0.00
    0    6   14     -0.05      0.00
    1    6   14     -0.12      0.00
    2    6   14     -0.37      0.00
    3    6   14     -0.33      0.00
    4    6   14     -1.37      0.00
    5    6   14     -0.27      0.00
    6    6   14      0.62      0.00
    7    6   14     -0.66      0.00
    8    6   14      0.14      0.00
    9    6   14      0.16      0.00
   10    6   14     -0.76      0.00
   11    6   14     -1.16      0.00
   12    6   14      0.92      0.00
   13    6   14     -0.03      0.00
  -13    7   14     -0.57      0.00
  -12    7   14     -2.08      0.00
  -11    7   14     -1.22      0.00
  -10    7   14     -0.73      0.00
   -9    7   14     -0.14      0.00
   -8    7   14     -0.75      0.00
   -7    7   14     -0.53      0.00
   -6    7   14      0.31      0.00
   -5    7   14      0.13      0.00
   -4    7   14      0.63      0.00
   -3    7   14      2.34      0.00
   -2    7   14     -0.01      0.00
   -1    7   14     -3.00      0.00
    0    7   14      1.20      0.00
    1    7   14     -1.49      0.00
    2    7   14      0.28      0.00
    3    7   14     -0.50      0.00
    4    7   14      2.34      0.00
    5    7   14     -1.77      0.00
    6    7   14      0.61      0.00
    7    7   14      0.04      0.00
    8    7   14     -0.01      0.00
    9    7   14      0.31      0.00
   10    7   14     -0.22      0.00
   11    7   14     -0.44      0.00
   12    7   14      2.07      0.00
  -13    8   14      1.01      0.00
  -12    8   14     -0.33      0.00
  -11    8   14     -0.69      0.00
  -10    8   14     -1.47      0.00
   -9    8   14     -1.01      0.00
   -8    8   14      0.93      0.00
   -7    8   14     -1.17      0.00
   -6    8   14     -0.40      0.00
   -5    8   14     -0.57      0.00
   -4    8   14      0.70      0.00
   -3    8   14     -0.87      0.00
   -2    8   14     -1.31      0.00
   -1    8   14      0.32      0.00
    0    8   14      0.46      0.00
    1    8   14     -0.32      0.00
    2    8   14      1.63      0.00
    3    8   14     -0.51      0.00
    4    8   14     -0.85      0.00
    5    8   14     -1.58      0.00
    6    8   14      0.47      0.00
    7    8   14     -1.19      0.00
    8    8   14     -0.29      0.00
    9    8   14      1.11      0.00
   10    8   14      0.43      0.00
   11    8   14     -0.52      0.00
   12    8   14      1.41      0.00
  -13    9   14     -0.28      0.00
  -12    9   14     -1.96      0.00
  -11    9   14     -0.88      0.00
  -10    9   14      0.25      0.00
   -9    9   14      0.73      0.00
   -8    9   14     -0.31      0.00
   -7    9   14     -1.50      0.00
   -6    9   14      0.70      0.00
   -5    9   14      0.36      0.00
   -4    9   14      0.64      0.00
   -3    9   14      1.18      0.00
   -2    9   14     -1.13      0.00
   -1    9   14     -1.67      0.00
    0    9   14     -0.36      0.00
    1    9   14      0.75      0.00
    2    9   14     -0.45      0.00
    3    9   14     -0.43      0.00
    4    9   14      1.53      0.00
    5    9   14     -0.85      0.00
    6    9   14      0.15      0.00
    7    9   14      0.06      0.00
    8    9   14     -0.34      0.00
    9    9   14      0.42      0.00
   10    9   14      0.05      0.00
   11    9   14      0.26      0.00
   12    9   14      3.10      0.00
  -13   10   14      1.18      0.00
  -12   10   14     -1.63      0.00
  -11   10   14      0.99      0.00
  -10   10   14     -3.47      0.00
   -9   10   14     -0.08      0.00
   -8   10   14     -1.50      0.00
   -7   10   14     -0.11      0.00
   -6   10   14     -0.38      0.00
   -5   10   14     -0.95      0.00
   -4   10   14      1.89      0.00
   -3   10   14     -1.27      0.00
   -2   10   14     -0.40      0.00
   -1   10   14     -0.43      0.00
    0   10   14      2.33      0.00
    1   10   14     -0.78      0.00
    2   10   14      2.74      0.00
    3   10   14     -0.29      0.00
    4   10   14     -0.91      0.00
    5   10   14     -1.60      0.00
    6   10   14     -0.98      0.00
    7   10   14     -0.12      0.00
    8   10   14     -1.10      0.00
    9   10   14      1.00      0.00
   10   10   14      0.89      0.00
   11   10   14     -0.63      0.00
   12   10   14      1.74      0.00
  -13   11   14      0.06      0.00
  -12   11   14     -0.31      0.00
  -11   11   14     -1.17      0.00
  -10   11   14      1.08      0.00
   -9   11   14      1.21      0.00
   -8   11   14     -0.72      0.00
   -7   11   14     -0.86      0.00
   -6   11   14     -0.64      0.00
   -5   11   14      1.76      0.00
   -4   11   14     -0.10      0.00
   -3   11   14      0.31      0.00
   -2   11   14     -1.28      0.00
   -1   11   14     -0.11      0.00
    0   11   14     -0.22      0.00
    1   11   14      1.10      0.00
    2   11   14      0.87      0.00
    3   11   14     -1.73      0.00
    4   11   14      2.16      0.00
    5   11   14     -0.82      0.00
    6   11   14      0.20      0.00
    7   11   14      0.88      0.00
    8   11   14     -1.57      0.00
    9   11   14      1.12      0.00
   10   11   14     -0.63      0.00
   11   11   14      0.67      0.00
   12   11   14      2.71      0.00
  -13   12   14      0.94      0.00
  -12   12   14     -1.96      0.00
  -11   12   14      1.42      0.00
  -10   12   14     -2.87      0.00
   -9   12   14      0.04      0.00
   -8   12   14     -1.50      0.00
   -7   12   14      0.74      0.00
   -6   12   14      0.23      0.00
   -5   12   14     -0.19      0.00
   -4   12   14      1.25      0.00
   -3   12   14     -0.50      0.00
   -2   12   14      0.31      0.00
   -1   12   14     -1.01      0.00
    0   12   14      1.39      0.00
    1   12   14     -0.88      0.00
    2   12   14      0.85      0.00
    3   12   14     -0.66      0.00
    4   12   14     -1.01      0.00
    5   12   14     -2.30      0.00
    6   12   14     -1.09      0.00
    7   12   14      0.44      0.00
    8   12   14     -1.01      0.00
    9   12   14      0.51      0.00
   10   12   14      0.14      0.00
   11   12   14     -0.24      0.00
   12   12   14      0.90      0.00
  -12   13   14      0.35      0.00
  -11   13   14     -1.58      0.00
  -10   13   14      0.40      0.00
   -9   13   14      1.00      0.00
   -8   13   14     -1.71      0.00
   -7   13   14      0.23      0.00
   -6   13   14     -1.23      0.00
   -5   13   14      2.69      0.00
   -4   13   14      0.17      0.00
   -3   13   14      0.82      0.00
   -2   13   14      0.38      0.00
   -1   13   14      0.18      0.00
    0   13   14      1.61      0.00
    1   13   14     -0.50      0.00
    2   13   14      1.38      0.00
    3   13   14     -2.61      0.00
    4   13   14      1.52      0.00
    5   13   14     -2.21      0.00
    6   13   14      0.69      0.00
    7   13   14     -0.01      0.00
    8   13   14     -1.96      0.00
    9   13   14      0.24      0.00
   10   13   14     -1.05      0.00
   11   13   14      0.49      0.00
  -12   14   14     -1.59      0.00
  -11   14   14      0.51      0.00
  -10   14   14     -0.36      0.00
   -9   14   14     -1.34      0.00
   -8   14   14      1.00      0.00
   -7   14   14      0.22      0.00
   -6   14   14      0.28      0.00
   -5   14   14      0.31      0.00
   -4   14   14     -0.86      0.00
   -3   14   14      0.79      0.00
   -2   14   14     -0.44      0.00
   -1   14   14      0.00      0.00
    0   14   14     -1.20      0.00
    1   14   14     -0.67      0.00
    2   14   14     -0.64      0.00
    3   14   14     -0.63      0.00
    4   14   14     -0.74      0.00
    5   14   14     -2.16      0.00
    6   14   14     -0.21      0.00
    7   14   14      0.27      0.00
    8   14   14     -0.42      0.00
    9   14   14      0.27      0.00
   10   14   14     -0.84      0.00
   11   14   14      0.45      0.00
  -12   15   14     -0.54      0.00
  -11   15   14     -0.98      0.00
  -10   15   14     -1.23      0.00
   -9   15   14      0.39      0.00
   -8   15   14     -1.25      0.00
   -7   15   14     -0.56      0.00
   -6   15   14      0.83      0.00
   -5   15   14      1.28      0.00
   -4   15   14      1.02      0.00
   -3   15   14      1.73      0.00
   -2   15   14      1.31      0.00
   -1   15   14     -0.13      0.00
    0   15   14      1.00      0.00
    1   15   14     -0.99      0.00
    2   15   14     -0.87      0.00
    3   15   14     -1.38      0.00
    4   15   14     -1.08      0.00
    5   15   14     -2.45      0.00
    6   15   14      1.08      0.00
    7   15   14     -1.42      0.00
    8   15   14     -0.52      0.00
    9   15   14     -1.63      0.00
   10   15   14     -0.43      0.00
   11   15   14     -0.28      0.00
  -12   16   14     -1.76      0.00
  -11   16   14      0.01      0.00
  -10   16   14      0.42      0.00
   -9   16   14     -1.31      0.00
   -8   16   14      2.25      0.00
   -7   16   14     -0.06      0.00
   -6   16   14     -0.46      0.00
   -5   16   14     -0.79      0.00
   -4   16   14     -0.80      0.00
   -3   16   14     -0.09      0.00
   -2   16   14     -0.16      0.00
   -1   16   14      0.14      0.00
    0   16   14     -1.53      0.00
    1   16   14     -1.11      0.00
    2   16   14      0.49      0.00
    3   16   14      0.38      0.00
    4   16   14     -0.78      0.00
    5   16   14      0.43      0.00
    6   16   14     -0.44      0.00
    7   16   14      0.73      0.00
    8   16   14     -0.11      0.00
    9   16   14      0.60      0.00
   10   16   14     -0.68      0.00
  -11   17   14     -0.56      0.00
  -10   17   14     -2.20      0.00
   -9   17   14     -0.46      0.00
   -8   17   14     -0.12      0.00
   -7   17   14     -2.17      0.00
   -6   17   14      2.52      0.00
   -5   17   14     -0.38      0.00
   -4   17   14      0.42      0.00
   -3   17   14      2.13      0.00
   -2   17   14      0.63      0.00
   -1   17   14     -0.05      0.00
    0   17   14     -1.44      0.00
    1   17   14      0.16      0.00
    2   17   14     -1.80      0.00
    3   17   14     -0.40      0.00
    4   17   14     -1.97      0.00
    5   17   14     -1.13      0.00
    6   17   14      0.90      0.00
    7   17   14     -0.98      0.00
    8   17   14      0.59      0.00
    9   17   14     -1.93      0.00
   10   17   14     -0.02      0.00
  -11   18   14     -0.15      0.00
  -10   18   14     -0.46      0.00
   -9   18   14      0.43      0.00
   -8   18   14      1.20      0.00
   -7   18   14      0.26      0.00
   -6   18   14     -1.26      0.00
   -5   18   14     -2.67      0.00
   -4   18   14      1.50      0.00
   -3   18   14     -2.75      0.00
   -2   18   14      1.32      0.00
   -1   18   14     -1.66      0.00
    0   18   14      0.08      0.00
    1   18   14     -1.20      0.00
    2   18   14      1.82      0.00
    3   18   14      1.54      0.00
    4   18   14     -0.60      0.00
    5   18   14      2.90      0.00
    6   18   14     -0.95      0.00
    7   18   14      1.25      0.00
    8   18   14      0.09      0.00
    9   18   14      1.22      0.00
   10   18   14     -0.16      0.00
  -10   19   14     -1.77      0.00
   -9   19   14     -0.92      0.00
   -8   19   14     -0.10      0.00
   -7   19   14     -1.57      0.00
   -6   19   14      1.47      0.00
   -5   19   14      0.46      0.00
   -4   19   14     -1.30      0.00
   -3   19   14      1.77      0.00
   -2   19   14     -0.12      0.00
   -1   19   14     -0.16      0.00
    0   19   14     -2.09      0.00
    1   19   14      0.79      0.00
    2   19   14      0.32      0.00
    3   19   14     -1.35      0.00
    4   19   14     -0.17      0.00
    5   19   14     -0.29      0.00
    6   19   14      0.72      0.00
    7   19   14      0.15      0.00
    8   19   14      0.61      0.00
    9   19   14     -0.84      0.00
  -10   20   14     -0.39      0.00
   -9   20   14      0.97      0.00
   -8   20   14      0.15      0.00
   -7   20   14      0.01      0.00
   -6   20   14     -1.98      0.00
   -5   20   14     -2.73      0.00
   -4   20   14      2.05      0.00
   -3   20   14     -3.21      0.00
   -2   20   14      1.00      0.00
   -1   20   14     -2.61      0.00
    0   20   14      0.74      0.00
    1   20   14      0.11      0.00
    2   20   14      1.21      0.00
    3   20   14      1.57      0.00
    4   20   14     -0.07      0.00
    5   20   14      2.47      0.00
    6   20   14     -0.77      0.00
    7   20   14      0.45      0.00
    8   20   14      0.18      0.00
    9   20   14      1.43      0.00
   -9   21   14     -0.60      0.00
   -8   21   14     -0.34      0.00
   -7   21   14      0.72      0.00
   -6   21   14      0.34      0.00
   -5   21   14      2.10      0.00
   -4   21   14     -1.66      0.00
   -3   21   14      0.63      0.00
   -2   21   14     -0.77      0.00
   -1   21   14     -0.75      0.00
    0   21   14     -1.26      0.00
    1   21   14      0.06      0.00
    2   21   14      1.48      0.00
    3   21   14     -2.44      0.00
    4   21   14      1.14      0.00
    5   21   14     -0.59      0.00
    6   21   14      1.16      0.00
    7   21   14     -0.05      0.00
    8   21   14      0.71      0.00
   -9   22   14      0.06      0.00
   -8   22   14      0.04      0.00
   -7   22   14     -0.22      0.00
   -6   22   14     -2.51      0.00
   -5   22   14     -0.35      0.00
   -4   22   14      0.29      0.00
   -3   22   14     -1.09      0.00
   -2   22   14     -1.18      0.00
   -1   22   14     -1.44      0.00
    0   22   14      0.13      0.00
    1   22   14      1.03      0.00
    2   22   14      0.11      0.00
    3   22   14      0.10      0.00
    4   22   14     -0.28      0.00
    5   22   14      0.28      0.00
    6   22   14     -0.80      0.00
    7   22   14     -1.08      0.00
    8   22   14      0.12      0.00
   -8   23   14      0.25      0.00
   -7   23   14      1.66      0.00
   -6   23   14      0.99      0.00
   -5   23   14      2.03      0.00
   -4   23   14     -0.27      0.00
   -3   23   14     -0.30      0.00
   -2   23   14     -1.77      0.00
   -1   23   14     -0.45      0.00
    0   23   14     -1.16      0.00
    1   23   14     -0.46      0.00
    2   23   14     -0.28      0.00
    3   23   14     -2.41      0.00
    4   23   14      0.43      0.00
    5   23   14     -0.94      0.00
    6   23   14      1.41      0.00
    7   23   14     -0.82      0.00
   -7   24   14      0.23      0.00
   -6   24   14     -2.33      0.00
   -5   24   14      1.45      0.00
   -4   24   14     -0.62      0.00
   -3   24   14     -0.81      0.00
   -2   24   14     -2.15      0.00
   -1   24   14     -0.65      0.00
    0   24   14     -0.07      0.00
    1   24   14      0.17      0.00
    2   24   14      0.70      0.00
    3   24   14     -1.41      0.00
    4   24   14     -0.86      0.00
    5   24   14     -0.90      0.00
    6   24   14     -0.95      0.00
    7   24   14     -1.80      0.00
   -6   25   14      1.00      0.00
   -5   25   14      1.43      0.00
   -4   25   14      0.39      0.00
   -3   25   14      0.05      0.00
   -2   25   14     -2.14      0.00
   -1   25   14      0.85      0.00
    0   25   14     -1.48      0.00
    1   25   14      0.02      0.00
    2   25   14     -2.18      0.00
    3   25   14     -2.10      0.00
    4   25   14     -0.68      0.00
    5   25   14     -0.46      0.00
    6   25   14      0.79      0.00
   -5   26   14      0.92      0.00
   -4   26   14      0.16      0.00
   -3   26   14     -3.22      0.00
   -2   26   14     -0.93      0.00
   -1   26   14     -1.68      0.00
    0   26   14      0.46      0.00
    1   26   14     -0.98      0.00
    2   26   14      1.99      0.00
    3   26   14     -1.48      0.00
    4   26   14     -0.78      0.00
    5   26   14     -0.49      0.00
   -4   27   14     -0.59      0.00
   -3   27   14      1.26      0.00
   -2   27   14     -1.18      0.00
   -1   27   14      1.54      0.00
    0   27   14     -0.66      0.00
    1   27   14      0.65      0.00
    2   27   14     -2.11      0.00
    3   27   14     -1.96      0.00
    4   27   14     -0.90      0.00
   -2   28   14      0.59      0.00
   -1   28   14     -2.58      0.00
    0   28   14      0.71      0.00
  -13    1   15     -0.74      0.00
  -12    1   15     -0.59      0.00
  -11    1   15     -1.08      0.00
  -10    1   15     -0.91      0.00
   -9    1   15      1.87      0.00
   -8    1   15     -0.06      0.00
   -7    1   15     -0.59      0.00
   -6    1   15      0.33      0.00
   -5    1   15      0.29      0.00
   -4    1   15     -0.23      0.00
   -3    1   15     -0.14      0.00
   -2    1   15      1.60      0.00
   -1    1   15     -0.14      0.00
    0    1   15     -2.66      0.00
    1    1   15     -1.52      0.00
    2    1   15     -1.57      0.00
    3    1   15     -0.81      0.00
    4    1   15     -0.28      0.00
    5    1   15      0.57      0.00
    6    1   15     -1.67      0.00
    7    1   15     -2.20      0.00
    8    1   15     -1.75      0.00
    9    1   15      0.05      0.00
   10    1   15      2.75      0.00
   11    1   15      0.05      0.00
  -13    2   15     -2.03      0.00
  -12    2   15      0.64      0.00
  -11    2   15     -1.29      0.00
  -10    2   15      1.38      0.00
   -9    2   15      0.27      0.00
   -8    2   15     -0.51      0.00
   -7    2   15      0.37      0.00
   -6    2   15      0.37      0.00
   -5    2   15      0.40      0.00
   -4    2   15     -0.09      0.00
   -3    2   15     -1.08      0.00
   -2    2   15      0.68      0.00
   -1    2   15     -1.89      0.00
    0    2   15      1.20      0.00
    1    2   15     -1.40      0.00
    2    2   15      1.69      0.00
    3    2   15     -2.03      0.00
    4    2   15     -0.02      0.00
    5    2   15     -0.89      0.00
    6    2   15     -0.13      0.00
    7    2   15     -0.99      0.00
    8    2   15      0.12      0.00
    9    2   15      0.59      0.00
   10    2   15     -0.86      0.00
   11    2   15      1.49      0.00
  -13    3   15     -1.37      0.00
  -12    3   15     -0.53      0.00
  -11    3   15     -1.19      0.00
  -10    3   15     -0.28      0.00
   -9    3   15      0.08      0.00
   -8    3   15     -0.54      0.00
   -7    3   15     -1.08      0.00
   -6    3   15      0.59      0.00
   -5    3   15     -0.24      0.00
   -4    3   15      0.23      0.00
   -3    3   15      0.83      0.00
   -2    3   15      0.31      0.00
   -1    3   15      2.08      0.00
    0    3   15     -1.86      0.00
    1    3   15      0.57      0.00
    2    3   15     -0.67      0.00
    3    3   15     -0.49      0.00
    4    3   15      0.79      0.00
    5    3   15     -0.07      0.00
    6    3   15     -0.65      0.00
    7    3   15     -1.96      0.00
    8    3   15     -1.14      0.00
    9    3   15      0.14      0.00
   10    3   15      1.15      0.00
   11    3   15      1.37      0.00
  -13    4   15     -1.27      0.00
  -12    4   15      0.71      0.00
  -11    4   15     -0.49      0.00
  -10    4   15      1.66      0.00
   -9    4   15      0.65      0.00
   -8    4   15     -0.36      0.00
   -7    4   15      0.13      0.00
   -6    4   15      0.41      0.00
   -5    4   15      0.13      0.00
   -4    4   15     -0.66      0.00
   -3    4   15     -2.58      0.00
   -2    4   15      0.37      0.00
   -1    4   15     -1.04      0.00
    0    4   15     -0.10      0.00
    1    4   15      0.34      0.00
    2    4   15      1.24      0.00
    3    4   15     -1.01      0.00
    4    4   15     -0.97      0.00
    5    4   15      0.67      0.00
    6    4   15     -0.12      0.00
    7    4   15     -0.72      0.00
    8    4   15      1.53      0.00
    9    4   15      0.16      0.00
   10    4   15     -0.22      0.00
   11    4   15      1.12      0.00
  -12    5   15     -0.65      0.00
  -11    5   15      0.01      0.00
  -10    5   15      0.31      0.00
   -9    5   15      0.24      0.00
   -8    5   15     -1.36      0.00
   -7    5   15     -0.01      0.00
   -6    5   15      1.11      0.00
   -5    5   15     -0.29      0.00
   -4    5   15      0.57      0.00
   -3    5   15      0.86      0.00
   -2    5   15      0.11      0.00
   -1    5   15      1.84      0.00
    0    5   15     -0.33      0.00
    1    5   15      1.01      0.00
    2    5   15     -0.81      0.00
    3    5   15     -0.83      0.00
    4    5   15      1.24      0.00
    5    5   15      0.18      0.00
    6    5   15     -0.13      0.00
    7    5   15     -0.20      0.00
    8    5   15      0.00      0.00
    9    5   15      0.19      0.00
   10    5   15      0.03      0.00
   11    5   15      2.24      0.00
  -12    6   15      0.85      0.00
  -11    6   15      0.54      0.00
  -10    6   15      0.92      0.00
   -9    6   15      0.22      0.00
   -8    6   15     -0.09      0.00
   -7    6   15     -0.05      0.00
   -6    6   15      0.07      0.00
   -5    6   15      0.06      0.00
   -4    6   15     -0.79      0.00
   -3    6   15     -2.77      0.00
   -2    6   15      0.61      0.00
   -1    6   15      1.79      0.00
    0    6   15     -1.25      0.00
    1    6   15      2.21      0.00
    2    6   15      0.46      0.00
    3    6   15     -0.10      0.00
    4    6   15     -1.99      0.00
    5    6   15      1.44      0.00
    6    6   15     -0.85      0.00
    7    6   15     -0.05      0.00
    8    6   15      1.76      0.00
    9    6   15     -0.24      0.00
   10    6   15      0.20      0.00
   11    6   15      0.35      0.00
  -12    7   15     -0.42      0.00
  -11    7   15      1.34      0.00
  -10    7   15      1.25      0.00
   -9    7   15      1.72      0.00
   -8    7   15     -1.37      0.00
   -7    7   15      1.31      0.00
   -6    7   15      1.48      0.00
   -5    7   15      0.09      0.00
   -4    7   15     -0.27      0.00
   -3    7   15      0.18      0.00
   -2    7   15      1.18      0.00
   -1    7   15     -0.10      0.00
    0    7   15      0.58      0.00
    1    7   15      0.58      0.00
    2    7   15     -2.44      0.00
    3    7   15     -1.12      0.00
    4    7   15      1.39      0.00
    5    7   15      0.80      0.00
    6    7   15      0.21      0.00
    7    7   15      1.12      0.00
    8    7   15      1.05      0.00
    9    7   15     -0.63      0.00
   10    7   15     -0.49      0.00
   11    7   15      1.64      0.00
  -12    8   15      1.34      0.00
  -11    8   15      0.69      0.00
  -10    8   15      0.05      0.00
   -9    8   15     -0.76      0.00
   -8    8   15     -0.33      0.00
   -7    8   15      0.30      0.00
   -6    8   15     -0.47      0.00
   -5    8   15     -0.37      0.00
   -4    8   15     -0.36      0.00
   -3    8   15     -1.93      0.00
   -2    8   15      1.66      0.00
   -1    8   15      2.68      0.00
    0    8   15     -0.23      0.00
    1    8   15      0.79      0.00
    2    8   15      0.56      0.00
    3    8   15     -0.70      0.00
    4    8   15     -2.20      0.00
    5    8   15     -0.19      0.00
    6    8   15     -1.41      0.00
    7    8   15     -0.31      0.00
    8    8   15      0.70      0.00
    9    8   15     -0.25      0.00
   10    8   15     -0.30      0.00
   11    8   15      0.09      0.00
  -12    9   15      0.49      0.00
  -11    9   15      0.82      0.00
  -10    9   15      3.06      0.00
   -9    9   15      1.45      0.00
   -8    9   15      0.67      0.00
   -7    9   15      0.91      0.00
   -6    9   15      1.79      0.00
   -5    9   15      0.71      0.00
   -4    9   15     -1.88      0.00
   -3    9   15      0.51      0.00
   -2    9   15      1.01      0.00
   -1    9   15      0.19      0.00
    0    9   15     -0.69      0.00
    1    9   15      1.11      0.00
    2    9   15     -4.01      0.00
    3    9   15     -0.91      0.00
    4    9   15      1.58      0.00
    5    9   15      0.73      0.00
    6    9   15      0.67      0.00
    7    9   15      0.31      0.00
    8    9   15      1.41      0.00
    9    9   15     -1.49      0.00
   10    9   15     -0.87      0.00
   11    9   15      0.67      0.00
  -12   10   15      0.97      0.00
  -11   10   15      1.10      0.00
  -10   10   15     -0.85      0.00
   -9   10   15     -1.11      0.00
   -8   10   15     -0.55      0.00
   -7   10   15      0.21      0.00
   -6   10   15     -0.33      0.00
   -5   10   15     -2.14      0.00
   -4   10   15      0.24      0.00
   -3   10   15     -1.72      0.00
   -2   10   15      2.12      0.00
   -1   10   15      0.96      0.00
    0   10   15      0.64      0.00
    1   10   15     -1.18      0.00
    2   10   15     -0.04      0.00
    3   10   15      0.09      0.00
    4   10   15     -2.17      0.00
    5   10   15     -1.35      0.00
    6   10   15     -0.78      0.00
    7   10   15     -1.55      0.00
    8   10   15      1.05      0.00
    9   10   15     -0.86      0.00
   10   10   15      0.04      0.00
   11   10   15     -0.52      0.00
  -12   11   15      1.38      0.00
  -11   11   15     -0.49      0.00
  -10   11   15      4.07      0.00
   -9   11   15      0.42      0.00
   -8   11   15      2.63      0.00
   -7   11   15      0.11      0.00
   -6   11   15      1.79      0.00
   -5   11   15      1.20      0.00
   -4   11   15     -2.48      0.00
   -3   11   15      0.90      0.00
   -2   11   15     -0.61      0.00
   -1   11   15      1.31      0.00
    0   11   15     -2.26      0.00
    1   11   15      0.80      0.00
    2   11   15     -3.35      0.00
    3   11   15     -0.80      0.00
    4   11   15      1.14      0.00
    5   11   15      1.07      0.00
    6   11   15     -0.06      0.00
    7   11   15     -0.46      0.00
    8   11   15      0.93      0.00
    9   11   15     -0.87      0.00
   10   11   15     -0.45      0.00
  -11   12   15      1.43      0.00
  -10   12   15     -1.34      0.00
   -9   12   15     -0.82      0.00
   -8   12   15      0.16      0.00
   -7   12   15     -0.28      0.00
   -6   12   15      0.77      0.00
   -5   12   15     -3.22      0.00
   -4   12   15      1.03      0.00
   -3   12   15     -1.80      0.00
   -2   12   15      1.54      0.00
   -1   12   15     -0.01      0.00
    0   12   15     -0.30      0.00
    1   12   15     -0.25      0.00
    2   12   15     -1.00      0.00
    3   12   15      1.83      0.00
    4   12   15     -1.37      0.00
    5   12   15     -0.84      0.00
    6   12   15     -0.04      0.00
    7   12   15     -2.16      0.00
    8   12   15      2.20      0.00
    9   12   15     -1.04      0.00
   10   12   15      1.09      0.00
  -11   13   15     -0.78      0.00
  -10   13   15      2.66      0.00
   -9   13   15      0.76      0.00
   -8   13   15      1.20      0.00
   -7   13   15      0.16      0.00
   -6   13   15      0.77      0.00
   -5   13   15      0.72      0.00
   -4   13   15     -1.65      0.00
   -3   13   15     -0.42      0.00
   -2   13   15     -1.02      0.00
   -1   13   15      0.22      0.00
    0   13   15     -1.08      0.00
    1   13   15     -0.48      0.00
    2   13   15     -0.53      0.00
    3   13   15     -0.37      0.00
    4   13   15      0.82      0.00
    5   13   15      1.85      0.00
    6   13   15     -1.34      0.00
    7   13   15     -0.24      0.00
    8   13   15      0.10      0.00
    9   13   15      0.09      0.00
   10   13   15      0.22      0.00
  -11   14   15      0.76      0.00
  -10   14   15     -0.18      0.00
   -9   14   15     -0.28      0.00
   -8   14   15      1.38      0.00
   -7   14   15      0.47      0.00
   -6   14   15      1.00      0.00
   -5   14   15     -1.39      0.00
   -4   14   15      1.25      0.00
   -3   14   15     -1.66      0.00
   -2   14   15      0.33      0.00
   -1   14   15      0.38      0.00
    0   14   15     -0.88      0.00
    1   14   15      1.46      0.00
    2   14   15     -0.11      0.00
    3   14   15      1.70      0.00
    4   14   15      1.25      0.00
    5   14   15      0.20      0.00
    6   14   15      0.20      0.00
    7   14   15     -0.92      0.00
    8   14   15      1.91      0.00
    9   14   15      0.54      0.00
   10   14   15      1.11      0.00
  -10   15   15      0.74      0.00
   -9   15   15      1.26      0.00
   -8   15   15     -1.68      0.00
   -7   15   15      0.26      0.00
   -6   15   15      0.06      0.00
   -5   15   15      0.23      0.00
   -4   15   15     -0.97      0.00
   -3   15   15     -1.38      0.00
   -2   15   15     -0.14      0.00
   -1   15   15     -1.26      0.00
    0   15   15      0.98      0.00
    1   15   15     -0.43      0.00
    2   15   15      0.93      0.00
    3   15   15      0.41      0.00
    4   15   15      1.28      0.00
    5   15   15      0.75      0.00
    6   15   15     -0.93      0.00
    7   15   15     -0.73      0.00
    8   15   15     -0.07      0.00
    9   15   15     -0.12      0.00
  -10   16   15      1.60      0.00
   -9   16   15      0.23      0.00
   -8   16   15      1.61      0.00
   -7   16   15      2.13      0.00
   -6   16   15     -0.48      0.00
   -5   16   15      1.30      0.00
   -4   16   15      0.82      0.00
   -3   16   15     -1.83      0.00
   -2   16   15     -0.60      0.00
   -1   16   15      0.05      0.00
    0   16   15      1.09      0.00
    1   16   15      0.99      0.00
    2   16   15      1.65      0.00
    3   16   15      0.57      0.00
    4   16   15      3.32      0.00
    5   16   15      0.95      0.00
    6   16   15      0.13      0.00
    7   16   15      0.36      0.00
    8   16   15      0.58      0.00
    9   16   15      1.73      0.00
  -10   17   15      0.54      0.00
   -9   17   15      0.44      0.00
   -8   17   15     -2.04      0.00
   -7   17   15     -0.14      0.00
   -6   17   15      1.06      0.00
   -5   17   15      1.09      0.00
   -4   17   15     -1.83      0.00
   -3   17   15      0.26      0.00
   -2   17   15     -0.47      0.00
   -1   17   15     -0.24      0.00
    0   17   15      0.45      0.00
    1   17   15      0.31      0.00
    2   17   15     -0.24      0.00
    3   17   15      0.38      0.00
    4   17   15      1.60      0.00
    5   17   15     -1.70      0.00
    6   17   15      0.68      0.00
    7   17   15     -1.35      0.00
    8   17   15      0.33      0.00
    9   17   15     -0.76      0.00
   -9   18   15      0.32      0.00
   -8   18   15      0.78      0.00
   -7   18   15      2.08      0.00
   -6   18   15     -1.49      0.00
   -5   18   15      1.23      0.00
   -4   18   15      1.09      0.00
   -3   18   15     -2.14      0.00
   -2   18   15     -0.64      0.00
   -1   18   15     -0.83      0.00
    0   18   15      3.65      0.00
    1   18   15     -0.69      0.00
    2   18   15      1.17      0.00
    3   18   15      0.54      0.00
    4   18   15      2.00      0.00
    5   18   15      1.02      0.00
    6   18   15     -0.48      0.00
    7   18   15     -0.02      0.00
    8   18   15     -0.43      0.00
   -9   19   15     -0.38      0.00
   -8   19   15     -0.73      0.00
   -7   19   15     -0.30      0.00
   -6   19   15      2.51      0.00
   -5   19   15      1.89      0.00
   -4   19   15     -3.01      0.00
   -3   19   15      1.95      0.00
   -2   19   15     -1.53      0.00
   -1   19   15      1.91      0.00
    0   19   15     -1.30      0.00
    1   19   15     -0.52      0.00
    2   19   15     -0.87      0.00
    3   19   15     -0.45      0.00
    4   19   15      1.32      0.00
    5   19   15     -2.41      0.00
    6   19   15      1.35      0.00
    7   19   15     -0.42      0.00
    8   19   15      0.37      0.00
   -8   20   15      0.30      0.00
   -7   20   15      0.11      0.00
   -6   20   15     -0.92      0.00
   -5   20   15     -1.02      0.00
   -4   20   15      1.60      0.00
   -3   20   15     -1.81      0.00
   -2   20   15     -0.26      0.00
   -1   20   15     -0.96      0.00
    0   20   15      3.56      0.00
    1   20   15     -1.28      0.00
    2   20   15     -0.94      0.00
    3   20   15      1.03      0.00
    4   20   15     -0.70      0.00
    5   20   15      0.62      0.00
    6   20   15     -1.34      0.00
    7   20   15     -0.50      0.00
   -7   21   15      0.15      0.00
   -6   21   15      3.14      0.00
   -5   21   15      1.08      0.00
   -4   21   15     -2.21      0.00
   -3   21   15      1.27      0.00
   -2   21   15     -0.58      0.00
   -1   21   15      2.37      0.00
    0   21   15     -1.31      0.00
    1   21   15     -2.10      0.00
    2   21   15      0.10      0.00
    3   21   15     -0.75      0.00
    4   21   15      0.90      0.00
    5   21   15     -1.29      0.00
    6   21   15      1.11      0.00
   -6   22   15     -0.61      0.00
   -5   22   15     -2.02      0.00
   -4   22   15      0.79      0.00
   -3   22   15     -0.71      0.00
   -2   22   15      0.40      0.00
   -1   22   15     -0.51      0.00
    0   22   15      1.86      0.00
    1   22   15     -0.42      0.00
    2   22   15     -1.21      0.00
    3   22   15      1.32      0.00
    4   22   15     -1.37      0.00
    5   22   15      0.60      0.00
    6   22   15     -1.57      0.00
   -6   23   15      3.07      0.00
   -5   23   15     -0.36      0.00
   -4   23   15     -0.37      0.00
   -3   23   15      0.39      0.00
   -2   23   15      1.63      0.00
   -1   23   15      1.46      0.00
    0   23   15     -0.03      0.00
    1   23   15     -1.84      0.00
    2   23   15      0.30      0.00
    3   23   15      0.13      0.00
    4   23   15      0.61      0.00
    5   23   15     -0.28      0.00
   -5   24   15     -1.37      0.00
   -4   24   15     -0.41      0.00
   -3   24   15      0.13      0.00
   -2   24   15      1.33      0.00
   -1   24   15     -0.49      0.00
    0   24   15      1.29      0.00
    1   24   15      0.41      0.00
    2   24   15      0.82      0.00
    3   24   15      1.85      0.00
    4   24   15     -0.28      0.00
   -3   25   15      1.32      0.00
   -2   25   15      1.93      0.00
   -1   25   15      0.99      0.00
    0   25   15      0.48      0.00
    1   25   15      0.06      0.00
    2   25   15     -0.79      0.00
    3   25   15      1.11      0.00
  -11    0   16      1.28      0.00
  -10    0   16      1.14      0.00
   -9    0   16     -1.49      0.00
   -8    0   16      1.03      0.00
   -7    0   16      0.23      0.00
   -6    0   16      0.93      0.00
   -4    0   16      1.06      0.00
   -3    0   16      0.02      0.00
   -2    0   16     -2.12      0.00
   -1    0   16      0.14      0.00
    0    0   16      2.43      0.00
    1    0   16      0.96      0.00
    2    0   16     -0.09      0.00
    3    0   16      1.61      0.00
    4    0   16     -1.64      0.00
    5    0   16     -2.71      0.00
    6    0   16      1.43      0.00
    7    0   16      1.38      0.00
    8    0   16      3.00      0.00
    9    0   16      0.06      0.00
   10    0   16     -1.85      0.00
  -11    1   16      0.99      0.00
  -10    1   16     -0.90      0.00
   -9    1   16      0.29      0.00
   -8    1   16      0.06      0.00
   -7    1   16      0.14      0.00
   -6    1   16     -0.47      0.00
   -5    1   16     -0.04      0.00
   -4    1   16      0.06      0.00
   -3    1   16      0.49      0.00
   -2    1   16     -0.24      0.00
   -1    1   16      1.28      0.00
    0    1   16     -0.01      0.00
    1    1   16      0.69      0.00
    2    1   16     -0.50      0.00
    3    1   16      0.51      0.00
    4    1   16     -0.22      0.00
    5    1   16     -0.11      0.00
    6    1   16     -0.19      0.00
    7    1   16      0.14      0.00
    8    1   16     -0.78      0.00
    9    1   16     -0.71      0.00
   10    1   16      0.44      0.00
  -11    2   16      1.31      0.00
  -10    2   16      0.67      0.00
   -9    2   16     -0.85      0.00
   -8    2   16      0.93      0.00
   -7    2   16      0.28      0.00
   -6    2   16      0.45      0.00
   -5    2   16     -1.04      0.00
   -4    2   16      0.62      0.00
   -3    2   16     -0.17      0.00
   -2    2   16     -1.16      0.00
   -1    2   16     -0.49      0.00
    0    2   16      2.54      0.00
    1    2   16      0.08      0.00
    2    2   16      0.49      0.00
    3    2   16      1.58      0.00
    4    2   16     -1.37      0.00
    5    2   16     -1.91      0.00
    6    2   16      0.84      0.00
    7    2   16      1.33      0.00
    8    2   16      1.94      0.00
    9    2   16     -0.14      0.00
   10    2   16     -1.34      0.00
  -11    3   16      1.75      0.00
  -10    3   16     -1.48      0.00
   -9    3   16      0.38      0.00
   -8    3   16      0.29      0.00
   -7    3   16      0.07      0.00
   -6    3   16     -1.26      0.00
   -5    3   16     -0.67      0.00
   -4    3   16     -0.14      0.00
   -3    3   16      1.01      0.00
   -2    3   16     -1.05      0.00
   -1    3   16      1.92      0.00
    0    3   16      0.32      0.00
    1    3   16      0.59      0.00
    2    3   16     -0.54      0.00
    3    3   16      0.86      0.00
    4    3   16      0.52      0.00
    5    3   16     -0.53      0.00
    6    3   16      0.07      0.00
    7    3   16      0.55      0.00
    8    3   16     -2.40      0.00
    9    3   16     -0.97      0.00
   10    3   16      0.26      0.00
  -11    4   16      0.82      0.00
  -10    4   16      0.20      0.00
   -9    4   16     -0.09      0.00
   -8    4   16      1.46      0.00
   -7    4   16      0.18      0.00
   -6    4   16     -0.25      0.00
   -5    4   16     -0.39      0.00
   -4    4   16     -0.26      0.00
   -3    4   16     -0.13      0.00
   -2    4   16     -0.54      0.00
   -1    4   16     -1.07      0.00
    0    4   16      0.96      0.00
    1    4   16     -1.43      0.00
    2    4   16      0.95      0.00
    3    4   16      1.36      0.00
    4    4   16     -1.11      0.00
    5    4   16     -0.84      0.00
    6    4   16      0.12      0.00
    7    4   16      0.73      0.00
    8    4   16      0.26      0.00
    9    4   16     -0.04      0.00
   10    4   16      0.12      0.00
  -11    5   16      0.64      0.00
  -10    5   16     -0.63      0.00
   -9    5   16      0.03      0.00
   -8    5   16      0.61      0.00
   -7    5   16     -0.02      0.00
   -6    5   16     -1.08      0.00
   -5    5   16     -1.22      0.00
   -4    5   16      0.02      0.00
   -3    5   16      1.33      0.00
   -2    5   16     -1.78      0.00
   -1    5   16     -0.16      0.00
    0    5   16      0.92      0.00
    1    5   16     -1.24      0.00
    2    5   16     -0.14      0.00
    3    5   16      0.50      0.00
    4    5   16      1.48      0.00
    5    5   16     -1.04      0.00
    6    5   16      0.69      0.00
    7    5   16      0.45      0.00
    8    5   16     -3.27      0.00
    9    5   16     -0.04      0.00
   10    5   16     -0.49      0.00
  -11    6   16     -0.53      0.00
  -10    6   16     -0.01      0.00
   -9    6   16     -0.98      0.00
   -8    6   16      2.17      0.00
   -7    6   16     -0.64      0.00
   -6    6   16     -1.11      0.00
   -5    6   16     -0.01      0.00
   -4    6   16     -0.66      0.00
   -3    6   16      0.46      0.00
   -2    6   16     -1.87      0.00
   -1    6   16     -0.02      0.00
    0    6   16     -2.12      0.00
    1    6   16     -1.70      0.00
    2    6   16      1.48      0.00
    3    6   16      1.25      0.00
    4    6   16     -1.41      0.00
    5    6   16     -0.38      0.00
    6    6   16     -0.28      0.00
    7    6   16     -0.40      0.00
    8    6   16     -0.90      0.00
    9    6   16      0.71      0.00
   10    6   16      1.20      0.00
  -11    7   16     -0.37      0.00
  -10    7   16     -0.07      0.00
   -9    7   16      0.42      0.00
   -8    7   16      1.16      0.00
   -7    7   16      0.41      0.00
   -6    7   16      0.37      0.00
   -5    7   16     -0.05      0.00
   -4    7   16      0.80      0.00
   -3    7   16      2.06      0.00
   -2    7   16     -2.04      0.00
   -1    7   16     -2.25      0.00
    0    7   16      0.53      0.00
    1    7   16     -1.81      0.00
    2    7   16     -0.89      0.00
    3    7   16      0.52      0.00
    4    7   16      0.88      0.00
    5    7   16     -0.29      0.00
    6    7   16      0.63      0.00
    7    7   16      0.21      0.00
    8    7   16     -2.19      0.00
    9    7   16      0.53      0.00
  -11    8   16     -1.58      0.00
  -10    8   16     -1.27      0.00
   -9    8   16     -2.21      0.00
   -8    8   16      0.66      0.00
   -7    8   16     -1.41      0.00
   -6    8   16     -2.57      0.00
   -5    8   16     -0.48      0.00
   -4    8   16      0.11      0.00
   -3    8   16      0.72      0.00
   -2    8   16     -2.42      0.00
   -1    8   16      1.00      0.00
    0    8   16     -2.12      0.00
    1    8   16     -1.01      0.00
    2    8   16      3.69      0.00
    3    8   16      1.45      0.00
    4    8   16     -1.72      0.00
    5    8   16      0.13      0.00
    6    8   16     -0.96      0.00
    7    8   16     -0.67      0.00
    8    8   16     -1.93      0.00
    9    8   16      1.14      0.00
  -10    9   16      0.30      0.00
   -9    9   16      1.18      0.00
   -8    9   16      1.74      0.00
   -7    9   16      0.78      0.00
   -6    9   16      1.23      0.00
   -5    9   16      2.09      0.00
   -4    9   16      0.47      0.00
   -3    9   16      2.59      0.00
   -2    9   16     -2.79      0.00
   -1    9   16     -2.19      0.00
    0    9   16     -0.70      0.00
    1    9   16     -0.16      0.00
    2    9   16     -1.24      0.00
    3    9   16      0.63      0.00
    4    9   16      0.65      0.00
    5    9   16      1.86      0.00
    6    9   16      0.40      0.00
    7    9   16      1.61      0.00
    8    9   16     -0.70      0.00
    9    9   16      1.11      0.00
  -10   10   16     -2.90      0.00
   -9   10   16     -1.52      0.00
   -8   10   16     -2.00      0.00
   -7   10   16     -0.74      0.00
   -6   10   16     -3.20      0.00
   -5   10   16     -0.98      0.00
   -4   10   16      1.66      0.00
   -3   10   16      0.15      0.00
   -2   10   16     -0.59      0.00
   -1   10   16     -0.03      0.00
    0   10   16      0.94      0.00
    1   10   16     -0.59      0.00
    2   10   16      4.97      0.00
    3   10   16      1.28      0.00
    4   10   16     -1.63      0.00
    5   10   16      0.29      0.00
    6   10   16     -0.47      0.00
    7   10   16      0.14      0.00
    8   10   16     -1.58      0.00
    9   10   16      0.82      0.00
  -10   11   16      0.80      0.00
   -9   11   16      0.81      0.00
   -8   11   16      1.39      0.00
   -7   11   16      0.54      0.00
   -6   11   16      0.15      0.00
   -5   11   16      3.27      0.00
   -4   11   16     -1.26      0.00
   -3   11   16      2.87      0.00
   -2   11   16     -3.45      0.00
   -1   11   16     -0.52      0.00
    0   11   16     -0.66      0.00
    1   11   16      0.97      0.00
    2   11   16      0.01      0.00
    3   11   16     -0.24      0.00
    4   11   16      1.02      0.00
    5   11   16      2.97      0.00
    6   11   16     -0.12      0.00
    7   11   16      3.44      0.00
    8   11   16     -1.06      0.00
    9   11   16      1.66      0.00
  -10   12   16     -2.81      0.00
   -9   12   16     -0.13      0.00
   -8   12   16     -2.28      0.00
   -7   12   16      0.22      0.00
   -6   12   16     -2.05      0.00
   -5   12   16     -0.82      0.00
   -4   12   16      2.37      0.00
   -3   12   16     -0.01      0.00
   -2   12   16      0.94      0.00
   -1   12   16     -0.75      0.00
    0   12   16      2.26      0.00
    1   12   16      0.29      0.00
    2   12   16      2.65      0.00
    3   12   16      0.78      0.00
    4   12   16     -1.35      0.00
    5   12   16     -0.35      0.00
    6   12   16      1.88      0.00
    7   12   16      0.72      0.00
    8   12   16      0.37      0.00
    9   12   16      0.13      0.00
   -9   13   16     -0.08      0.00
   -8   13   16     -0.01      0.00
   -7   13   16     -0.15      0.00
   -6   13   16     -1.29      0.00
   -5   13   16      2.08      0.00
   -4   13   16     -2.54      0.00
   -3   13   16      2.73      0.00
   -2   13   16     -2.75      0.00
   -1   13   16      0.50      0.00
    0   13   16      0.37      0.00
    1   13   16     -0.28      0.00
    2   13   16      0.46      0.00
    3   13   16     -1.27      0.00
    4   13   16     -0.67      0.00
    5   13   16      1.83      0.00
    6   13   16     -1.16      0.00
    7   13   16      2.98      0.00
    8   13   16     -1.97      0.00
   -9   14   16     -0.09      0.00
   -8   14   16     -0.05      0.00
   -7   14   16      0.01      0.00
   -6   14   16     -0.65      0.00
   -5   14   16     -0.26      0.00
   -4   14   16      1.98      0.00
   -3   14   16      1.02      0.00
   -2   14   16      0.56      0.00
   -1   14   16      1.16      0.00
    0   14   16      0.87      0.00
    1   14   16      1.67      0.00
    2   14   16     -0.36      0.00
    3   14   16      0.06      0.00
    4   14   16     -1.54      0.00
    5   14   16     -0.56      0.00
    6   14   16      2.80      0.00
    7   14   16      0.87      0.00
    8   14   16      1.14      0.00
   -9   15   16     -0.09      0.00
   -8   15   16     -1.09      0.00
   -7   15   16     -1.06      0.00
   -6   15   16     -1.10      0.00
   -5   15   16     -1.00      0.00
   -4   15   16     -2.59      0.00
   -3   15   16      1.67      0.00
   -2   15   16     -1.20      0.00
   -1   15   16      0.36      0.00
    0   15   16     -0.54      0.00
    1   15   16     -1.60      0.00
    2   15   16     -0.91      0.00
    3   15   16     -0.94      0.00
    4   15   16     -3.22      0.00
    5   15   16      0.10      0.00
    6   15   16     -1.45      0.00
    7   15   16      1.00      0.00
   -8   16   16      1.63      0.00
   -7   16   16     -0.17      0.00
   -6   16   16     -0.66      0.00
   -5   16   16      0.14      0.00
   -4   16   16      2.19      0.00
   -3   16   16      1.52      0.00
   -2   16   16      0.21      0.00
   -1   16   16      2.61      0.00
    0   16   16     -0.05      0.00
    1   16   16      1.84      0.00
    2   16   16     -0.76      0.00
    3   16   16     -0.92      0.00
    4   16   16     -2.22      0.00
    5   16   16      0.32      0.00
    6   16   16      0.74      0.00
    7   16   16      0.97      0.00
   -7   17   16     -1.55      0.00
   -6   17   16      0.09      0.00
   -5   17   16     -2.64      0.00
   -4   17   16     -2.13      0.00
   -3   17   16      0.85      0.00
   -2   17   16      0.42      0.00
   -1   17   16      0.78      0.00
    0   17   16     -3.24      0.00
    1   17   16     -0.34      0.00
    2   17   16     -1.49      0.00
    3   17   16      0.18      0.00
    4   17   16     -3.01      0.00
    5   17   16     -0.74      0.00
    6   17   16     -0.47      0.00
    7   17   16      0.07      0.00
   -7   18   16      0.21      0.00
   -6   18   16     -1.92      0.00
   -5   18   16     -0.22      0.00
   -4   18   16      2.98      0.00
   -3   18   16      0.30      0.00
   -2   18   16      1.01      0.00
   -1   18   16      0.67      0.00
    0   18   16      0.79      0.00
    1   18   16      1.51      0.00
    2   18   16      0.21      0.00
    3   18   16     -0.96      0.00
    4   18   16     -2.25      0.00
    5   18   16      1.23      0.00
    6   18   16     -1.15      0.00
   -6   19   16      0.58      0.00
   -5   19   16     -0.88      0.00
   -4   19   16     -1.70      0.00
   -3   19   16      1.08      0.00
   -2   19   16      1.55      0.00
   -1   19   16      1.69      0.00
    0   19   16     -4.47      0.00
    1   19   16      1.80      0.00
    2   19   16     -0.07      0.00
    3   19   16      0.80      0.00
    4   19   16     -0.60      0.00
    5   19   16     -0.54      0.00
   -5   20   16     -0.78      0.00
   -4   20   16      2.59      0.00
   -3   20   16     -0.67      0.00
   -2   20   16      1.21      0.00
   -1   20   16     -2.13      0.00
    0   20   16      1.57      0.00
    1   20   16      2.27      0.00
    2   20   16      0.22      0.00
    3   20   16      0.20      0.00
    4   20   16     -1.34      0.00
    5   20   16      1.34      0.00
   -4   21   16     -0.91      0.00
   -3   21   16      1.01      0.00
   -2   21   16      1.35      0.00
   -1   21   16      1.40      0.00
    0   21   16     -3.19      0.00
    1   21   16      1.77      0.00
    2   21   16      1.18      0.00
    3   21   16      0.53      0.00
    4   21   16      0.82      0.00
   -3   22   16     -0.15      0.00
   -2   22   16      0.01      0.00
   -1   22   16     -2.48      0.00
    0   22   16      1.02      0.00
    1   22   16      2.71      0.00
    2   22   16     -0.27      0.00
  -10    1   17     -0.61      0.00
   -9    1   17      0.91      0.00
   -8    1   17     -0.68      0.00
   -7    1   17      0.11      0.00
   -6    1   17     -1.78      0.00
   -4    1   17     -1.59      0.00
   -3    1   17      0.08      0.00
   -2    1   17      0.97      0.00
   -1    1   17     -0.86      0.00
    0    1   17     -3.34      0.00
    1    1   17     -0.10      0.00
    2    1   17     -0.17      0.00
    3    1   17     -1.99      0.00
    4    1   17      2.30      0.00
    5    1   17      2.20      0.00
    6    1   17     -0.50      0.00
    7    1   17     -0.24      0.00
    8    1   17     -2.89      0.00
  -10    2   17      0.87      0.00
   -9    2   17     -0.87      0.00
   -8    2   17      0.06      0.00
   -7    2   17     -0.36      0.00
   -6    2   17      1.65      0.00
   -4    2   17      1.41      0.00
   -3    2   17      0.08      0.00
   -2    2   17      1.60      0.00
   -1    2   17     -1.49      0.00
    0    2   17     -0.53      0.00
    1    2   17     -1.23      0.00
    2    2   17     -0.76      0.00
    3    2   17     -0.51      0.00
    4    2   17     -0.84      0.00
    5    2   17      0.48      0.00
    6    2   17     -0.52      0.00
    7    2   17     -0.30      0.00
    8    2   17      1.71      0.00
  -10    3   17     -0.70      0.00
   -9    3   17     -0.15      0.00
   -8    3   17     -1.34      0.00
   -7    3   17     -0.14      0.00
   -6    3   17     -1.65      0.00
   -5    3   17      0.77      0.00
   -4    3   17     -0.71      0.00
   -3    3   17      0.32      0.00
   -2    3   17      0.94      0.00
   -1    3   17     -0.20      0.00
    0    3   17     -1.46      0.00
    1    3   17      1.59      0.00
    2    3   17     -0.20      0.00
    3    3   17     -1.34      0.00
    4    3   17      1.56      0.00
    5    3   17      0.69      0.00
    6    3   17     -0.18      0.00
    7    3   17     -1.05      0.00
    8    3   17     -1.31      0.00
   -9    4   17     -0.58      0.00
   -8    4   17     -0.61      0.00
   -7    4   17     -0.61      0.00
   -6    4   17      1.53      0.00
   -5    4   17      0.67      0.00
   -4    4   17      0.99      0.00
   -3    4   17     -0.43      0.00
   -2    4   17      2.35      0.00
   -1    4   17     -1.28      0.00
    0    4   17     -0.57      0.00
    1    4   17     -0.53      0.00
    2    4   17     -0.64      0.00
    3    4   17      0.06      0.00
    4    4   17     -1.08      0.00
    5    4   17      1.68      0.00
    6    4   17     -0.55      0.00
    7    4   17     -0.11      0.00
    8    4   17      3.29      0.00
   -9    5   17      0.19      0.00
   -8    5   17     -1.83      0.00
   -7    5   17      0.50      0.00
   -6    5   17     -0.47      0.00
   -5    5   17      0.68      0.00
   -4    5   17      0.50      0.00
   -3    5   17     -0.36      0.00
   -2    5   17      1.60      0.00
   -1    5   17     -1.24      0.00
    0    5   17      1.74      0.00
    1    5   17      1.65      0.00
    2    5   17     -0.44      0.00
    3    5   17     -1.38      0.00
    4    5   17      1.16      0.00
    5    5   17     -0.39      0.00
    6    5   17      0.40      0.00
    7    5   17     -0.18      0.00
    8    5   17      0.80      0.00
   -9    6   17     -0.33      0.00
   -8    6   17     -1.35      0.00
   -7    6   17     -0.77      0.00
   -6    6   17      0.36      0.00
   -5    6   17      0.59      0.00
   -4    6   17     -0.07      0.00
   -3    6   17     -0.99      0.00
   -2    6   17      2.70      0.00
   -1    6   17      0.91      0.00
    0    6   17     -0.13      0.00
    1    6   17      1.04      0.00
    2    6   17      0.11      0.00
    3    6   17      0.06      0.00
    4    6   17     -0.63      0.00
    5    6   17      1.14      0.00
    6    6   17     -0.43      0.00
    7    6   17     -0.24      0.00
    8    6   17      2.98      0.00
   -9    7   17      1.59      0.00
   -8    7   17     -1.65      0.00
   -7    7   17      1.17      0.00
   -6    7   17      1.39      0.00
   -5    7   17      0.35      0.00
   -4    7   17      1.07      0.00
   -3    7   17     -1.31      0.00
   -2    7   17      2.95      0.00
   -1    7   17     -2.51      0.00
    0    7   17      4.34      0.00
    1    7   17      0.71      0.00
    2    7   17     -1.36      0.00
    3    7   17     -1.42      0.00
    4    7   17      1.66      0.00
    5    7   17     -0.66      0.00
    6    7   17      1.19      0.00
    7    7   17      1.05      0.00
   -9    8   17     -0.88      0.00
   -8    8   17     -1.59      0.00
   -7    8   17     -0.89      0.00
   -6    8   17     -0.75      0.00
   -5    8   17     -0.83      0.00
   -4    8   17     -0.51      0.00
   -3    8   17     -2.04      0.00
   -2    8   17      2.92      0.00
   -1    8   17      2.42      0.00
    0    8   17      0.34      0.00
    1    8   17      1.10      0.00
    2    8   17      0.68      0.00
    3    8   17     -0.49      0.00
    4    8   17      0.10      0.00
    5    8   17     -1.17      0.00
    6    8   17      0.10      0.00
    7    8   17     -1.27      0.00
   -9    9   17      1.73      0.00
   -8    9   17     -0.28      0.00
   -7    9   17      0.67      0.00
   -6    9   17      2.75      0.00
   -5    9   17      0.23      0.00
   -4    9   17      0.48      0.00
   -3    9   17     -1.04      0.00
   -2    9   17      3.09      0.00
   -1    9   17     -1.33      0.00
    0    9   17      3.43      0.00
    1    9   17      0.63      0.00
    2    9   17     -3.12      0.00
    3    9   17     -0.79      0.00
    4    9   17      1.96      0.00
    5    9   17     -0.87      0.00
    6    9   17      1.16      0.00
    7    9   17      0.40      0.00
   -8   10   17     -1.59      0.00
   -7   10   17     -0.78      0.00
   -6   10   17     -1.04      0.00
   -5   10   17     -2.85      0.00
   -4   10   17      0.08      0.00
   -3   10   17     -3.60      0.00
   -2   10   17      3.39      0.00
   -1   10   17      1.25      0.00
    0   10   17      0.50      0.00
    1   10   17     -0.22      0.00
    2   10   17      0.58      0.00
    3   10   17      0.05      0.00
    4   10   17      0.45      0.00
    5   10   17     -2.46      0.00
    6   10   17      1.05      0.00
    7   10   17     -2.70      0.00
   -8   11   17      1.36      0.00
   -7   11   17     -0.26      0.00
   -6   11   17      2.65      0.00
   -5   11   17      0.30      0.00
   -4   11   17     -0.88      0.00
   -3   11   17     -0.26      0.00
   -2   11   17      1.17      0.00
   -1   11   17      0.36      0.00
    0   11   17     -0.19      0.00
    1   11   17     -0.01      0.00
    2   11   17     -3.76      0.00
    3   11   17     -0.42      0.00
    4   11   17      1.58      0.00
    5   11   17     -0.70      0.00
    6   11   17     -0.69      0.00
    7   11   17     -0.68      0.00
   -8   12   17     -1.17      0.00
   -6   12   17      0.05      0.00
   -5   12   17     -2.70      0.00
   -4   12   17      1.84      0.00
   -3   12   17     -3.76      0.00
   -2   12   17      4.11      0.00
   -1   12   17     -0.65      0.00
    0   12   17      0.20      0.00
    1   12   17     -0.68      0.00
    2   12   17      0.07      0.00
    3   12   17      0.87      0.00
    4   12   17      0.69      0.00
    5   12   17     -2.17      0.00
    6   12   17      1.62      0.00
   -7   13   17     -0.59      0.00
   -6   13   17      1.11      0.00
   -5   13   17     -0.20      0.00
   -4   13   17     -1.99      0.00
   -3   13   17     -0.55      0.00
   -2   13   17     -0.37      0.00
   -1   13   17     -0.46      0.00
    0   13   17     -1.98      0.00
    1   13   17     -1.69      0.00
    2   13   17     -1.77      0.00
    3   13   17     -0.13      0.00
    4   13   17      1.70      0.00
    5   13   17     -0.06      0.00
    6   13   17     -2.62      0.00
   -6   14   17      1.25      0.00
   -5   14   17      0.06      0.00
   -4   14   17      3.23      0.00
   -3   14   17     -1.95      0.00
   -2   14   17      3.47      0.00
   -1   14   17     -1.23      0.00
    0   14   17      0.07      0.00
    1   14   17      0.22      0.00
    2   14   17      0.13      0.00
    3   14   17      0.59      0.00
    4   14   17      1.61      0.00
    5   14   17     -1.19      0.00
   -6   15   17      0.11      0.00
   -5   15   17     -0.84      0.00
   -4   15   17     -2.16      0.00
   -3   15   17     -1.17      0.00
   -2   15   17     -0.14      0.00
   -1   15   17     -2.54      0.00
    0   15   17     -0.91      0.00
    1   15   17     -2.62      0.00
    2   15   17      0.30      0.00
    3   15   17      0.73      0.00
    4   15   17      2.40      0.00
    5   15   17      0.04      0.00
   -5   16   17      2.28      0.00
   -4   16   17      2.89      0.00
   -3   16   17     -0.08      0.00
   -2   16   17      0.86      0.00
   -1   16   17     -1.04      0.00
    0   16   17      1.37      0.00
    1   16   17      0.62      0.00
    2   16   17      0.84      0.00
    3   16   17     -0.22      0.00
    4   16   17      2.23      0.00
   -4   17   17     -1.93      0.00
   -3   17   17     -0.76      0.00
   -2   17   17     -0.02      0.00
   -1   17   17     -2.44      0.00
    0   17   17     -0.14      0.00
    1   17   17     -2.41      0.00
    2   17   17      0.26      0.00
    3   17   17      1.23      0.00
    4   17   17      2.47      0.00
   -3   18   17      0.31      0.00
   -2   18   17     -1.79      0.00
   -1   18   17     -1.04      0.00
    0   18   17      3.30      0.00
    1   18   17     -0.52      0.00
    2   18   17      0.90      0.00
    3   18   17     -0.89      0.00
   -1   19   17      0.09      0.00
   -3    0   18      0.07      0.00
   -2    0   18     -0.90      0.00
   -1    0   18      1.07      0.00
    0    0   18      2.95      0.00
    1    0   18     -0.57      0.00
    2    0   18      0.56      0.00
    3    0   18      1.26      0.00
    4    0   18     -1.98      0.00
    5    0   18     -0.83      0.00
    6    0   18      0.31      0.00
   -3    1   18      0.12      0.00
   -2    1   18     -1.10      0.00
   -1    1   18      0.65      0.00
    0    1   18      0.17      0.00
    1    1   18      0.83      0.00
    2    1   18      0.36      0.00
    3    1   18     -0.03      0.00
    4    1   18      0.09      0.00
    5    1   18     -0.48      0.00
    6    1   18      0.21      0.00
   -7    2   18     -0.19      0.00
   -3    2   18     -0.08      0.00
   -2    2   18     -0.52      0.00
   -1    2   18      1.52      0.00
    0    2   18      2.36      0.00
    1    2   18     -0.86      0.00
    2    2   18      0.70      0.00
    3    2   18      0.99      0.00
    4    2   18     -1.46      0.00
    5    2   18     -0.13      0.00
    6    2   18     -0.12      0.00
   -7    3   18      0.70      0.00
   -6    3   18     -1.19      0.00
   -3    3   18     -0.04      0.00
   -2    3   18     -2.82      0.00
   -1    3   18      1.27      0.00
    0    3   18      0.10      0.00
    1    3   18      2.04      0.00
    2    3   18      0.92      0.00
    3    3   18      0.19      0.00
    4    3   18      0.91      0.00
    5    3   18     -1.20      0.00
    6    3   18      1.02      0.00
   -7    4   18     -0.22      0.00
   -6    4   18      1.84      0.00
   -4    4   18      0.67      0.00
   -3    4   18     -0.29      0.00
   -2    4   18     -0.69      0.00
   -1    4   18      2.21      0.00
    0    4   18     -0.34      0.00
    1    4   18     -1.39      0.00
    2    4   18      0.11      0.00
    3    4   18      0.68      0.00
    4    4   18     -0.86      0.00
    5    4   18      1.04      0.00
   -7    5   18      0.62      0.00
   -6    5   18     -1.01      0.00
   -4    5   18     -1.13      0.00
   -3    5   18      0.07      0.00
   -2    5   18     -3.14      0.00
   -1    5   18      0.53      0.00
    0    5   18     -0.31      0.00
    1    5   18      1.61      0.00
    2    5   18      0.79      0.00
    3    5   18      0.32      0.00
    4    5   18      1.33      0.00
    5    5   18     -1.30      0.00
   -7    6   18     -0.27      0.00
   -6    6   18      0.53      0.00
   -4    6   18     -0.74      0.00
   -3    6   18      0.02      0.00
   -2    6   18     -2.24      0.00
   -1    6   18      2.66      0.00
    0    6   18     -4.36      0.00
    1    6   18     -1.23      0.00
    2    6   18     -0.84      0.00
    3    6   18      0.83      0.00
    4    6   18     -1.17      0.00
    5    6   18      1.48      0.00
   -7    7   18      0.88      0.00
   -4    7   18      0.24      0.00
   -3    7   18      1.40      0.00
   -2    7   18     -2.37      0.00
   -1    7   18     -1.05      0.00
    0    7   18     -0.37      0.00
    1    7   18     -0.20      0.00
    2    7   18      0.19      0.00
    3    7   18     -0.25      0.00
    4    7   18      0.18      0.00
    5    7   18     -0.44      0.00
   -5    8   18      0.05      0.00
   -4    8   18     -1.48      0.00
   -3    8   18      0.79      0.00
   -2    8   18     -3.35      0.00
   -1    8   18      2.40      0.00
    0    8   18     -5.77      0.00
    1    8   18     -0.46      0.00
    2    8   18      0.09      0.00
    3    8   18      0.87      0.00
    4    8   18     -1.65      0.00
    5    8   18      1.15      0.00
   -5    9   18      1.68      0.00
   -4    9   18      0.42      0.00
   -3    9   18      2.93      0.00
   -2    9   18     -2.41      0.00
   -1    9   18     -1.63      0.00
    0    9   18     -0.19      0.00
    1    9   18     -0.87      0.00
    2    9   18      0.18      0.00
    3    9   18     -0.84      0.00
    4    9   18     -0.71      0.00
   -5   10   18      0.43      0.00
   -4   10   18     -0.49      0.00
   -3   10   18      0.95      0.00
   -2   10   18     -2.63      0.00
   -1   10   18      0.84      0.00
    0   10   18     -3.42      0.00
    1   10   18      0.02      0.00
    2   10   18      1.96      0.00
    3   10   18      0.30      0.00
    4   10   18     -1.58      0.00
   -4   11   18     -0.67      0.00
   -3   11   18      3.47      0.00
   -2   11   18     -3.45      0.00
   -1   11   18     -0.20      0.00
    0   11   18      0.06      0.00
    1   11   18      0.35      0.00
    2   11   18      0.56      0.00
    3   11   18     -0.84      0.00
    4   11   18     -0.56      0.00
   -4   12   18      1.03      0.00
   -3   12   18      0.39      0.00
   -2   12   18     -1.10      0.00
   -1   12   18     -0.35      0.00
    0   12   18     -0.24      0.00
    1   12   18      0.71      0.00
    2   12   18      2.24      0.00
    3   12   18     -0.17      0.00
   -3   13   18      2.46      0.00
   -2   13   18     -3.74      0.00
   -1   13   18      1.31      0.00
    0   13   18      0.31      0.00
    1   13   18      0.98      0.00
    2   13   18      0.32      0.00
   -1   14   18      0.76      0.00
    0   14   18      1.06      0.00
   -2    1   19      0.56      0.00
   -1    1   19     -1.29      0.00
    0    1   19     -1.69      0.00
    1    1   19      0.32      0.00
   -2    2   19      2.23      0.00
   -1    2   19     -0.37      0.00
    0    2   19      0.00      0.00
    1    2   19     -1.96      0.00
   -2    3   19      0.63      0.00
   -1    3   19     -1.68      0.00
    0    3   19     -0.08      0.00
    1    3   19      1.01      0.00
   -2    4   19      2.69      0.00
   -1    4   19     -0.55      0.00
    0    4   19      0.53      0.00
    1    4   19     -2.84      0.00
   -1    5   19     -2.42      0.00
    0    5   19      2.07      0.00
    1    0    0    -25.37      0.00
    0    2    0    220.93      0.00
    0    4    0     47.89      0.00
    0    6    0    -32.68      0.00
   20    6    0     -0.32      0.00
   20    7    0      1.10      0.00
    0    8    0    -20.24      0.00
   19   14    0     -1.50      0.00
   18   19    0     -0.33      0.00
   15   28    0     -0.38      0.00
   14   30    0      1.97      0.00
   13   32    0     -0.78      0.00
   11   35    0      0.33      0.00
    7   39    0     -0.35      0.00
    6   40    0     -0.64      0.00
    4   41    0     -0.47      0.00
   -6    1    1      8.73      0.00
   -2    1    1      3.31      0.00
   20    1    1     -0.46      0.00
   -6    2    1     -8.66      0.00
   -1    2    1    -51.19      0.00
   20    2    1      0.42      0.00
   -6    3    1     -3.87      0.00
   20    3    1      0.09      0.00
  -20    4    1      1.40      0.00
   20    4    1      0.08      0.00
   20    5    1      0.65      0.00
  -20    6    1      1.27      0.00
    1    6    1    -27.86      0.00
   20    6    1     -0.64      0.00
  -20    7    1      0.27      0.00
   -6   10    1      6.25      0.00
  -19   14    1      0.37      0.00
   19   14    1      0.12      0.00
  -18   19    1      0.02      0.00
   18   19    1      0.37      0.00
  -15   28    1     -0.19      0.00
   15   28    1      0.89      0.00
  -14   30    1     -1.20      0.00
   14   30    1      0.95      0.00
  -13   32    1      0.87      0.00
   13   32    1     -0.70      0.00
  -11   35    1     -0.85      0.00
   11   35    1     -0.69      0.00
   10   36    1      0.09      0.00
   -7   39    1      0.03      0.00
    7   39    1     -0.33      0.00
   -6   40    1      0.54      0.00
    6   40    1     -0.97      0.00
   -4   41    1      0.37      0.00
    4   41    1      1.27      0.00
   20    0    2      1.41      0.00
   -5    1    2      8.65      0.00
    1    1    2     11.93      0.00
   20    1    2     -0.33      0.00
   20    2    2      0.62      0.00
   20    3    2     -0.68      0.00
   20    4    2     -0.65      0.00
  -20    5    2     -1.69      0.00
  -20    6    2     -0.16      0.00
   -5    6    2    -15.66      0.00
    3    9    2      2.09      0.00
    3   11    2    -11.39      0.00
    3   12    2      2.04      0.00
    3   13    2     -1.97      0.00
   19   13    2     -0.19      0.00
  -19   14    2     -1.06      0.00
   18   18    2      0.06      0.00
  -18   19    2      0.25      0.00
   17   22    2     -1.63      0.00
   16   25    2      1.26      0.00
  -15   28    2      0.61      0.00
  -14   30    2      1.48      0.00
  -13   32    2     -0.47      0.00
  -11   35    2     -0.05      0.00
  -10   36    2      0.21      0.00
   10   36    2     -0.16      0.00
    9   37    2      0.46      0.00
   -8   38    2     -0.76      0.00
    8   38    2     -0.57      0.00
   -7   39    2      0.62      0.00
    7   39    2     -0.27      0.00
   -3   41    2      0.29      0.00
    3   41    2     -0.25      0.00
   -5    1    3    -14.60      0.00
  -20    2    3      1.59      0.00
   -5    2    3    -19.05      0.00
    2    2    3      0.09      0.00
  -20    3    3      0.72      0.00
   -5    3    3      8.16      0.00
  -20    4    3      1.87      0.00
   -5    4    3    -21.71      0.00
  -20    5    3      0.25      0.00
   -4    6    3     -8.11      0.00
   -4    7    3      4.08      0.00
    3    9    3      1.48      0.00
    5   12    3      7.84      0.00
   19   12    3      0.97      0.00
  -19   13    3      0.59      0.00
    8   16    3      0.67      0.00
  -17   22    3     -1.23      0.00
  -16   25    3      0.55      0.00
   15   27    3      1.06      0.00
   14   29    3     -0.27      0.00
   13   31    3      0.51      0.00
  -12   33    3      0.70      0.00
   12   33    3     -1.15      0.00
  -10   36    3     -0.53      0.00
   -9   37    3      0.76      0.00
   -8   38    3     -0.17      0.00
   -5   40    3      0.21      0.00
    5   40    3     -0.42      0.00
   -3   41    3      0.62      0.00
   -2   41    3     -2.06      0.00
    2   41    3     -1.77      0.00
  -20    0    4     -0.83      0.00
  -11    0    4     -4.14      0.00
  -10    0    4      4.13      0.00
  -20    1    4     -0.69      0.00
    3    1    4     -3.39      0.00
   -3    7    4    -12.29      0.00
    4    7    4      4.79      0.00
   -2    8    4      7.90      0.00
   19    9    4     -3.51      0.00
   19   10    4     -1.12      0.00
   19   11    4     -1.91      0.00
  -19   12    4     -0.31      0.00
  -19   13    4      0.63      0.00
  -18   18    4     -0.31      0.00
  -15   27    4     -0.51      0.00
  -14   29    4      0.18      0.00
  -13   31    4      0.21      0.00
  -11   34    4      1.18      0.00
   11   34    4      0.18      0.00
   10   35    4     -0.05      0.00
    7   38    4      0.43      0.00
   -6   39    4     -1.18      0.00
    6   39    4      0.10      0.00
   -4   40    4     -0.25      0.00
    4   40    4      0.08      0.00
   -1   41    4      0.02      0.00
    0   41    4     -0.35      0.00
    1   41    4     -1.13      0.00
  -10    1    5     -6.20      0.00
    3    2    5      4.60      0.00
    3    3    5     -1.93      0.00
    4    6    5     -0.34      0.00
   19    6    5     -1.42      0.00
    1    7    5     10.16      0.00
   19    7    5      0.43      0.00
   19    8    5      1.37      0.00
  -19   11    5      0.51      0.00
   -1   13    5      3.71      0.00
   18   14    5     -0.60      0.00
    6   15    5     -0.71      0.00
   18   15    5     -0.21      0.00
    7   16    5     -3.09      0.00
  -18   17    5      0.61      0.00
   17   19    5     -0.40      0.00
  -16   24    5      0.31      0.00
   14   28    5      0.91      0.00
   13   30    5     -0.12      0.00
  -12   32    5     -0.66      0.00
   11   33    5     -0.59      0.00
  -10   35    5     -0.88      0.00
   -9   36    5      0.57      0.00
   -8   37    5     -0.21      0.00
   -7   38    5     -0.42      0.00
   -5   39    5     -0.95      0.00
    5   39    5      0.51      0.00
   -3   40    5     -0.01      0.00
   -2   40    5     -0.35      0.00
    2   40    5     -1.46      0.00
    3   40    5     -0.01      0.00
   19    0    6      0.71      0.00
   19    1    6      1.44      0.00
  -10    2    6      5.33      0.00
    3    2    6     -6.84      0.00
   19    2    6      0.94      0.00
   -9    3    6     -0.50      0.00
    2    3    6     -6.75      0.00
   19    3    6      2.87      0.00
   19    4    6      1.01      0.00
   -9    5    6      3.22      0.00
    2    5    6     -2.27      0.00
  -19    8    6     -1.23      0.00
  -19    9    6      0.09      0.00
   18   12    6     -1.01      0.00
   18   13    6      0.97      0.00
  -18   15    6      0.26      0.00
   17   18    6     -0.38      0.00
  -16   23    6     -0.07      0.00
   14   27    6     -0.65      0.00
   13   29    6      0.42      0.00
  -11   33    6     -0.46      0.00
    9   35    6     -0.15      0.00
    8   36    6     -0.44      0.00
    7   37    6     -0.91      0.00
   -6   38    6     -0.41      0.00
   -4   39    6     -0.68      0.00
    3   39    6      0.88      0.00
    4    1    7    -15.89      0.00
  -19    3    7     -0.31      0.00
    3    3    7      1.78      0.00
    5    3    7     -0.85      0.00
  -19    4    7      0.67      0.00
   -9    4    7     -0.93      0.00
  -19    5    7      0.48      0.00
   -8    6    7      6.36      0.00
   18    9    7     -0.08      0.00
   18   10    7      0.56      0.00
  -18   13    7     -0.31      0.00
   17   15    7      0.02      0.00
   17   16    7     -1.41      0.00
  -17   18    7     -0.57      0.00
    0   18    7      1.79      0.00
   16   20    7      1.56      0.00
   15   23    7      1.50      0.00
  -15   24    7      0.44      0.00
   13   28    7     -0.53      0.00
  -11   32    7      0.17      0.00
   -3   34    7      0.23      0.00
    9   34    7      0.47      0.00
    8   35    7      0.62      0.00
    7   36    7      0.68      0.00
   -6   37    7     -0.49      0.00
   -4   38    7      0.27      0.00
    4   38    7     -0.77      0.00
   -2   39    7     -0.67      0.00
   -1   39    7      0.51      0.00
    0   39    7      1.29      0.00
    1   39    7     -1.37      0.00
    5    0    8    -22.36      0.00
    4    2    8      6.83      0.00
    5    2    8    -11.50      0.00
   18    2    8      0.27      0.00
    4    3    8      4.16      0.00
   18    3    8     -0.41      0.00
   18    4    8     -0.78      0.00
   18    5    8      0.03      0.00
    3    6    8     -2.01      0.00
   18    6    8     -1.31      0.00
   -8    8    8     -1.05      0.00
  -18   10    8     -0.33      0.00
  -18   11    8      0.28      0.00
   -7   11    8     -1.54      0.00
   17   13    8      0.64      0.00
  -17   16    8      1.17      0.00
   -1   18    8      1.07      0.00
   16   18    8      0.37      0.00
  -16   20    8      0.17      0.00
   15   21    8      0.30      0.00
  -15   23    8     -0.07      0.00
   14   24    8     -1.02      0.00
   11   30    8      1.52      0.00
  -11   31    8      0.15      0.00
    9   33    8      0.03      0.00
    8   34    8     -0.57      0.00
    7   35    8      0.03      0.00
    6   36    8     -0.03      0.00
   -5   37    8      0.43      0.00
   -4   37    8      0.48      0.00
    4   37    8      1.21      0.00
   -2   38    8      0.49      0.00
   -1   38    8     -0.87      0.00
    0   38    8      0.14      0.00
    1   38    8      1.27      0.00
    5    2    9      4.64      0.00
    4    3    9      3.17      0.00
  -18    5    9     -1.23      0.00
  -18    6    9      0.55      0.00
  -18    7    9     -1.01      0.00
    3    7    9      1.96      0.00
    3    8    9      1.81      0.00
   17    9    9     -0.05      0.00
   17   10    9      0.73      0.00
  -17   14    9      0.88      0.00
    2   14    9     -3.33      0.00
   16   15    9      1.75      0.00
  -16   18    9      0.40      0.00
   15   19    9      0.40      0.00
  -15   21    9     -1.03      0.00
   14   22    9      0.07      0.00
  -14   24    9      1.11      0.00
   13   25    9      1.38      0.00
  -13   26    9     -1.23      0.00
   12   27    9      0.07      0.00
  -12   28    9     -1.78      0.00
   10   30    9     -0.18      0.00
  -10   31    9      0.94      0.00
    8   33    9      0.23      0.00
    7   34    9     -0.28      0.00
   -6   35    9     -1.32      0.00
   -4   36    9     -0.59      0.00
    4   36    9     -0.62      0.00
   -2   37    9      0.49      0.00
   -1   37    9      0.81      0.00
    0   37    9     -1.21      0.00
    1   37    9     -0.28      0.00
    6    0   10      8.80      0.00
   17    0   10      2.09      0.00
   17    1   10     -0.18      0.00
    5    2   10    -22.34      0.00
   17    2   10      1.64      0.00
    4    3   10     -1.51      0.00
   17    3   10     -0.40      0.00
    4    4   10     -5.44      0.00
    4    5   10      1.39      0.00
    4    6   10     -0.89      0.00
    4    8   10      6.33      0.00
  -17   10   10     -0.55      0.00
    2   11   10     -5.09      0.00
    3   11   10      3.47      0.00
   16   11   10     -0.64      0.00
    2   12   10     -0.95      0.00
   16   12   10     -0.31      0.00
  -16   15   10      0.41      0.00
   15   16   10     -0.44      0.00
   15   17   10      0.43      0.00
  -15   19   10      0.35      0.00
   14   20   10      0.18      0.00
  -14   22   10      0.01      0.00
   13   23   10     -1.38      0.00
   12   25   10      0.08      0.00
   11   27   10     -0.43      0.00
  -11   28   10     -0.52      0.00
    9   30   10     -0.57      0.00
   -9   31   10      0.64      0.00
   -8   32   10     -0.87      0.00
   -7   33   10     -0.79      0.00
   -6   34   10      1.02      0.00
   -5   34   10     -1.05      0.00
    5   34   10      0.38      0.00
   -4   35   10      0.39      0.00
   -3   35   10     -0.08      0.00
    3   35   10      0.87      0.00
    0   36   10      1.13      0.00
  -17    1   11     -0.02      0.00
  -17    2   11      0.61      0.00
  -17    3   11     -0.06      0.00
  -17    4   11      0.78      0.00
   16    5   11     -0.77      0.00
   16    6   11      1.21      0.00
   16    7   11     -1.31      0.00
  -16   12   11     -0.06      0.00
   15   13   11      1.07      0.00
   14   17   11      0.27      0.00
  -14   20   11      0.73      0.00
   13   20   11      1.22      0.00
   12   23   11      0.21      0.00
   11   25   11     -0.10      0.00
   10   27   11      0.00      0.00
  -10   28   11      0.35      0.00
    7   31   11     -0.30      0.00
   -6   32   11      0.07      0.00
    6   32   11     -0.12      0.00
   -5   33   11      0.02      0.00
    4   33   11     -1.31      0.00
   -3   34   11     -0.62      0.00
   -2   34   11     -0.55      0.00
   -1   34   11      0.57      0.00
    0   34   11      0.33      0.00
    2   34   11      2.54      0.00
  -16    6   12     -0.12      0.00
  -16    7   12      0.11      0.00
   15    7   12      0.03      0.00
   15    8   12     -0.65      0.00
  -15   13   12     -0.17      0.00
   14   13   12     -0.03      0.00
   14   14   12      1.21      0.00
  -14   17   12     -0.74      0.00
   13   17   12      0.04      0.00
  -13   20   12      0.05      0.00
   12   20   12      0.28      0.00
   11   23   12      0.79      0.00
   10   25   12     -0.17      0.00
  -10   26   12     -0.20      0.00
    8   28   12      0.67      0.00
   -8   29   12      0.10      0.00
    7   29   12      0.67      0.00
   -7   30   12     -1.63      0.00
    6   30   12      0.58      0.00
   -5   31   12      0.68      0.00
    5   31   12     -0.41      0.00
   -4   32   12     -0.64      0.00
   -3   32   12     -0.12      0.00
    3   32   12     -1.34      0.00
   -1   33   12     -0.92      0.00
    0   33   12      0.62      0.00
  -15    7   13      0.27      0.00
   14    7   13      0.38      0.00
  -15    8   13      0.65      0.00
   14    8   13     -1.12      0.00
   14    9   13     -1.14      0.00
  -14   13   13      0.64      0.00
   13   13   13      2.32      0.00
   13   14   13      0.28      0.00
  -13   17   13     -0.29      0.00
   12   17   13      0.40      0.00
  -12   20   13      0.13      0.00
   11   20   13     -0.20      0.00
  -11   22   13      0.80      0.00
   10   22   13      0.37      0.00
  -10   24   13     -0.22      0.00
    9   24   13      0.13      0.00
   -8   27   13     -0.14      0.00
    7   27   13      1.66      0.00
   -7   28   13     -0.45      0.00
    6   28   13     -0.07      0.00
   -6   29   13     -1.49      0.00
   -5   29   13      0.48      0.00
    5   29   13     -1.19      0.00
   -4   30   13      0.45      0.00
   -3   30   13     -2.43      0.00
    3   30   13      1.26      0.00
   -2   31   13     -0.10      0.00
   -1   31   13      0.95      0.00
    0   31   13      0.40      0.00
    1   31   13     -1.06      0.00
  -14    7   14     -0.08      0.00
   13    7   14     -0.28      0.00
  -14    8   14     -0.31      0.00
   13    8   14     -0.10      0.00
  -13   13   14      0.52      0.00
   12   13   14      1.38      0.00
   11   16   14      0.76      0.00
  -11   19   14     -0.90      0.00
   10   19   14     -0.03      0.00
  -10   21   14     -0.58      0.00
    9   21   14     -0.29      0.00
   -9   23   14     -0.40      0.00
    8   23   14      0.79      0.00
   -8   24   14     -0.04      0.00
   -7   25   14      1.10      0.00
   -6   26   14     -1.08      0.00
   -5   27   14      1.74      0.00
   -4   28   14      0.73      0.00
   -3   28   14     -4.06      0.00
    1   28   14     -0.80      0.00
    2   28   14      1.74      0.00
    3   28   14     -0.63      0.00
   -1   29   14      1.05      0.00
    0   29   14      0.97      0.00
   12    1   15     -0.30      0.00
   12    2   15      0.07      0.00
   12    3   15     -1.02      0.00
   12    4   15      0.04      0.00
  -13    5   15     -1.69      0.00
   12    5   15     -0.94      0.00
  -13    6   15      0.18      0.00
   12    6   15     -0.63      0.00
  -13    7   15     -1.26      0.00
   11   11   15      0.08      0.00
  -12   12   15     -0.17      0.00
   11   12   15     -0.94      0.00
  -11   15   15     -0.52      0.00
   10   15   15      0.18      0.00
  -10   18   15      1.67      0.00
    9   18   15      0.99      0.00
   -9   20   15      0.03      0.00
    8   20   15     -0.88      0.00
   -8   21   15     -0.27      0.00
    7   21   15      0.95      0.00
   -7   22   15     -1.29      0.00
   -7   23   15      0.32      0.00
    6   23   15      1.00      0.00
   -6   24   15     -0.96      0.00
    5   24   15      1.08      0.00
   -5   25   15     -1.00      0.00
   -4   25   15     -0.11      0.00
    4   25   15      0.43      0.00
   -3   26   15     -0.15      0.00
   -2   26   15      1.50      0.00
   -1   26   15     -1.04      0.00
    0   26   15      1.26      0.00
    1   26   15     -0.06      0.00
    2   26   15      2.16      0.00
  -12    0   16     -0.42      0.00
   -5    0   16     -1.27      0.00
   11    0   16      0.49      0.00
  -12    1   16     -0.55      0.00
  -12    2   16     -0.30      0.00
  -12    3   16     -0.56      0.00
   10    7   16      0.11      0.00
   10    8   16      0.89      0.00
  -11    9   16     -0.50      0.00
   10    9   16      0.70      0.00
  -11   10   16     -1.17      0.00
  -10   13   16      0.57      0.00
    9   13   16      0.81      0.00
    8   15   16     -1.40      0.00
   -9   16   16     -0.39      0.00
    8   16   16     -0.05      0.00
   -8   17   16     -1.05      0.00
   -8   18   16      1.37      0.00
    7   18   16      0.43      0.00
   -7   19   16     -0.74      0.00
    6   19   16      0.70      0.00
   -6   20   16     -2.92      0.00
   -6   21   16      0.46      0.00
   -5   21   16      1.39      0.00
   -5   22   16     -0.41      0.00
   -4   22   16      1.23      0.00
    3   22   16      0.55      0.00
   -3   23   16      0.10      0.00
   -2   23   16     -0.05      0.00
   -1   23   16      0.50      0.00
    0   23   16     -1.45      0.00
    1   23   16      0.33      0.00
    2   23   16      0.67      0.00
   -5    1   17      0.76      0.00
    9    1   17      0.24      0.00
   -5    2   17      0.38      0.00
    9    2   17      1.30      0.00
    9    3   17     -0.57      0.00
  -10    4   17      0.37      0.00
    9    4   17      0.76      0.00
  -10    5   17     -0.48      0.00
  -10    6   17     -0.48      0.00
    8    7   17      2.03      0.00
    8    8   17      1.14      0.00
    8    9   17      1.68      0.00
   -9   10   17     -1.04      0.00
    8   10   17      0.37      0.00
   -7   12   17     -0.22      0.00
    7   12   17     -3.28      0.00
   -8   13   17      1.06      0.00
    7   13   17     -0.86      0.00
   -7   14   17      0.47      0.00
    6   14   17      1.58      0.00
   -7   15   17     -0.23      0.00
    6   15   17     -2.09      0.00
   -6   16   17      0.85      0.00
    5   16   17     -0.04      0.00
   -6   17   17      0.90      0.00
   -5   17   17     -0.67      0.00
   -5   18   17      1.55      0.00
   -4   18   17      1.87      0.00
    4   18   17      1.37      0.00
   -4   19   17     -1.83      0.00
   -3   19   17     -0.15      0.00
   -2   19   17     -0.89      0.00
    0   19   17     -0.77      0.00
    1   19   17     -2.30      0.00
    2   19   17     -0.26      0.00
    3   19   17      0.50      0.00
   -2   20   17     -2.68      0.00
   -1   20   17     -1.01      0.00
    0   20   17      3.25      0.00
    1   20   17     -1.65      0.00
   -8    0   18      0.19      0.00
   -7    0   18     -0.07      0.00
   -6    0   18      2.00      0.00
   -5    0   18      0.81      0.00
   -4    0   18      1.39      0.00
    7    0   18     -0.09      0.00
   -8    1   18      0.04      0.00
   -7    1   18      0.44      0.00
   -6    1   18     -0.48      0.00
   -5    1   18      0.35      0.00
   -4    1   18     -0.77      0.00
    7    1   18     -0.02      0.00
   -8    2   18      0.20      0.00
   -6    2   18      2.06      0.00
   -5    2   18      0.25      0.00
   -4    2   18      1.34      0.00
    7    2   18      0.35      0.00
   -8    3   18      0.34      0.00
   -5    3   18      0.18      0.00
   -4    3   18     -1.73      0.00
   -8    4   18      0.65      0.00
   -5    4   18     -0.53      0.00
    6    4   18     -0.57      0.00
   -5    5   18     -0.39      0.00
    6    5   18      1.40      0.00
   -5    6   18     -0.46      0.00
    6    6   18     -0.72      0.00
   -6    7   18      0.08      0.00
   -5    7   18      0.41      0.00
    6    7   18      0.21      0.00
   -7    8   18     -0.45      0.00
   -6    8   18     -1.26      0.00
    6    8   18     -1.18      0.00
   -6    9   18      0.86      0.00
    5    9   18      0.92      0.00
   -6   10   18     -1.71      0.00
    5   10   18      0.65      0.00
   -6   11   18      0.57      0.00
   -5   11   18      1.84      0.00
   -5   12   18      0.63      0.00
    4   12   18     -1.38      0.00
   -5   13   18      0.71      0.00
   -4   13   18     -1.69      0.00
    3   13   18     -0.44      0.00
   -4   14   18      1.58      0.00
   -3   14   18      0.10      0.00
   -2   14   18     -0.31      0.00
    1   14   18      1.87      0.00
    2   14   18      1.15      0.00
    3   14   18     -0.44      0.00
   -3   15   18      0.26      0.00
   -2   15   18     -2.18      0.00
   -1   15   18      1.11      0.00
    0   15   18     -0.04      0.00
    1   15   18      0.09      0.00
   -5    1   19     -1.37      0.00
   -4    1   19     -0.74      0.00
   -3    1   19     -0.65      0.00
    2    1   19     -1.03      0.00
    3    1   19     -0.47      0.00
   -4    2   19      0.98      0.00
   -3    2   19      0.04      0.00
    2    2   19     -0.61      0.00
    3    2   19     -0.54      0.00
   -4    3   19     -0.78      0.00
   -3    3   19      0.55      0.00
    2    3   19     -0.30      0.00
    3    3   19      0.22      0.00
   -4    4   19      0.60      0.00
   -3    4   19     -0.11      0.00
    2    4   19     -0.22      0.00
    3    4   19     -0.57      0.00
   -4    5   19     -0.26      0.00
   -3    5   19      0.98      0.00
   -2    5   19      0.64      0.00
    1    5   19      1.15      0.00
    2    5   19      0.81      0.00
   -3    6   19     -0.54      0.00
   -2    6   19      1.97      0.00
   -1    6   19      0.04      0.00
    0    6   19      0.65      0.00
    1    6   19     -1.90      0.00
    2    6   19     -0.18      0.00
   -3    7   19      0.23      0.00
   -2    7   19      1.28      0.00
   -1    7   19     -2.36      0.00
    0    7   19      4.09      0.00
    1    7   19      0.95      0.00
    2    7   19      1.43      0.00
   -2    8   19      1.36      0.00
   -1    8   19      0.83      0.00
    0    8   19      0.04      0.00
    1    8   19     -0.06      0.00
   -1    9   19     -1.05      0.00
    0    0    0      0.00      0.00
# SQUEEZE RESULTS (Version =  21116)
# Note: Data are Listed for all Voids in the P1 Unit Cell
# i.e. Centre of Gravity, Solvent Accessible Volume,
# Recovered number of Electrons in the Void and
# Details about the Squeezed Material
loop_
  _platon_squeeze_void_nr
  _platon_squeeze_void_average_x
  _platon_squeeze_void_average_y
  _platon_squeeze_void_average_z
  _platon_squeeze_void_volume
  _platon_squeeze_void_count_electrons
  _platon_squeeze_void_content
   1  0.436  0.500  0.000       584       149 ' '
   2  0.958  0.154  0.028         7        -1 ' '
   3  0.557  1.000  0.500       584       149 ' '
   4  0.042  0.654  0.472         7        -1 ' '
   5  0.958  0.346  0.528         7        -1 ' '
   6  0.042  0.846  0.972         7        -1 ' '
# Missing Reflections Below sin(th)/lambda = 0.25
loop_
  _platon_missing_refln_index_h
  _platon_missing_refln_index_k
  _platon_missing_refln_index_l
  _platon_missing_refln_theta
    1    0    0     1.309
    0    2    0     1.267
    0    4    0     2.535
    0    6    0     3.804
    0    8    0     5.075
   -6    1    1     7.979
   -2    1    1     2.983
   -6    2    1     8.055
   -1    2    1     2.252
   -6    3    1     8.180
    1    6    1     4.265
   -6   10    1    10.202
   -5    1    2     7.056
    1    1    2     3.138
   -5    6    2     8.000
    3    9    2     7.514
    3   11    2     8.528
    3   12    2     9.061
    3   13    2     9.608
   -5    1    3     7.657
   -5    2    3     7.737
    2    2    3     5.107
   -5    3    3     7.867
   -5    4    3     8.046
   -4    6    3     7.590
   -4    7    3     7.930
    3    9    3     8.142
    3    1    4     6.886
   -3    7    4     8.000
    4    7    4     8.920
   -2    8    4     7.868
    3    2    5     8.126
    3    3    5     8.250
    4    6    5     9.585
    1    7    5     8.320
    3    2    6     9.343
    2    3    6     8.938
    2    5    6     9.296
_platon_squeeze_void_probe_radius                  1.20
_platon_squeeze_details
)
TITL a_a       P 21/c       R = 0.06
CELL   15.5620   32.1384   14.8953     90.00     91.91     90.00
SPGR P21/c
# Solvent Accessible Volume =      1200
# Electrons Found in S.A.V. =       298
# Note: Atoms in Void as Cxxx and Qxxx all others
C101 0.572 0.876 0.477 !       4.80 eA-3
C102 0.440 0.919 0.554 !       2.52 eA-3
C103 0.097 0.954 0.434 !       2.43 eA-3
Q104 0.815 0.571 0.062 !       2.34 eA-3
Q105 0.720 0.885 0.481 !       1.88 eA-3
C106 0.027 0.092 0.482 !       1.79 eA-3
C107 0.173 0.064 0.384 !       1.76 eA-3
C108 0.687 0.550 0.896 !       1.68 eA-3
C109 0.923 0.522 0.146 !       1.59 eA-3
C110 0.966 0.968 0.645 !       1.57 eA-3
Q111 0.248 0.281 0.115 !       1.43 eA-3
C112 0.709 0.015 0.504 !       1.38 eA-3
C113 0.753 0.017 0.482 !       1.38 eA-3
C114 0.483 0.435 0.048 !       1.15 eA-3
Q115 0.010 0.946 0.263 !       1.10 eA-3
Q116 0.755 0.167 0.470 !       1.06 eA-3
Q117 0.877 0.856 0.443 !       1.03 eA-3
C118 0.536 0.494 0.074 !       1.02 eA-3
Q119 0.057 0.826 0.619 !       0.98 eA-3
Q120 0.159 0.823 0.068 !       0.88 eA-3
Q121 0.216 0.831 0.460 !       0.88 eA-3
Q122 0.423 0.814 0.351 !       0.87 eA-3
C123 0.470 0.051 0.611 !       0.86 eA-3
C124 0.590 0.962 0.355 !       0.85 eA-3
C125 0.497 0.022 0.627 !       0.84 eA-3
Q126 0.752 0.782 0.670 !       0.83 eA-3
Q127 0.723 0.345 0.013 !       0.80 eA-3
Q128 0.732 0.790 0.557 !       0.80 eA-3
C129 0.518 0.452 0.097 !       0.77 eA-3
Q130 0.421 0.875 0.235 !       0.76 eA-3
Q131 0.966 0.921 0.320 !       0.75 eA-3
Q132 0.717 0.779 0.586 !       0.75 eA-3
Q133 0.238 0.337 0.027 !       0.72 eA-3
C134 0.635 0.029 0.437 !       0.72 eA-3
C135 0.468 0.912 0.453 !       0.71 eA-3
Q136 0.224 0.861 0.479 !       0.70 eA-3
C137 0.292 0.060 0.495 !       0.70 eA-3
C138 0.284 0.461 0.040 !       0.70 eA-3
C139 0.046 0.528 0.029 !       0.70 eA-3
Q140 0.701 0.789 0.306 !       0.70 eA-3
Q141 0.922 0.622 0.704 !       0.69 eA-3
C142 0.076 0.526 0.090 !       0.69 eA-3
Q143 0.772 0.814 0.505 !       0.68 eA-3
C144 0.451 0.414 0.111 !       0.67 eA-3
Q145 0.033 0.398 0.365 !       0.67 eA-3
C146 0.595 0.487 0.047 !       0.67 eA-3
Q147 0.783 0.770 0.953 !       0.66 eA-3
Q148 0.123 0.457 0.562 !       0.64 eA-3
Q149 0.143 0.156 0.074 !       0.64 eA-3
Q150 0.374 0.021 0.964 !       0.64 eA-3
Q151 0.560 0.756 0.374 !       0.63 eA-3
Q152 0.515 0.796 0.619 !       0.62 eA-3
C153 0.293 0.043 0.485 !       0.62 eA-3
Q154 0.942 0.244 0.160 !       0.62 eA-3
Q155 0.706 0.588 0.000 !       0.62 eA-3
Q156 0.236 0.814 0.054 !       0.61 eA-3
Q157 0.920 0.452 0.410 !       0.61 eA-3
Q158 0.151 0.227 0.061 !       0.60 eA-3
C159 0.940 0.075 0.485 !       0.60 eA-3
Q160 0.017 0.710 0.153 !       0.60 eA-3
C161 0.401 0.450 0.062 !       0.59 eA-3
Q162 0.594 0.716 0.859 !       0.59 eA-3
C163 0.597 0.966 0.434 !       0.59 eA-3
Q164 0.436 0.765 0.136 !       0.59 eA-3
Q165 0.832 0.050 0.141 !       0.59 eA-3
Q166 0.936 0.486 0.379 !       0.59 eA-3
Q167 0.066 0.747 0.648 !       0.59 eA-3
Q168 0.698 0.709 0.116 !       0.58 eA-3
Q169 0.579 0.241 0.144 !       0.58 eA-3
Q170 0.239 0.555 0.229 !       0.57 eA-3
C171 0.355 0.537 0.983 !       0.57 eA-3
Q172 0.648 0.767 0.078 !       0.56 eA-3
C173 0.503 0.038 0.496 !       0.56 eA-3
Q174 0.123 0.632 0.087 !       0.56 eA-3
Q175 0.720 0.729 0.763 !       0.56 eA-3
Q176 0.355 0.553 0.985 !       0.55 eA-3
Q177 0.753 0.780 0.278 !       0.55 eA-3
C178 0.933 0.559 0.108 !       0.55 eA-3
Q179 0.702 0.726 0.548 !       0.55 eA-3
Q180 0.485 0.813 0.373 !       0.54 eA-3
Q181 0.714 0.736 0.845 !       0.54 eA-3
Q182 0.090 0.757 0.355 !       0.53 eA-3
Q183 0.832 0.429 0.015 !       0.53 eA-3
C184 0.993 0.436-0.007 !       0.53 eA-3
Q185 0.901 0.305 0.408 !       0.53 eA-3
Q186 0.383 0.602 0.670 !       0.53 eA-3
Q187 0.839 0.115 0.429 !       0.53 eA-3
Q188 0.546 0.234 0.389 !       0.52 eA-3
Q189 0.803 0.397 0.815 !       0.52 eA-3
Q190 0.349 0.078 0.896 !       0.52 eA-3
C191 0.500 0.500 0.000 !       0.52 eA-3
Q192 0.044 0.288 0.105 !       0.51 eA-3
Q193 0.563 0.458 0.591 !       0.51 eA-3
Q194 0.583 0.533 0.571 !       0.51 eA-3
Q195 0.762 0.190 0.077 !       0.51 eA-3
C196 0.133 1.002 0.485 !       0.51 eA-3
Q197 0.283 0.905 0.236 !       0.50 eA-3
)
;
_shelx_fab_checksum              5531
loop_
_space_group_symop_operation_xyz
'x, y, z'
'-x, y+1/2, -z+1/2'
'-x, -y, -z'
'x, -y-1/2, z-1/2'
loop_
_atom_site_label
_atom_site_type_symbol
_atom_site_fract_x
_atom_site_fract_y
_atom_site_fract_z
_atom_site_U_iso_or_equiv
_atom_site_adp_type
_atom_site_occupancy
_atom_site_site_symmetry_order
_atom_site_calc_flag
_atom_site_refinement_flags_posn
_atom_site_refinement_flags_adp
_atom_site_refinement_flags_occupancy
_atom_site_disorder_assembly
_atom_site_disorder_group
Cd1 Cd 0.73988(2) 0.72180(2) 0.83835(2) 0.02684(7) Uani 1 1 d . . . . .
Cd2 Cd 1.24332(2) 0.66017(2) -0.00970(2) 0.03437(8) Uani 1 1 d . . . . .
Cd3 Cd 0.74185(2) 0.71123(2) 0.12218(2) 0.03203(7) Uani 1 1 d . . . . .
N1 N 0.59527(16) 0.72364(9) 0.8278(2) 0.0392(7) Uani 1 1 d . . . . .
N2 N 0.46342(16) 0.70165(9) 0.8415(2) 0.0365(7) Uani 1 1 d . . . . .
H2 H 0.4207 0.6848 0.8442 0.044 Uiso 1 1 calc R U . . .
N3 N 0.0120(2) 0.72026(16) 0.8869(3) 0.0833(15) Uani 1 1 d . . . . .
H3A H -0.0431 0.7192 0.8807 0.100 Uiso 1 1 calc R U . . .
N4 N 0.14389(17) 0.70113(10) 0.9164(2) 0.0403(7) Uani 1 1 d . . . . .
N5 N 0.88293(17) 0.71107(9) 0.1217(2) 0.0423(7) Uani 1 1 d . . . . .
N6 N 1.01680(17) 0.69068(9) 0.1245(2) 0.0388(7) Uani 1 1 d . . . . .
H6A H 1.0605 0.6743 0.1245 0.047 Uiso 1 1 calc R U . . .
N7 N 1.34038(17) 0.70079(10) 0.06418(19) 0.0394(7) Uani 1 1 d . . . . .
N8 N 1.4711(2) 0.72264(15) 0.0936(3) 0.0763(13) Uani 1 1 d . . . . .
H8 H 1.5264 0.7233 0.0973 0.092 Uiso 1 1 calc R U . . .
O1 O 0.84802(14) 0.67643(7) 0.82916(18) 0.0418(6) Uani 1 1 d . . . . .
O2 O 0.8050(3) 0.62152(10) 0.9061(3) 0.1124(17) Uani 1 1 d . . . . .
O3 O 1.27560(16) 0.60425(9) 0.10024(18) 0.0529(7) Uani 1 1 d . . . . .
O4 O 1.15310(14) 0.63756(7) 0.09897(16) 0.0387(6) Uani 1 1 d . . . . .
O5 O 1.1753(2) 0.26968(9) 0.5766(2) 0.0773(10) Uani 1 1 d . . . . .
O6 O 1.2353(2) 0.28958(8) 0.7009(2) 0.0631(8) Uani 1 1 d . . . . .
O7 O 0.72028(16) 0.63032(9) 0.13926(19) 0.0525(7) Uani 1 1 d . . . . .
O8 O 0.62358(15) 0.67893(8) 0.15888(19) 0.0485(7) Uani 1 1 d . . . . .
O9 O 0.33691(15) 0.64359(7) 0.87665(16) 0.0415(6) Uani 1 1 d . . . . .
O10 O 0.22083(17) 0.60546(9) 0.88417(18) 0.0537(7) Uani 1 1 d . . . . .
O11 O 0.26197(16) 0.28086(7) 0.32221(16) 0.0384(6) Uani 1 1 d . . . . .
O12 O 0.3431(2) 0.26593(8) 0.4406(2) 0.0627(8) Uani 1 1 d . . . . .
O13 O 0.71559(17) 0.68151(8) 0.97110(16) 0.0456(6) Uani 1 1 d . . . . .
H13A H 0.7507 0.6567 0.9675 0.055 Uiso 1 1 calc R U . . .
H13B H 0.6561 0.6725 0.9676 0.055 Uiso 1 1 calc R U . . .
C1 C 0.8500(3) 0.63826(12) 0.8474(3) 0.0495(10) Uani 1 1 d . . . . .
C2 C 0.9058(2) 0.61109(11) 0.7918(2) 0.0380(8) Uani 1 1 d . . . . .
C3 C 0.8960(3) 0.56797(13) 0.7907(3) 0.0594(12) Uani 1 1 d . . . . .
H3 H 0.8556 0.5555 0.8266 0.071 Uiso 1 1 calc R U . . .
C4 C 0.9460(3) 0.54378(12) 0.7365(3) 0.0542(11) Uani 1 1 d . . . . .
H4 H 0.9387 0.5151 0.7364 0.065 Uiso 1 1 calc R U . . .
C5 C 1.0077(2) 0.56159(10) 0.6814(2) 0.0305(7) Uani 1 1 d . . . . .
C6 C 1.0133(3) 0.60354(12) 0.6845(3) 0.0621(13) Uani 1 1 d . . . . .
H6 H 1.0537 0.6167 0.6498 0.075 Uiso 1 1 calc R U . . .
C7 C 0.9614(3) 0.62764(11) 0.7371(3) 0.0608(13) Uani 1 1 d . . . . .
H7 H 0.9658 0.6565 0.7338 0.073 Uiso 1 1 calc DR U . . .
C8 C 1.05576(18) 0.53671(9) 0.6156(2) 0.0266(7) Uani 1 1 d . . . . .
C9 C 1.08045(19) 0.55487(9) 0.5356(2) 0.0301(7) Uani 1 1 d . . . . .
H9 H 1.0691 0.5830 0.5262 0.036 Uiso 1 1 calc R U . . .
C10 C 1.12123(18) 0.53267(9) 0.4696(2) 0.0267(7) Uani 1 1 d . . . . .
C11 C 1.13894(18) 0.49037(9) 0.4854(2) 0.0263(7) Uani 1 1 d . . . . .
H11 H 1.1665 0.4749 0.4421 0.032 Uiso 1 1 calc R U . . .
C12 C 1.11569(17) 0.47130(9) 0.5651(2) 0.0238(6) Uani 1 1 d . . . . .
C13 C 1.07463(18) 0.49476(9) 0.6294(2) 0.0268(7) Uani 1 1 d . . . . .
H13 H 1.0594 0.4822 0.6829 0.032 Uiso 1 1 calc R U . . .
C14 C 1.14313(19) 0.55261(9) 0.3832(2) 0.0281(7) Uani 1 1 d . . . . .
C15 C 1.2139(2) 0.54010(10) 0.3358(2) 0.0338(7) Uani 1 1 d . . . . .
H15 H 1.2487 0.5187 0.3585 0.041 Uiso 1 1 calc R U . . .
C16 C 1.2336(2) 0.55874(11) 0.2560(2) 0.0359(8) Uani 1 1 d . . . . .
H16 H 1.2819 0.5501 0.2260 0.043 Uiso 1 1 calc R U . . .
C17 C 1.18249(19) 0.59033(10) 0.2194(2) 0.0306(7) Uani 1 1 d . . . . .
C18 C 1.1108(2) 0.60247(11) 0.2664(2) 0.0400(9) Uani 1 1 d . . . . .
H18 H 1.0752 0.6233 0.2431 0.048 Uiso 1 1 calc R U . . .
C19 C 1.0917(2) 0.58413(10) 0.3469(2) 0.0369(8) Uani 1 1 d . . . . .
H19 H 1.0438 0.5930 0.3774 0.044 Uiso 1 1 calc R U . . .
C20 C 1.2056(2) 0.61141(10) 0.1351(2) 0.0343(8) Uani 1 1 d . . . . .
C21 C 1.13461(18) 0.42638(9) 0.5808(2) 0.0259(7) Uani 1 1 d . . . . .
C22 C 1.1521(2) 0.41178(11) 0.6664(2) 0.0416(9) Uani 1 1 d . . . . .
H22 H 1.1522 0.4302 0.7146 0.050 Uiso 1 1 calc R U . . .
C23 C 1.1695(3) 0.37010(11) 0.6815(3) 0.0470(9) Uani 1 1 d . . . . .
H23 H 1.1823 0.3611 0.7398 0.056 Uiso 1 1 calc R U . . .
C24 C 1.1682(2) 0.34192(10) 0.6127(2) 0.0320(7) Uani 1 1 d . . . . .
C25 C 1.1486(2) 0.35593(11) 0.5265(2) 0.0419(9) Uani 1 1 d . . . . .
H25 H 1.1459 0.3372 0.4790 0.050 Uiso 1 1 calc R U . . .
C26 C 1.1332(2) 0.39775(10) 0.5107(2) 0.0383(8) Uani 1 1 d . . . . .
H26 H 1.1217 0.4069 0.4523 0.046 Uiso 1 1 calc R U . . .
C27 C 1.1933(2) 0.29775(10) 0.6305(2) 0.0343(8) Uani 1 1 d . . . . .
C28 C 0.6486(2) 0.64143(12) 0.1645(2) 0.0417(9) Uani 1 1 d . . . . .
C29 C 0.5898(2) 0.61066(11) 0.2071(2) 0.0374(8) Uani 1 1 d . . . . .
C30 C 0.6137(2) 0.56962(11) 0.2216(3) 0.0421(9) Uani 1 1 d . . . . .
H30 H 0.6646 0.5598 0.1984 0.051 Uiso 1 1 calc R U . . .
C31 C 0.5630(2) 0.54314(11) 0.2700(2) 0.0368(8) Uani 1 1 d . . . . .
H31 H 0.5795 0.5156 0.2781 0.044 Uiso 1 1 calc R U . . .
C32 C 0.48747(19) 0.55730(10) 0.3067(2) 0.0289(7) Uani 1 1 d . . . . .
C33 C 0.4616(2) 0.59767(10) 0.2874(2) 0.0365(8) Uani 1 1 d . . . . .
H33 H 0.4092 0.6071 0.3077 0.044 Uiso 1 1 calc R U . . .
C34 C 0.5121(2) 0.62412(11) 0.2385(3) 0.0401(8) Uani 1 1 d . . . . .
H34 H 0.4936 0.6511 0.2266 0.048 Uiso 1 1 calc R U . . .
C35 C 0.44065(18) 0.53213(9) 0.3729(2) 0.0263(7) Uani 1 1 d . . . . .
C36 C 0.42433(18) 0.48983(9) 0.3628(2) 0.0270(7) Uani 1 1 d . . . . .
H36 H 0.4401 0.4763 0.3106 0.032 Uiso 1 1 calc R U . . .
C37 C 0.38468(17) 0.46734(9) 0.4299(2) 0.0240(6) Uani 1 1 d . . . . .
C38 C 0.36122(18) 0.48792(9) 0.5079(2) 0.0251(6) Uani 1 1 d . . . . .
H38 H 0.3349 0.4730 0.5529 0.030 Uiso 1 1 calc R U . . .
C39 C 0.37653(18) 0.53025(9) 0.5196(2) 0.0256(6) Uani 1 1 d . . . . .
C40 C 0.41537(18) 0.55169(9) 0.4512(2) 0.0282(7) Uani 1 1 d . . . . .
H40 H 0.4249 0.5801 0.4577 0.034 Uiso 1 1 calc R U . . .
C41 C 0.35418(18) 0.55192(9) 0.6032(2) 0.0269(7) Uani 1 1 d . . . . .
C42 C 0.2828(2) 0.53994(10) 0.6514(2) 0.0341(8) Uani 1 1 d . . . . .
H42 H 0.2488 0.5179 0.6306 0.041 Uiso 1 1 calc R U . . .
C43 C 0.2618(2) 0.56018(11) 0.7292(2) 0.0358(8) Uani 1 1 d . . . . .
H43 H 0.2134 0.5520 0.7596 0.043 Uiso 1 1 calc R U . . .
C44 C 0.3120(2) 0.59266(10) 0.7628(2) 0.0317(7) Uani 1 1 d . . . . .
C45 C 0.3835(2) 0.60444(10) 0.7156(2) 0.0381(8) Uani 1 1 d . . . . .
H45 H 0.4181 0.6261 0.7373 0.046 Uiso 1 1 calc R U . . .
C46 C 0.4040(2) 0.58457(10) 0.6370(2) 0.0361(8) Uani 1 1 d . . . . .
H46 H 0.4519 0.5932 0.6062 0.043 Uiso 1 1 calc R U . . .
C47 C 0.2885(2) 0.61503(10) 0.8461(2) 0.0345(8) Uani 1 1 d . . . . .
C48 C 0.36718(18) 0.42221(9) 0.4186(2) 0.0259(7) Uani 1 1 d . . . . .
C49 C 0.3354(2) 0.40685(10) 0.3368(2) 0.0354(8) Uani 1 1 d . . . . .
H49 H 0.3259 0.4248 0.2885 0.043 Uiso 1 1 calc R U . . .
C50 C 0.3178(2) 0.36478(10) 0.3270(2) 0.0389(8) Uani 1 1 d . . . . .
H50 H 0.2943 0.3550 0.2728 0.047 Uiso 1 1 calc R U . . .
C51 C 0.3345(2) 0.33700(9) 0.3963(2) 0.0312(7) Uani 1 1 d . . . . .
C52 C 0.3674(2) 0.35215(10) 0.4774(2) 0.0376(8) Uani 1 1 d . . . . .
H52 H 0.3797 0.3339 0.5245 0.045 Uiso 1 1 calc R U . . .
C53 C 0.3820(2) 0.39430(10) 0.4888(2) 0.0334(7) Uani 1 1 d . . . . .
H53 H 0.4022 0.4041 0.5443 0.040 Uiso 1 1 calc R U . . .
C54 C 0.3126(2) 0.29199(10) 0.3858(2) 0.0333(8) Uani 1 1 d . . . . .
C55 C 0.5448(2) 0.69102(11) 0.8303(3) 0.0420(9) Uani 1 1 d . . . . .
H55 H 0.5637 0.6637 0.8248 0.050 Uiso 1 1 calc R U . . .
C56 C 0.5426(2) 0.75726(11) 0.8388(3) 0.0399(8) Uani 1 1 d . . . . .
H56 H 0.5605 0.7849 0.8400 0.048 Uiso 1 1 calc R U . . .
C57 C 0.4594(2) 0.74423(11) 0.8479(2) 0.0367(8) Uani 1 1 d . . . . .
C58 C 0.3792(2) 0.76660(12) 0.8631(3) 0.0436(9) Uani 1 1 d . . . . .
C59 C 0.3013(2) 0.74578(12) 0.8631(2) 0.0388(8) Uani 1 1 d . . . . .
H59 H 0.3000 0.7175 0.8501 0.047 Uiso 1 1 calc R U . . .
C60 C 0.2248(2) 0.76601(13) 0.8820(3) 0.0528(11) Uani 1 1 d . . . . .
C64 C 0.1449(2) 0.74197(14) 0.8890(3) 0.0478(10) Uani 1 1 d . . . . .
C65 C 0.0625(3) 0.68973(17) 0.9141(3) 0.0626(13) Uani 1 1 d . . . . .
H65 H 0.0433 0.6634 0.9299 0.075 Uiso 1 1 calc R U . . .
C66 C 0.0619(3) 0.75351(19) 0.8705(4) 0.0787(17) Uani 1 1 d . . . . .
H66 H 0.0432 0.7795 0.8503 0.094 Uiso 1 1 calc R U . . .
C67 C 0.9342(2) 0.67894(11) 0.1192(3) 0.0427(9) Uani 1 1 d . . . . .
H67 H 0.9157 0.6515 0.1144 0.051 Uiso 1 1 calc R U . . .
C68 C 0.9356(2) 0.74545(11) 0.1290(3) 0.0495(10) Uani 1 1 d . . . . .
H68 H 0.9166 0.7728 0.1326 0.059 Uiso 1 1 calc R U . . .
C69 C 1.0199(2) 0.73338(11) 0.1302(3) 0.0410(9) Uani 1 1 d . . . . .
C70 C 1.1004(2) 0.75718(12) 0.1299(3) 0.0540(11) Uani 1 1 d . . . . .
C71 C 1.1792(2) 0.73826(12) 0.1253(2) 0.0384(8) Uani 1 1 d . . . . .
H71 H 1.1821 0.7094 0.1281 0.046 Uiso 1 1 calc R U . . .
C72 C 1.2546(2) 0.76079(13) 0.1168(3) 0.0513(10) Uani 1 1 d . . . . .
C76 C 1.3365(2) 0.73958(13) 0.1027(2) 0.0423(9) Uani 1 1 d . . . . .
C77 C 1.4178(3) 0.75283(19) 0.1201(3) 0.0740(16) Uani 1 1 d . . . . .
H77 H 1.4339 0.7782 0.1458 0.089 Uiso 1 1 calc R U . . .
C78 C 1.4241(2) 0.69202(16) 0.0612(3) 0.0583(12) Uani 1 1 d . . . . .
H78 H 1.4462 0.6673 0.0389 0.070 Uiso 1 1 calc R U . . .
C73 C 1.2523(6) 0.8020(3) 0.1375(11) 0.070(3) Uani 0.68(2) 1 d . . P A 1
H73B H 1.3042 0.8180 0.1449 0.084 Uiso 0.68(2) 1 d R U P A 1
C74 C 1.1766(7) 0.8206(3) 0.1525(16) 0.107(6) Uani 0.68(2) 1 d . . P A 1
H74B H 1.1750 0.8496 0.1671 0.129 Uiso 0.68(2) 1 d R U P A 1
C75 C 1.1030(5) 0.7977(3) 0.1472(10) 0.071(3) Uani 0.68(2) 1 d . U P A 1
H75B H 1.0504 0.8091 0.1682 0.086 Uiso 0.68(2) 1 d R U P A 1
C73' C 1.2473(12) 0.8056(7) 0.0863(16) 0.050(5) Uani 0.32(2) 1 d . . P A 2
H73A H 1.2996 0.8211 0.0817 0.060 Uiso 0.32(2) 1 d R U P A 2
C75' C 1.0914(8) 0.8031(4) 0.0945(14) 0.039(4) Uani 0.32(2) 1 d . U P A 2
H75A H 1.0367 0.8168 0.0883 0.047 Uiso 0.32(2) 1 d R U P A 2
C74' C 1.1666(12) 0.8256(5) 0.085(2) 0.063(7) Uani 0.32(2) 1 d . . P A 2
H74A H 1.1641 0.8551 0.0751 0.075 Uiso 0.32(2) 1 d R U P A 2
C61 C 0.2306(9) 0.8090(5) 0.9108(13) 0.059(3) Uani 0.62(4) 1 d . U P B 1
H61B H 0.1785 0.8234 0.9243 0.071 Uiso 0.62(4) 1 d R U P B 1
C62 C 0.3076(11) 0.8300(6) 0.9108(17) 0.080(5) Uani 0.62(4) 1 d . . P B 1
H62B H 0.3083 0.8595 0.9207 0.095 Uiso 0.62(4) 1 d R U P B 1
C63 C 0.3844(11) 0.8101(5) 0.8949(13) 0.056(3) Uani 0.62(4) 1 d . U P B 1
H63B H 0.4384 0.8245 0.9005 0.067 Uiso 0.62(4) 1 d R U P B 1
C63' C 0.3720(12) 0.8064(7) 0.855(3) 0.052(6) Uani 0.38(4) 1 d . . P B 2
H63A H 0.4214 0.8199 0.8317 0.063 Uiso 0.38(4) 1 d R U P B 2
C62' C 0.293(2) 0.8285(9) 0.860(3) 0.085(10) Uani 0.38(4) 1 d . . P B 2
H62A H 0.2924 0.8584 0.8604 0.102 Uiso 0.38(4) 1 d R U P B 2
C61' C 0.2198(13) 0.8059(7) 0.868(3) 0.056(7) Uani 0.38(4) 1 d . . P B 2
H61A H 0.1648 0.8165 0.8474 0.068 Uiso 0.38(4) 1 d R U P B 2
loop_
_atom_site_aniso_label
_atom_site_aniso_U_11
_atom_site_aniso_U_22
_atom_site_aniso_U_33
_atom_site_aniso_U_23
_atom_site_aniso_U_13
_atom_site_aniso_U_12
Cd1 0.02153(11) 0.02091(12) 0.03817(15) -0.00298(10) 0.00245(9) -0.00304(8)
Cd2 0.03908(14) 0.03491(14) 0.02987(14) -0.00175(10) 0.01271(10) -0.00142(10)
Cd3 0.02431(12) 0.02055(12) 0.05156(17) 0.00404(10) 0.00621(10) 0.00274(9)
N1 0.0233(13) 0.0405(17) 0.054(2) -0.0016(14) 0.0026(12) -0.0050(12)
N2 0.0234(13) 0.0373(16) 0.0491(19) -0.0021(14) 0.0048(12) -0.0097(11)
N3 0.0243(17) 0.154(4) 0.071(3) 0.042(3) -0.0067(17) -0.009(2)
N4 0.0265(14) 0.060(2) 0.0342(17) 0.0048(15) -0.0004(12) -0.0112(13)
N5 0.0270(14) 0.0329(16) 0.067(2) 0.0018(15) 0.0054(14) 0.0032(12)
N6 0.0262(14) 0.0319(15) 0.059(2) 0.0037(14) 0.0087(13) 0.0078(12)
N7 0.0296(14) 0.057(2) 0.0319(17) -0.0012(14) 0.0010(12) 0.0067(13)
N8 0.0242(16) 0.145(4) 0.059(3) -0.030(3) -0.0069(16) 0.003(2)
O1 0.0348(12) 0.0248(12) 0.0663(18) -0.0037(12) 0.0083(11) 0.0077(10)
O2 0.177(4) 0.048(2) 0.119(3) 0.013(2) 0.103(3) 0.033(2)
O3 0.0424(14) 0.0614(18) 0.0562(17) 0.0225(14) 0.0229(13) 0.0195(13)
O4 0.0372(12) 0.0394(14) 0.0400(14) 0.0145(11) 0.0103(10) 0.0124(10)
O5 0.117(3) 0.0303(15) 0.082(2) -0.0048(16) -0.039(2) 0.0245(16)
O6 0.106(2) 0.0344(15) 0.0480(18) 0.0064(13) -0.0120(17) 0.0274(15)
O7 0.0365(14) 0.0613(18) 0.0605(18) 0.0222(14) 0.0140(12) -0.0019(12)
O8 0.0391(13) 0.0392(15) 0.0678(19) 0.0179(13) 0.0105(12) -0.0085(11)
O9 0.0411(13) 0.0413(14) 0.0431(15) -0.0181(12) 0.0153(11) -0.0140(11)
O10 0.0512(15) 0.0571(17) 0.0547(17) -0.0227(14) 0.0294(13) -0.0235(13)
O11 0.0500(14) 0.0298(12) 0.0355(14) -0.0103(10) 0.0022(11) -0.0130(10)
O12 0.086(2) 0.0240(13) 0.076(2) 0.0060(14) -0.0301(17) -0.0136(13)
O13 0.0596(16) 0.0358(14) 0.0422(15) 0.0015(12) 0.0138(12) 0.0060(12)
C1 0.058(2) 0.039(2) 0.052(3) -0.0040(19) 0.0152(19) 0.0145(18)
C2 0.046(2) 0.0324(18) 0.035(2) -0.0052(16) 0.0043(15) 0.0121(15)
C3 0.072(3) 0.040(2) 0.067(3) -0.002(2) 0.034(2) 0.004(2)
C4 0.075(3) 0.0290(19) 0.061(3) 0.0009(18) 0.030(2) 0.0050(18)
C5 0.0333(16) 0.0259(16) 0.0323(18) -0.0019(14) 0.0003(13) 0.0070(13)
C6 0.083(3) 0.029(2) 0.077(3) -0.005(2) 0.051(3) -0.008(2)
C7 0.087(3) 0.0201(18) 0.078(3) -0.0024(19) 0.040(3) 0.0043(19)
C8 0.0252(15) 0.0229(15) 0.0317(18) -0.0021(13) -0.0010(12) 0.0034(12)
C9 0.0348(17) 0.0199(15) 0.0355(19) 0.0021(14) 0.0026(14) 0.0049(13)
C10 0.0255(15) 0.0249(16) 0.0297(18) 0.0030(13) -0.0006(12) 0.0006(12)
C11 0.0264(15) 0.0227(15) 0.0298(18) -0.0030(13) -0.0008(12) 0.0033(12)
C12 0.0212(14) 0.0211(15) 0.0289(17) 0.0016(13) -0.0024(12) 0.0006(11)
C13 0.0265(15) 0.0264(16) 0.0275(17) 0.0031(13) 0.0025(12) 0.0008(12)
C14 0.0292(15) 0.0220(15) 0.0332(18) 0.0017(13) 0.0003(13) 0.0016(12)
C15 0.0320(17) 0.0302(17) 0.039(2) 0.0094(15) 0.0014(14) 0.0074(13)
C16 0.0289(16) 0.0374(19) 0.042(2) 0.0045(16) 0.0073(14) 0.0077(14)
C17 0.0300(16) 0.0280(16) 0.0341(19) 0.0054(14) 0.0049(13) 0.0006(13)
C18 0.0404(19) 0.0336(19) 0.047(2) 0.0167(17) 0.0122(16) 0.0158(15)
C19 0.0349(17) 0.0358(19) 0.041(2) 0.0116(16) 0.0122(15) 0.0121(14)
C20 0.0347(17) 0.0324(18) 0.036(2) 0.0055(15) 0.0040(14) 0.0034(14)
C21 0.0246(15) 0.0212(15) 0.0318(18) 0.0020(13) 0.0005(12) 0.0037(12)
C22 0.066(2) 0.0316(19) 0.0271(19) -0.0008(15) -0.0039(16) 0.0154(17)
C23 0.071(3) 0.035(2) 0.035(2) 0.0082(17) -0.0013(18) 0.0150(18)
C24 0.0323(17) 0.0236(16) 0.040(2) 0.0068(15) 0.0014(14) 0.0056(13)
C25 0.061(2) 0.0273(18) 0.037(2) -0.0024(16) -0.0027(17) 0.0118(16)
C26 0.055(2) 0.0290(18) 0.0309(19) 0.0038(15) 0.0011(15) 0.0105(15)
C27 0.0326(17) 0.0264(17) 0.044(2) 0.0081(16) 0.0081(15) 0.0084(14)
C28 0.0358(19) 0.049(2) 0.041(2) 0.0169(18) 0.0021(15) -0.0061(16)
C29 0.0341(18) 0.0379(19) 0.040(2) 0.0120(16) 0.0061(15) -0.0048(14)
C30 0.0359(18) 0.041(2) 0.051(2) 0.0121(17) 0.0174(16) 0.0062(15)
C31 0.0387(18) 0.0292(17) 0.043(2) 0.0077(15) 0.0096(15) 0.0059(14)
C32 0.0322(16) 0.0254(16) 0.0293(18) 0.0009(13) 0.0026(13) -0.0062(13)
C33 0.0349(17) 0.0266(17) 0.049(2) 0.0069(16) 0.0139(15) 0.0008(14)
C34 0.0399(19) 0.0262(17) 0.055(2) 0.0116(16) 0.0098(16) 0.0019(14)
C35 0.0258(15) 0.0217(15) 0.0316(18) 0.0019(13) 0.0025(12) 0.0000(12)
C36 0.0286(15) 0.0223(15) 0.0303(18) -0.0024(13) 0.0044(13) 0.0003(12)
C37 0.0224(14) 0.0192(15) 0.0303(17) -0.0005(13) -0.0007(12) -0.0016(11)
C38 0.0238(14) 0.0229(15) 0.0288(17) 0.0004(13) 0.0031(12) -0.0036(12)
C39 0.0243(14) 0.0235(15) 0.0292(17) -0.0036(13) 0.0028(12) -0.0009(12)
C40 0.0295(16) 0.0185(15) 0.0370(19) -0.0033(13) 0.0033(13) -0.0029(12)
C41 0.0276(15) 0.0201(15) 0.0334(18) -0.0038(13) 0.0045(13) 0.0000(12)
C42 0.0318(17) 0.0321(18) 0.039(2) -0.0093(15) 0.0061(14) -0.0110(14)
C43 0.0289(16) 0.0395(19) 0.040(2) -0.0077(16) 0.0129(14) -0.0108(14)
C44 0.0307(16) 0.0301(17) 0.0345(19) -0.0061(15) 0.0056(13) -0.0010(13)
C45 0.0367(18) 0.0317(18) 0.047(2) -0.0152(16) 0.0098(15) -0.0139(14)
C46 0.0331(17) 0.0323(18) 0.044(2) -0.0099(16) 0.0140(15) -0.0096(14)
C47 0.0349(17) 0.0311(18) 0.038(2) -0.0048(15) 0.0080(15) -0.0029(14)
C48 0.0258(15) 0.0201(15) 0.0319(18) -0.0019(13) 0.0037(12) -0.0044(12)
C49 0.052(2) 0.0251(17) 0.0290(19) 0.0006(14) -0.0041(15) -0.0049(15)
C50 0.054(2) 0.0305(18) 0.032(2) -0.0070(15) -0.0065(16) -0.0084(15)
C51 0.0347(17) 0.0208(16) 0.038(2) -0.0065(14) 0.0011(14) -0.0041(13)
C52 0.047(2) 0.0238(17) 0.042(2) 0.0057(15) -0.0096(16) -0.0099(14)
C53 0.0444(19) 0.0244(16) 0.0310(19) -0.0029(14) -0.0057(14) -0.0096(14)
C54 0.0363(17) 0.0222(16) 0.042(2) -0.0074(15) 0.0052(15) -0.0048(13)
C55 0.0272(17) 0.039(2) 0.061(3) -0.0080(18) 0.0057(16) -0.0022(15)
C56 0.0271(16) 0.0365(19) 0.056(2) 0.0030(17) 0.0037(15) -0.0064(14)
C57 0.0285(16) 0.0377(19) 0.044(2) 0.0065(16) 0.0024(14) -0.0031(14)
C58 0.0317(18) 0.039(2) 0.060(3) 0.0174(18) 0.0099(16) -0.0002(15)
C59 0.0316(17) 0.045(2) 0.039(2) 0.0153(17) 0.0012(14) 0.0035(15)
C60 0.0332(19) 0.052(2) 0.074(3) 0.026(2) 0.0106(18) 0.0084(17)
C64 0.0288(18) 0.069(3) 0.046(2) 0.023(2) 0.0010(15) 0.0046(17)
C65 0.040(2) 0.102(4) 0.046(3) 0.009(2) -0.0034(18) -0.026(2)
C66 0.032(2) 0.116(4) 0.089(4) 0.050(3) 0.004(2) 0.014(2)
C67 0.0340(18) 0.0300(18) 0.065(3) 0.0072(17) 0.0112(17) 0.0036(15)
C68 0.0302(18) 0.0290(19) 0.090(3) -0.0067(19) 0.0053(18) 0.0020(15)
C69 0.0304(17) 0.0357(19) 0.057(2) -0.0096(17) 0.0045(16) 0.0031(14)
C70 0.0328(19) 0.040(2) 0.089(3) -0.020(2) 0.0100(19) -0.0011(16)
C71 0.0312(17) 0.044(2) 0.040(2) -0.0136(17) 0.0001(14) -0.0018(15)
C72 0.0343(19) 0.052(2) 0.068(3) -0.020(2) 0.0017(18) -0.0065(17)
C76 0.0274(17) 0.062(2) 0.037(2) -0.0136(18) -0.0010(14) -0.0050(16)
C77 0.035(2) 0.123(5) 0.063(3) -0.045(3) -0.004(2) -0.015(2)
C78 0.035(2) 0.095(4) 0.044(2) -0.007(2) -0.0024(17) 0.022(2)
C73 0.042(4) 0.053(5) 0.114(10) -0.020(7) -0.001(6) -0.014(3)
C74 0.068(6) 0.039(5) 0.213(19) -0.023(8) -0.013(8) -0.008(4)
C75 0.045(4) 0.050(4) 0.119(8) -0.014(5) -0.004(5) 0.007(3)
C73' 0.033(8) 0.050(9) 0.068(13) -0.014(10) 0.021(9) -0.008(6)
C75' 0.028(5) 0.028(6) 0.063(9) 0.006(6) -0.002(5) 0.015(4)
C74' 0.044(9) 0.021(6) 0.126(19) -0.002(9) 0.029(10) 0.004(6)
C61 0.046(5) 0.054(5) 0.077(8) 0.013(6) 0.014(5) 0.012(4)
C62 0.060(7) 0.030(5) 0.150(16) 0.008(9) 0.036(9) 0.004(4)
C63 0.051(5) 0.038(4) 0.079(8) -0.001(6) 0.010(5) -0.008(4)
C63' 0.023(6) 0.043(9) 0.091(18) 0.010(11) 0.008(8) -0.004(5)
C62' 0.074(13) 0.030(9) 0.15(3) 0.034(16) 0.029(17) 0.009(8)
C61' 0.035(7) 0.043(9) 0.091(18) 0.033(11) 0.005(9) 0.008(6)
loop_
_atom_type_symbol
_atom_type_description
_atom_type_scat_dispersion_real
_atom_type_scat_dispersion_imag
_atom_type_scat_source
C C 0.0033 0.0016 'International Tables Vol C Tables 4.2.6.8 and 6.1.1.4'
H H 0.0000 0.0000 'International Tables Vol C Tables 4.2.6.8 and 6.1.1.4'
N N 0.0061 0.0033 'International Tables Vol C Tables 4.2.6.8 and 6.1.1.4'
O O 0.0106 0.0060 'International Tables Vol C Tables 4.2.6.8 and 6.1.1.4'
Cd Cd -0.8075 1.2024 'International Tables Vol C Tables 4.2.6.8 and 6.1.1.4'
loop_
_geom_angle_atom_site_label_1
_geom_angle_atom_site_label_2
_geom_angle_atom_site_label_3
_geom_angle
_geom_angle_site_symmetry_1
_geom_angle_site_symmetry_3
O1 Cd1 N1 139.99(10) . .
O1 Cd1 O6 118.10(11) . 2_756
N1 Cd1 O6 97.69(11) . 2_756
O1 Cd1 O5 92.82(11) . 2_756
N1 Cd1 O5 123.96(12) . 2_756
O6 Cd1 O5 54.77(11) 2_756 2_756
O1 Cd1 O11 84.23(9) . 3_666
N1 Cd1 O11 87.28(10) . 3_666
O6 Cd1 O11 77.01(9) 2_756 3_666
O5 Cd1 O11 123.11(10) 2_756 3_666
O1 Cd1 O13 80.69(9) . .
N1 Cd1 O13 83.52(10) . .
O6 Cd1 O13 138.99(9) 2_756 .
O5 Cd1 O13 90.58(10) 2_756 .
O11 Cd1 O13 143.70(8) 3_666 .
O1 Cd1 C27 108.38(9) . 2_756
N1 Cd1 C27 111.62(10) . 2_756
O6 Cd1 C27 27.54(10) 2_756 2_756
O5 Cd1 C27 27.32(10) 2_756 2_756
O11 Cd1 C27 101.35(9) 3_666 2_756
O13 Cd1 C27 114.70(10) . 2_756
N7 Cd2 N4 109.48(11) . 1_654
N7 Cd2 O4 104.75(10) . .
N4 Cd2 O4 95.85(9) 1_654 .
N7 Cd2 O9 93.56(9) . 1_654
N4 Cd2 O9 102.18(10) 1_654 1_654
O4 Cd2 O9 148.33(9) . 1_654
N7 Cd2 O10 146.32(9) . 1_654
N4 Cd2 O10 91.32(11) 1_654 1_654
O4 Cd2 O10 98.88(9) . 1_654
O9 Cd2 O10 55.32(8) 1_654 1_654
N7 Cd2 O3 88.83(11) . .
N4 Cd2 O3 149.00(9) 1_654 .
O4 Cd2 O3 54.43(8) . .
O9 Cd2 O3 101.35(9) 1_654 .
O10 Cd2 O3 85.70(11) 1_654 .
N7 Cd2 C47 120.70(10) . 1_654
N4 Cd2 C47 96.64(11) 1_654 1_654
O4 Cd2 C47 124.85(9) . 1_654
O9 Cd2 C47 27.81(9) 1_654 1_654
O10 Cd2 C47 27.54(9) 1_654 1_654
O3 Cd2 C47 94.80(10) . 1_654
N7 Cd2 C20 95.99(11) . .
N4 Cd2 C20 123.25(10) 1_654 .
O4 Cd2 C20 27.59(9) . .
O9 Cd2 C20 126.51(9) 1_654 .
O10 Cd2 C20 93.98(10) 1_654 .
O3 Cd2 C20 26.92(8) . .
C47 Cd2 C20 112.69(10) 1_654 .
N5 Cd3 O8 147.72(10) . .
N5 Cd3 O12 122.99(11) . 2_655
O8 Cd3 O12 89.29(10) . 2_655
N5 Cd3 O11 92.28(10) . 2_655
O8 Cd3 O11 109.00(9) . 2_655
O12 Cd3 O11 54.71(9) 2_655 2_655
N5 Cd3 O13 97.53(11) . 1_554
O8 Cd3 O13 85.95(10) . 1_554
O12 Cd3 O13 81.63(9) 2_655 1_554
O11 Cd3 O13 132.40(8) 2_655 1_554
N5 Cd3 O7 97.39(9) . .
O8 Cd3 O7 53.10(9) . .
O12 Cd3 O7 134.27(9) 2_655 .
O11 Cd3 O7 152.45(8) 2_655 .
O13 Cd3 O7 71.83(9) 1_554 .
N5 Cd3 O6 84.40(12) . 3_766
O8 Cd3 O6 80.42(11) . 3_766
O12 Cd3 O6 117.00(10) 2_655 3_766
O11 Cd3 O6 70.61(8) 2_655 3_766
O13 Cd3 O6 156.50(8) 1_554 3_766
O7 Cd3 O6 84.69(9) . 3_766
N5 Cd3 C54 108.12(10) . 2_655
O8 Cd3 C54 101.43(10) . 2_655
O12 Cd3 C54 27.23(10) 2_655 2_655
O11 Cd3 C54 27.55(9) 2_655 2_655
O13 Cd3 C54 106.65(10) 1_554 2_655
O7 Cd3 C54 154.33(9) . 2_655
O6 Cd3 C54 94.82(9) 3_766 2_655
N5 Cd3 C28 122.21(11) . .
O8 Cd3 C28 26.77(10) . .
O12 Cd3 C28 113.73(11) 2_655 .
O11 Cd3 C28 131.63(10) 2_655 .
O13 Cd3 C28 79.67(10) 1_554 .
O7 Cd3 C28 26.50(9) . .
O6 Cd3 C28 79.56(10) 3_766 .
C54 Cd3 C28 128.19(10) 2_655 .
C55 N1 C56 105.4(3) . .
C55 N1 Cd1 125.2(2) . .
C56 N1 Cd1 127.8(2) . .
C55 N2 C57 108.1(3) . .
C55 N2 H2 125.9 . .
C57 N2 H2 125.9 . .
C65 N3 C66 107.8(3) . .
C65 N3 H3A 126.1 . .
C66 N3 H3A 126.1 . .
C65 N4 C64 106.1(3) . .
C65 N4 Cd2 119.1(3) . 1_456
C64 N4 Cd2 132.7(2) . 1_456
C67 N5 C68 105.9(3) . .
C67 N5 Cd3 127.8(2) . .
C68 N5 Cd3 126.1(2) . .
C67 N6 C69 108.4(3) . .
C67 N6 H6A 125.8 . .
C69 N6 H6A 125.8 . .
C78 N7 C76 105.2(3) . .
C78 N7 Cd2 120.0(3) . .
C76 N7 Cd2 133.7(2) . .
C78 N8 C77 108.0(3) . .
C78 N8 H8 126.0 . .
C77 N8 H8 126.0 . .
C1 O1 Cd1 129.6(2) . .
C20 O3 Cd2 88.9(2) . .
C20 O4 Cd2 96.15(19) . .
C27 O5 Cd1 90.9(2) . 2_746
C27 O6 Cd1 94.2(2) . 2_746
C27 O6 Cd3 152.8(3) . 3_766
Cd1 O6 Cd3 103.10(10) 2_746 3_766
C28 O7 Cd3 82.2(2) . .
C28 O8 Cd3 102.0(2) . .
C47 O9 Cd2 92.76(19) . 1_456
C47 O10 Cd2 90.7(2) . 1_456
C54 O11 Cd3 91.6(2) . 2_645
C54 O11 Cd1 138.2(2) . 3_666
Cd3 O11 Cd1 108.28(8) 2_645 3_666
C54 O12 Cd3 92.6(2) . 2_645
Cd1 O13 Cd3 121.06(10) . 1_556
Cd1 O13 H13A 107.1 . .
Cd3 O13 H13A 107.1 1_556 .
Cd1 O13 H13B 107.1 . .
Cd3 O13 H13B 107.1 1_556 .
H13A O13 H13B 106.8 . .
O1 C1 O2 123.9(3) . .
O1 C1 C2 117.3(3) . .
O2 C1 C2 118.7(3) . .
C7 C2 C3 117.8(3) . .
C7 C2 C1 120.6(3) . .
C3 C2 C1 121.4(3) . .
C4 C3 C2 120.3(4) . .
C4 C3 H3 119.9 . .
C2 C3 H3 119.9 . .
C3 C4 C5 121.4(4) . .
C3 C4 H4 119.3 . .
C5 C4 H4 119.3 . .
C6 C5 C4 115.5(3) . .
C6 C5 C8 121.7(3) . .
C4 C5 C8 122.3(3) . .
C5 C6 C7 122.7(3) . .
C5 C6 H6 118.6 . .
C7 C6 H6 118.6 . .
C2 C7 C6 122.1(3) . .
C2 C7 H7 118.9 . .
C6 C7 H7 118.9 . .
C9 C8 C13 118.0(3) . .
C9 C8 C5 119.9(3) . .
C13 C8 C5 122.0(3) . .
C10 C9 C8 122.5(3) . .
C10 C9 H9 118.7 . .
C8 C9 H9 118.7 . .
C9 C10 C11 118.1(3) . .
C9 C10 C14 121.1(3) . .
C11 C10 C14 120.8(3) . .
C12 C11 C10 120.8(3) . .
C12 C11 H11 119.6 . .
C10 C11 H11 119.6 . .
C13 C12 C11 119.1(3) . .
C13 C12 C21 120.7(3) . .
C11 C12 C21 120.2(3) . .
C12 C13 C8 121.4(3) . .
C12 C13 H13 119.3 . .
C8 C13 H13 119.3 . .
C15 C14 C19 118.1(3) . .
C15 C14 C10 121.6(3) . .
C19 C14 C10 120.3(3) . .
C16 C15 C14 121.1(3) . .
C16 C15 H15 119.4 . .
C14 C15 H15 119.4 . .
C15 C16 C17 121.1(3) . .
C15 C16 H16 119.5 . .
C17 C16 H16 119.5 . .
C16 C17 C18 117.7(3) . .
C16 C17 C20 120.9(3) . .
C18 C17 C20 121.3(3) . .
C19 C18 C17 121.2(3) . .
C19 C18 H18 119.4 . .
C17 C18 H18 119.4 . .
C18 C19 C14 120.8(3) . .
C18 C19 H19 119.6 . .
C14 C19 H19 119.6 . .
O3 C20 O4 120.2(3) . .
O3 C20 C17 120.7(3) . .
O4 C20 C17 119.1(3) . .
O3 C20 Cd2 64.20(18) . .
O4 C20 Cd2 56.26(16) . .
C17 C20 Cd2 172.3(2) . .
C22 C21 C26 117.8(3) . .
C22 C21 C12 120.5(3) . .
C26 C21 C12 121.7(3) . .
C21 C22 C23 120.8(3) . .
C21 C22 H22 119.6 . .
C23 C22 H22 119.6 . .
C24 C23 C22 121.4(3) . .
C24 C23 H23 119.3 . .
C22 C23 H23 119.3 . .
C23 C24 C25 118.5(3) . .
C23 C24 C27 120.0(3) . .
C25 C24 C27 121.4(3) . .
C26 C25 C24 120.3(3) . .
C26 C25 H25 119.9 . .
C24 C25 H25 119.9 . .
C25 C26 C21 121.1(3) . .
C25 C26 H26 119.4 . .
C21 C26 H26 119.4 . .
O5 C27 O6 119.7(3) . .
O5 C27 C24 121.8(3) . .
O6 C27 C24 118.5(3) . .
O5 C27 Cd1 61.74(19) . 2_746
O6 C27 Cd1 58.25(18) . 2_746
C24 C27 Cd1 172.4(2) . 2_746
O7 C28 O8 122.1(3) . .
O7 C28 C29 120.3(3) . .
O8 C28 C29 117.6(3) . .
O7 C28 Cd3 71.3(2) . .
O8 C28 Cd3 51.28(16) . .
C29 C28 Cd3 164.8(3) . .
C34 C29 C30 118.6(3) . .
C34 C29 C28 119.3(3) . .
C30 C29 C28 121.9(3) . .
C31 C30 C29 120.9(3) . .
C31 C30 H30 119.6 . .
C29 C30 H30 119.6 . .
C30 C31 C32 120.6(3) . .
C30 C31 H31 119.7 . .
C32 C31 H31 119.7 . .
C33 C32 C31 117.9(3) . .
C33 C32 C35 120.2(3) . .
C31 C32 C35 121.5(3) . .
C34 C33 C32 121.3(3) . .
C34 C33 H33 119.4 . .
C32 C33 H33 119.4 . .
C29 C34 C33 120.4(3) . .
C29 C34 H34 119.8 . .
C33 C34 H34 119.8 . .
C36 C35 C40 118.4(3) . .
C36 C35 C32 123.6(3) . .
C40 C35 C32 117.9(3) . .
C35 C36 C37 120.9(3) . .
C35 C36 H36 119.5 . .
C37 C36 H36 119.5 . .
C36 C37 C38 119.0(3) . .
C36 C37 C48 120.6(3) . .
C38 C37 C48 120.3(3) . .
C39 C38 C37 121.2(3) . .
C39 C38 H38 119.4 . .
C37 C38 H38 119.4 . .
C40 C39 C38 118.1(3) . .
C40 C39 C41 120.4(3) . .
C38 C39 C41 121.5(3) . .
C39 C40 C35 122.2(3) . .
C39 C40 H40 118.9 . .
C35 C40 H40 118.9 . .
C46 C41 C42 117.7(3) . .
C46 C41 C39 121.1(3) . .
C42 C41 C39 121.1(3) . .
C43 C42 C41 121.1(3) . .
C43 C42 H42 119.4 . .
C41 C42 H42 119.4 . .
C42 C43 C44 120.8(3) . .
C42 C43 H43 119.6 . .
C44 C43 H43 119.6 . .
C43 C44 C45 118.3(3) . .
C43 C44 C47 120.8(3) . .
C45 C44 C47 120.9(3) . .
C46 C45 C44 121.0(3) . .
C46 C45 H45 119.5 . .
C44 C45 H45 119.5 . .
C45 C46 C41 121.0(3) . .
C45 C46 H46 119.5 . .
C41 C46 H46 119.5 . .
O10 C47 O9 121.1(3) . .
O10 C47 C44 119.6(3) . .
O9 C47 C44 119.4(3) . .
O10 C47 Cd2 61.75(17) . 1_456
O9 C47 Cd2 59.43(16) . 1_456
C44 C47 Cd2 176.2(2) . 1_456
C49 C48 C53 118.4(3) . .
C49 C48 C37 120.3(3) . .
C53 C48 C37 121.3(3) . .
C50 C49 C48 120.1(3) . .
C50 C49 H49 120.0 . .
C48 C49 H49 120.0 . .
C51 C50 C49 121.4(3) . .
C51 C50 H50 119.3 . .
C49 C50 H50 119.3 . .
C50 C51 C52 118.6(3) . .
C50 C51 C54 120.7(3) . .
C52 C51 C54 120.6(3) . .
C53 C52 C51 120.4(3) . .
C53 C52 H52 119.8 . .
C51 C52 H52 119.8 . .
C52 C53 C48 121.1(3) . .
C52 C53 H53 119.4 . .
C48 C53 H53 119.4 . .
O12 C54 O11 120.8(3) . .
O12 C54 C51 120.0(3) . .
O11 C54 C51 119.1(3) . .
O12 C54 Cd3 60.19(17) . 2_645
O11 C54 Cd3 60.88(16) . 2_645
C51 C54 Cd3 173.9(2) . 2_645
N1 C55 N2 111.9(3) . .
N1 C55 H55 124.0 . .
N2 C55 H55 124.0 . .
N1 C56 C57 110.0(3) . .
N1 C56 H56 125.0 . .
C57 C56 H56 125.0 . .
C56 C57 N2 104.6(3) . .
C56 C57 C58 132.6(3) . .
N2 C57 C58 122.8(3) . .
C63' C58 C59 114.0(9) . .
C63' C58 C57 123.0(9) . .
C59 C58 C57 120.9(3) . .
C59 C58 C63 119.7(7) . .
C57 C58 C63 118.4(7) . .
C58 C59 C60 121.9(4) . .
C58 C59 H59 119.1 . .
C60 C59 H59 119.1 . .
C61' C60 C59 118.3(10) . .
C59 C60 C61 117.4(6) . .
C61' C60 C64 118.8(9) . .
C59 C60 C64 120.0(4) . .
C61 C60 C64 121.6(6) . .
C66 C64 N4 107.5(4) . .
C66 C64 C60 129.8(4) . .
N4 C64 C60 122.7(3) . .
N3 C65 N4 111.4(4) . .
N3 C65 H65 124.3 . .
N4 C65 H65 124.3 . .
N3 C66 C64 107.2(4) . .
N3 C66 H66 126.4 . .
C64 C66 H66 126.4 . .
N5 C67 N6 111.2(3) . .
N5 C67 H67 124.4 . .
N6 C67 H67 124.4 . .
C69 C68 N5 110.0(3) . .
C69 C68 H68 125.0 . .
N5 C68 H68 125.0 . .
C68 C69 N6 104.5(3) . .
C68 C69 C70 132.1(3) . .
N6 C69 C70 123.3(3) . .
C75 C70 C71 114.9(5) . .
C75 C70 C69 122.1(4) . .
C71 C70 C69 122.2(3) . .
C71 C70 C75' 118.0(6) . .
C69 C70 C75' 115.1(6) . .
C70 C71 C72 122.2(4) . .
C70 C71 H71 118.9 . .
C72 C71 H71 118.9 . .
C73 C72 C71 117.2(5) . .
C73 C72 C76 121.0(5) . .
C71 C72 C76 120.8(4) . .
C71 C72 C73' 117.9(8) . .
C76 C72 C73' 117.2(7) . .
C77 C76 N7 108.2(4) . .
C77 C76 C72 129.6(4) . .
N7 C76 C72 122.2(3) . .
N8 C77 C76 107.4(4) . .
N8 C77 H77 126.3 . .
C76 C77 H77 126.3 . .
N8 C78 N7 111.2(4) . .
N8 C78 H78 124.4 . .
N7 C78 H78 124.4 . .
C74 C73 C72 120.0(8) . .
C74 C73 H73B 118.7 . .
C72 C73 H73B 121.2 . .
C73 C74 C75 119.3(9) . .
C73 C74 H74B 120.0 . .
C75 C74 H74B 120.7 . .
C70 C75 C74 124.2(7) . .
C70 C75 H75B 114.7 . .
C74 C75 H75B 120.0 . .
C74' C73' C72 119.8(14) . .
C74' C73' H73A 121.2 . .
C72 C73' H73A 117.4 . .
C74' C75' C70 117.3(11) . .
C74' C75' H75A 119.9 . .
C70 C75' H75A 122.1 . .
C75' C74' C73' 120.9(15) . .
C75' C74' H74A 120.1 . .
C73' C74' H74A 119.0 . .
C62 C61 C60 120.9(12) . .
C62 C61 H61B 120.4 . .
C60 C61 H61B 118.4 . .
C61 C62 C63 122.1(16) . .
C61 C62 H62B 119.4 . .
C63 C62 H62B 118.6 . .
C62 C63 C58 117.0(13) . .
C62 C63 H63B 121.3 . .
C58 C63 H63B 121.6 . .
C58 C63' C62' 124.4(19) . .
C58 C63' H63A 114.6 . .
C62' C63' H63A 119.6 . .
C61' C62' C63' 118(2) . .
C61' C62' H62A 121.3 . .
C63' C62' H62A 121.0 . .
C60 C61' C62' 119.5(19) . .
C60 C61' H61A 116.7 . .
C62' C61' H61A 121.8 . .
loop_
_geom_bond_atom_site_label_1
_geom_bond_atom_site_label_2
_geom_bond_distance
_geom_bond_site_symmetry_2
Cd1 O1 2.234(2) .
Cd1 N1 2.252(3) .
Cd1 O6 2.292(3) 2_756
Cd1 O5 2.368(3) 2_756
Cd1 O11 2.392(2) 3_666
Cd1 O13 2.404(2) .
Cd1 C27 2.688(3) 2_756
Cd2 N7 2.255(3) .
Cd2 N4 2.286(3) 1_654
Cd2 O4 2.296(2) .
Cd2 O9 2.332(2) 1_654
Cd2 O10 2.383(2) 1_654
Cd2 O3 2.472(3) .
Cd2 C47 2.705(3) 1_654
Cd2 C20 2.745(3) .
Cd3 N5 2.196(3) .
Cd3 O8 2.198(2) .
Cd3 O12 2.373(3) 2_655
Cd3 O11 2.388(2) 2_655
Cd3 O13 2.466(3) 1_554
Cd3 O7 2.635(3) .
Cd3 O6 2.647(3) 3_766
Cd3 C54 2.732(3) 2_655
Cd3 C28 2.756(4) .
N1 C55 1.311(4) .
N1 C56 1.370(4) .
N2 C55 1.327(4) .
N2 C57 1.373(4) .
N2 H2 0.8600 .
N3 C65 1.313(6) .
N3 C66 1.348(6) .
N3 H3A 0.8600 .
N4 C65 1.318(5) .
N4 C64 1.374(5) .
N4 Cd2 2.286(3) 1_456
N5 C67 1.306(4) .
N5 C68 1.377(4) .
N6 C67 1.340(4) .
N6 C69 1.376(4) .
N6 H6A 0.8600 .
N7 C78 1.336(4) .
N7 C76 1.374(5) .
N8 C78 1.308(6) .
N8 C77 1.345(6) .
N8 H8 0.8600 .
O1 C1 1.256(4) .
O2 C1 1.259(5) .
O3 C20 1.243(4) .
O4 C20 1.279(4) .
O5 C27 1.234(5) .
O5 Cd1 2.368(3) 2_746
O6 C27 1.246(4) .
O6 Cd1 2.292(3) 2_746
O6 Cd3 2.647(3) 3_766
O7 C28 1.241(4) .
O8 C28 1.269(4) .
O9 C47 1.263(4) .
O9 Cd2 2.331(2) 1_456
O10 C47 1.251(4) .
O10 Cd2 2.383(2) 1_456
O11 C54 1.264(4) .
O11 Cd3 2.388(2) 2_645
O11 Cd1 2.392(2) 3_666
O12 C54 1.251(4) .
O12 Cd3 2.373(3) 2_645
O13 Cd3 2.466(3) 1_556
O13 H13A 0.9700 .
O13 H13B 0.9700 .
C1 C2 1.500(5) .
C2 C7 1.320(5) .
C2 C3 1.394(5) .
C3 C4 1.379(5) .
C3 H3 0.9300 .
C4 C5 1.405(5) .
C4 H4 0.9300 .
C5 C6 1.352(5) .
C5 C8 1.487(4) .
C6 C7 1.381(5) .
C6 H6 0.9300 .
C7 H7 0.9300 .
C8 C9 1.391(4) .
C8 C13 1.394(4) .
C9 C10 1.386(4) .
C9 H9 0.9300 .
C10 C11 1.405(4) .
C10 C14 1.488(4) .
C11 C12 1.395(4) .
C11 H11 0.9300 .
C12 C13 1.391(4) .
C12 C21 1.490(4) .
C13 H13 0.9300 .
C14 C15 1.387(4) .
C14 C19 1.389(4) .
C15 C16 1.375(5) .
C15 H15 0.9300 .
C16 C17 1.390(4) .
C16 H16 0.9300 .
C17 C18 1.392(4) .
C17 C20 1.483(5) .
C18 C19 1.377(5) .
C18 H18 0.9300 .
C19 H19 0.9300 .
C21 C22 1.377(5) .
C21 C26 1.391(5) .
C22 C23 1.384(5) .
C22 H22 0.9300 .
C23 C24 1.367(5) .
C23 H23 0.9300 .
C24 C25 1.386(5) .
C24 C27 1.494(4) .
C25 C26 1.384(5) .
C25 H25 0.9300 .
C26 H26 0.9300 .
C27 Cd1 2.688(3) 2_746
C28 C29 1.503(4) .
C29 C34 1.380(5) .
C29 C30 1.385(5) .
C30 C31 1.380(5) .
C30 H30 0.9300 .
C31 C32 1.389(4) .
C31 H31 0.9300 .
C32 C33 1.386(4) .
C32 C35 1.485(4) .
C33 C34 1.382(4) .
C33 H33 0.9300 .
C34 H34 0.9300 .
C35 C36 1.390(4) .
C35 C40 1.393(4) .
C36 C37 1.393(4) .
C36 H36 0.9300 .
C37 C38 1.396(4) .
C37 C48 1.484(4) .
C38 C39 1.391(4) .
C38 H38 0.9300 .
C39 C40 1.386(4) .
C39 C41 1.478(4) .
C40 H40 0.9300 .
C41 C46 1.389(4) .
C41 C42 1.398(4) .
C42 C43 1.378(5) .
C42 H42 0.9300 .
C43 C44 1.387(4) .
C43 H43 0.9300 .
C44 C45 1.388(4) .
C44 C47 1.490(5) .
C45 C46 1.381(5) .
C45 H45 0.9300 .
C46 H46 0.9300 .
C47 Cd2 2.705(3) 1_456
C48 C49 1.391(4) .
C48 C53 1.391(5) .
C49 C50 1.386(4) .
C49 H49 0.9300 .
C50 C51 1.383(5) .
C50 H50 0.9300 .
C51 C52 1.384(5) .
C51 C54 1.493(4) .
C52 C53 1.383(4) .
C52 H52 0.9300 .
C53 H53 0.9300 .
C54 Cd3 2.732(3) 2_645
C55 H55 0.9300 .
C56 C57 1.372(4) .
C56 H56 0.9300 .
C57 C58 1.464(5) .
C58 C63' 1.29(2) .
C58 C59 1.385(5) .
C58 C63 1.477(16) .
C59 C60 1.393(5) .
C59 H59 0.9300 .
C60 C61' 1.30(2) .
C60 C61 1.449(16) .
C60 C64 1.472(5) .
C64 C66 1.363(5) .
C65 H65 0.9300 .
C66 H66 0.9300 .
C67 H67 0.9300 .
C68 C69 1.369(5) .
C68 H68 0.9300 .
C69 C70 1.467(5) .
C70 C75 1.327(8) .
C70 C71 1.373(5) .
C70 C75' 1.571(15) .
C71 C72 1.389(5) .
C71 H71 0.9300 .
C72 C73 1.360(12) .
C72 C76 1.466(5) .
C72 C73' 1.51(2) .
C76 C77 1.352(5) .
C77 H77 0.9300 .
C78 H78 0.9300 .
C73 C74 1.346(14) .
C73 H73B 0.9600 .
C74 C75 1.361(12) .
C74 H74B 0.9600 .
C75 H75B 0.9599 .
C73' C74' 1.41(3) .
C73' H73A 0.9599 .
C75' C74' 1.39(2) .
C75' H75A 0.9601 .
C74' H74A 0.9602 .
C61 C62 1.38(2) .
C61 H61B 0.9601 .
C62 C63 1.38(2) .
C62 H62B 0.9597 .
C63 H63B 0.9600 .
C63' C62' 1.42(4) .
C63' H63A 0.9600 .
C62' C61' 1.36(4) .
C62' H62A 0.9598 .
C61' H61A 0.9601 .
loop_
_geom_hbond_atom_site_label_D
_geom_hbond_atom_site_label_H
_geom_hbond_atom_site_label_A
_geom_hbond_distance_DH
_geom_hbond_distance_HA
_geom_hbond_distance_DA
_geom_hbond_angle_DHA
_geom_hbond_site_symmetry_A
O13 H13A O2 0.97 1.70 2.584(4) 150.4 .
N8 H8 O12 0.86 2.53 3.264(5) 144.0 2_755
N8 H8 O8 0.86 2.25 2.897(5) 131.8 1_655
N6 H6A O4 0.86 1.91 2.759(3) 168.6 .
N3 H3A O1 0.86 2.29 3.014(5) 141.4 1_455
N2 H2 O9 0.86 1.93 2.775(3) 166.8 .
O13 H13A O2 0.97 1.70 2.584(4) 150.4 .
N8 H8 O12 0.86 2.53 3.264(5) 144.0 2_755
N8 H8 O8 0.86 2.25 2.897(5) 131.8 1_655
N6 H6A O4 0.86 1.91 2.759(3) 168.6 .
N3 H3A O1 0.86 2.29 3.014(5) 141.4 1_455
N2 H2 O9 0.86 1.93 2.775(3) 166.8 .
O13 H13A O2 0.97 1.70 2.584(4) 150.4 .
N8 H8 O12 0.86 2.53 3.264(5) 144.0 2_755
N8 H8 O8 0.86 2.25 2.897(5) 131.8 1_655
N6 H6A O4 0.86 1.91 2.759(3) 168.6 .
N3 H3A O1 0.86 2.29 3.014(5) 141.4 1_455
N2 H2 O9 0.86 1.93 2.775(3) 166.8 .
O13 H13A O2 0.97 1.70 2.584(4) 150.4 .
N8 H8 O12 0.86 2.53 3.264(5) 144.0 2_755
N8 H8 O8 0.86 2.25 2.897(5) 131.8 1_655
N6 H6A O4 0.86 1.91 2.759(3) 168.6 .
N3 H3A O1 0.86 2.29 3.014(5) 141.4 1_455
N2 H2 O9 0.86 1.93 2.775(3) 166.8 .
O13 H13A O2 0.97 1.70 2.584(4) 150.4 .
N8 H8 O12 0.86 2.53 3.264(5) 144.0 2_755
N8 H8 O8 0.86 2.25 2.897(5) 131.8 1_655
N6 H6A O4 0.86 1.91 2.759(3) 168.6 .
N3 H3A O1 0.86 2.29 3.014(5) 141.4 1_455
N2 H2 O9 0.86 1.93 2.775(3) 166.8 .
O13 H13A O2 0.97 1.70 2.584(4) 150.4 .
N8 H8 O12 0.86 2.53 3.264(5) 144.0 2_755
N8 H8 O8 0.86 2.25 2.897(5) 131.8 1_655
N6 H6A O4 0.86 1.91 2.759(3) 168.6 .
N3 H3A O1 0.86 2.29 3.014(5) 141.4 1_455
N2 H2 O9 0.86 1.93 2.775(3) 166.8 .
O13 H13A O2 0.97 1.70 2.584(4) 150.4 .
N8 H8 O12 0.86 2.53 3.264(5) 144.0 2_755
N8 H8 O8 0.86 2.25 2.897(5) 131.8 1_655
N6 H6A O4 0.86 1.91 2.759(3) 168.6 .
N3 H3A O1 0.86 2.29 3.014(5) 141.4 1_455
N2 H2 O9 0.86 1.93 2.775(3) 166.8 .
O13 H13A O2 0.97 1.70 2.584(4) 150.4 .
N8 H8 O12 0.86 2.53 3.264(5) 144.0 2_755
N8 H8 O8 0.86 2.25 2.897(5) 131.8 1_655
N6 H6A O4 0.86 1.91 2.759(3) 168.6 .
N3 H3A O1 0.86 2.29 3.014(5) 141.4 1_455
N2 H2 O9 0.86 1.93 2.775(3) 166.8 .
N2 H2 O9 0.86 1.93 2.775(3) 166.8 .
N3 H3A O1 0.86 2.29 3.014(5) 141.4 1_455
N6 H6A O4 0.86 1.91 2.759(3) 168.6 .
N8 H8 O8 0.86 2.25 2.897(5) 131.8 1_655
N8 H8 O12 0.86 2.53 3.264(5) 144.0 2_755
O13 H13A O2 0.97 1.70 2.584(4) 150.4 .
N2 H2 O9 0.86 1.93 2.775(3) 166.8 .
N3 H3A O1 0.86 2.29 3.014(5) 141.4 1_455
N6 H6A O4 0.86 1.91 2.759(3) 168.6 .
N8 H8 O8 0.86 2.25 2.897(5) 131.8 1_655
N8 H8 O12 0.86 2.53 3.264(5) 144.0 2_755
O13 H13A O2 0.97 1.70 2.584(4) 150.4 .
N2 H2 O9 0.86 1.93 2.775(3) 166.8 .
N3 H3A O1 0.86 2.29 3.014(5) 141.4 1_455
N6 H6A O4 0.86 1.91 2.759(3) 168.6 .
N8 H8 O8 0.86 2.25 2.897(5) 131.8 1_655
N8 H8 O12 0.86 2.53 3.264(5) 144.0 2_755
O13 H13A O2 0.97 1.70 2.584(4) 150.4 .
N2 H2 O9 0.86 1.93 2.775(3) 166.8 .
N3 H3A O1 0.86 2.29 3.014(5) 141.4 1_455
N6 H6A O4 0.86 1.91 2.759(3) 168.6 .
N8 H8 O8 0.86 2.25 2.897(5) 131.8 1_655
N8 H8 O12 0.86 2.53 3.264(5) 144.0 2_755
O13 H13A O2 0.97 1.70 2.584(4) 150.4 .
N2 H2 O9 0.86 1.93 2.775(3) 166.8 .
N3 H3A O1 0.86 2.29 3.014(5) 141.4 1_455
N6 H6A O4 0.86 1.91 2.759(3) 168.6 .
N8 H8 O8 0.86 2.25 2.897(5) 131.8 1_655
N8 H8 O12 0.86 2.53 3.264(5) 144.0 2_755
O13 H13A O2 0.97 1.70 2.584(4) 150.4 .
N2 H2 O9 0.86 1.93 2.775(3) 166.8 .
N3 H3A O1 0.86 2.29 3.014(5) 141.4 1_455
N6 H6A O4 0.86 1.91 2.759(3) 168.6 .
N8 H8 O8 0.86 2.25 2.897(5) 131.8 1_655
N8 H8 O12 0.86 2.53 3.264(5) 144.0 2_755
O13 H13A O2 0.97 1.70 2.584(4) 150.4 .
N2 H2 O9 0.86 1.93 2.775(3) 166.8 .
N3 H3A O1 0.86 2.29 3.014(5) 141.4 1_455
N6 H6A O4 0.86 1.91 2.759(3) 168.6 .
N8 H8 O8 0.86 2.25 2.897(5) 131.8 1_655
N8 H8 O12 0.86 2.53 3.264(5) 144.0 2_755
O13 H13A O2 0.97 1.70 2.584(4) 150.4 .
loop_
_geom_torsion_atom_site_label_1
_geom_torsion_atom_site_label_2
_geom_torsion_atom_site_label_3
_geom_torsion_atom_site_label_4
_geom_torsion
_geom_torsion_site_symmetry_1
_geom_torsion_site_symmetry_4
Cd1 O1 C1 O2 -29.7(7) . .
Cd1 O1 C1 C2 146.7(3) . .
O1 C1 C2 C7 11.4(6) . .
O2 C1 C2 C7 -172.0(5) . .
O1 C1 C2 C3 -163.4(4) . .
O2 C1 C2 C3 13.2(7) . .
C7 C2 C3 C4 2.7(7) . .
C1 C2 C3 C4 177.6(4) . .
C2 C3 C4 C5 0.1(7) . .
C3 C4 C5 C6 -1.0(6) . .
C3 C4 C5 C8 -173.5(4) . .
C4 C5 C6 C7 -0.8(7) . .
C8 C5 C6 C7 171.7(4) . .
C3 C2 C7 C6 -4.6(7) . .
C1 C2 C7 C6 -179.5(5) . .
C5 C6 C7 C2 3.8(8) . .
C6 C5 C8 C9 -24.6(5) . .
C4 C5 C8 C9 147.4(4) . .
C6 C5 C8 C13 157.8(4) . .
C4 C5 C8 C13 -30.1(5) . .
C13 C8 C9 C10 1.2(5) . .
C5 C8 C9 C10 -176.4(3) . .
C8 C9 C10 C11 -0.9(5) . .
C8 C9 C10 C14 177.2(3) . .
C9 C10 C11 C12 0.3(4) . .
C14 C10 C11 C12 -177.7(3) . .
C10 C11 C12 C13 -0.1(4) . .
C10 C11 C12 C21 179.8(3) . .
C11 C12 C13 C8 0.5(4) . .
C21 C12 C13 C8 -179.4(3) . .
C9 C8 C13 C12 -1.0(4) . .
C5 C8 C13 C12 176.6(3) . .
C9 C10 C14 C15 149.7(3) . .
C11 C10 C14 C15 -32.4(5) . .
C9 C10 C14 C19 -31.3(5) . .
C11 C10 C14 C19 146.6(3) . .
C19 C14 C15 C16 1.0(5) . .
C10 C14 C15 C16 -180.0(3) . .
C14 C15 C16 C17 -0.9(5) . .
C15 C16 C17 C18 0.1(5) . .
C15 C16 C17 C20 177.8(3) . .
C16 C17 C18 C19 0.7(5) . .
C20 C17 C18 C19 -177.0(3) . .
C17 C18 C19 C14 -0.6(6) . .
C15 C14 C19 C18 -0.2(5) . .
C10 C14 C19 C18 -179.3(3) . .
Cd2 O3 C20 O4 5.8(3) . .
Cd2 O3 C20 C17 -173.3(3) . .
Cd2 O4 C20 O3 -6.3(4) . .
Cd2 O4 C20 C17 172.8(3) . .
C16 C17 C20 O3 -7.4(5) . .
C18 C17 C20 O3 170.2(4) . .
C16 C17 C20 O4 173.5(3) . .
C18 C17 C20 O4 -8.9(5) . .
C13 C12 C21 C22 -31.7(4) . .
C11 C12 C21 C22 148.4(3) . .
C13 C12 C21 C26 146.6(3) . .
C11 C12 C21 C26 -33.3(4) . .
C26 C21 C22 C23 1.4(5) . .
C12 C21 C22 C23 179.8(3) . .
C21 C22 C23 C24 -1.4(6) . .
C22 C23 C24 C25 -0.2(6) . .
C22 C23 C24 C27 175.7(3) . .
C23 C24 C25 C26 1.7(5) . .
C27 C24 C25 C26 -174.1(3) . .
C24 C25 C26 C21 -1.7(6) . .
C22 C21 C26 C25 0.2(5) . .
C12 C21 C26 C25 -178.2(3) . .
Cd1 O5 C27 O6 -6.0(4) 2_746 .
Cd1 O5 C27 C24 172.3(3) 2_746 .
Cd1 O6 C27 O5 6.2(4) 2_746 .
Cd3 O6 C27 O5 -123.7(5) 3_766 .
Cd1 O6 C27 C24 -172.1(2) 2_746 .
Cd3 O6 C27 C24 58.0(7) 3_766 .
Cd3 O6 C27 Cd1 -129.9(6) 3_766 2_746
C23 C24 C27 O5 163.6(4) . .
C25 C24 C27 O5 -20.6(5) . .
C23 C24 C27 O6 -18.1(5) . .
C25 C24 C27 O6 157.6(3) . .
Cd3 O7 C28 O8 7.9(4) . .
Cd3 O7 C28 C29 -169.2(3) . .
Cd3 O8 C28 O7 -9.6(4) . .
Cd3 O8 C28 C29 167.6(3) . .
O7 C28 C29 C34 177.0(4) . .
O8 C28 C29 C34 -0.2(5) . .
Cd3 C28 C29 C34 39.5(11) . .
O7 C28 C29 C30 1.5(6) . .
O8 C28 C29 C30 -175.7(4) . .
Cd3 C28 C29 C30 -136.0(8) . .
C34 C29 C30 C31 -3.0(6) . .
C28 C29 C30 C31 172.5(4) . .
C29 C30 C31 C32 -1.2(6) . .
C30 C31 C32 C33 4.9(5) . .
C30 C31 C32 C35 -168.3(3) . .
C31 C32 C33 C34 -4.5(5) . .
C35 C32 C33 C34 168.7(3) . .
C30 C29 C34 C33 3.3(6) . .
C28 C29 C34 C33 -172.3(3) . .
C32 C33 C34 C29 0.4(6) . .
C33 C32 C35 C36 141.6(3) . .
C31 C32 C35 C36 -45.4(5) . .
C33 C32 C35 C40 -41.5(4) . .
C31 C32 C35 C40 131.5(3) . .
C40 C35 C36 C37 -0.8(4) . .
C32 C35 C36 C37 176.0(3) . .
C35 C36 C37 C38 0.1(4) . .
C35 C36 C37 C48 179.8(3) . .
C36 C37 C38 C39 0.2(4) . .
C48 C37 C38 C39 -179.6(3) . .
C37 C38 C39 C40 0.4(4) . .
C37 C38 C39 C41 -178.1(3) . .
C38 C39 C40 C35 -1.2(5) . .
C41 C39 C40 C35 177.3(3) . .
C36 C35 C40 C39 1.5(5) . .
C32 C35 C40 C39 -175.6(3) . .
C40 C39 C41 C46 -32.5(5) . .
C38 C39 C41 C46 146.0(3) . .
C40 C39 C41 C42 148.2(3) . .
C38 C39 C41 C42 -33.2(5) . .
C46 C41 C42 C43 0.9(5) . .
C39 C41 C42 C43 -179.9(3) . .
C41 C42 C43 C44 -1.2(5) . .
C42 C43 C44 C45 0.6(5) . .
C42 C43 C44 C47 178.9(3) . .
C43 C44 C45 C46 0.3(5) . .
C47 C44 C45 C46 -178.0(3) . .
C44 C45 C46 C41 -0.6(6) . .
C42 C41 C46 C45 0.0(5) . .
C39 C41 C46 C45 -179.3(3) . .
Cd2 O10 C47 O9 3.6(4) 1_456 .
Cd2 O10 C47 C44 -175.9(3) 1_456 .
Cd2 O9 C47 O10 -3.7(4) 1_456 .
Cd2 O9 C47 C44 175.8(3) 1_456 .
C43 C44 C47 O10 -2.7(5) . .
C45 C44 C47 O10 175.6(3) . .
C43 C44 C47 O9 177.8(3) . .
C45 C44 C47 O9 -3.9(5) . .
C36 C37 C48 C49 -42.4(4) . .
C38 C37 C48 C49 137.3(3) . .
C36 C37 C48 C53 137.5(3) . .
C38 C37 C48 C53 -42.8(4) . .
C53 C48 C49 C50 1.2(5) . .
C37 C48 C49 C50 -178.9(3) . .
C48 C49 C50 C51 -2.6(5) . .
C49 C50 C51 C52 1.6(5) . .
C49 C50 C51 C54 178.1(3) . .
C50 C51 C52 C53 0.9(5) . .
C54 C51 C52 C53 -175.6(3) . .
C51 C52 C53 C48 -2.4(5) . .
C49 C48 C53 C52 1.3(5) . .
C37 C48 C53 C52 -178.6(3) . .
Cd3 O12 C54 O11 -5.7(3) 2_645 .
Cd3 O12 C54 C51 173.0(3) 2_645 .
Cd3 O11 C54 O12 5.6(3) 2_645 .
Cd1 O11 C54 O12 -114.5(4) 3_666 .
Cd3 O11 C54 C51 -173.0(3) 2_645 .
Cd1 O11 C54 C51 66.9(4) 3_666 .
Cd1 O11 C54 Cd3 -120.1(3) 3_666 2_645
C50 C51 C54 O12 165.5(3) . .
C52 C51 C54 O12 -18.1(5) . .
C50 C51 C54 O11 -15.8(5) . .
C52 C51 C54 O11 160.6(3) . .
C56 N1 C55 N2 0.4(4) . .
Cd1 N1 C55 N2 166.9(2) . .
C57 N2 C55 N1 -0.7(4) . .
C55 N1 C56 C57 0.0(4) . .
Cd1 N1 C56 C57 -166.0(2) . .
N1 C56 C57 N2 -0.3(4) . .
N1 C56 C57 C58 178.4(4) . .
C55 N2 C57 C56 0.6(4) . .
C55 N2 C57 C58 -178.3(3) . .
C56 C57 C58 C63' 13(2) . .
N2 C57 C58 C63' -169(2) . .
C56 C57 C58 C59 175.1(4) . .
N2 C57 C58 C59 -6.3(6) . .
C56 C57 C58 C63 -16.0(10) . .
N2 C57 C58 C63 162.5(9) . .
C63' C58 C59 C60 -19.5(19) . .
C57 C58 C59 C60 176.6(4) . .
C63 C58 C59 C60 7.9(10) . .
C58 C59 C60 C61' 25(2) . .
C58 C59 C60 C61 -6.2(10) . .
C58 C59 C60 C64 -174.6(4) . .
C65 N4 C64 C66 -0.4(5) . .
Cd2 N4 C64 C66 -163.6(3) 1_456 .
C65 N4 C64 C60 -179.6(4) . .
Cd2 N4 C64 C60 17.2(6) 1_456 .
C61' C60 C64 C66 10(2) . .
C59 C60 C64 C66 -150.0(5) . .
C61 C60 C64 C66 42.0(12) . .
C61' C60 C64 N4 -171(2) . .
C59 C60 C64 N4 29.0(6) . .
C61 C60 C64 N4 -139.0(10) . .
C66 N3 C65 N4 -0.2(6) . .
C64 N4 C65 N3 0.4(5) . .
Cd2 N4 C65 N3 166.3(3) 1_456 .
C65 N3 C66 C64 -0.1(6) . .
N4 C64 C66 N3 0.3(6) . .
C60 C64 C66 N3 179.5(5) . .
C68 N5 C67 N6 0.0(5) . .
Cd3 N5 C67 N6 -176.7(2) . .
C69 N6 C67 N5 -0.5(5) . .
C67 N5 C68 C69 0.5(5) . .
Cd3 N5 C68 C69 177.3(3) . .
N5 C68 C69 N6 -0.8(5) . .
N5 C68 C69 C70 174.5(4) . .
C67 N6 C69 C68 0.7(4) . .
C67 N6 C69 C70 -175.1(4) . .
C68 C69 C70 C75 14.5(11) . .
N6 C69 C70 C75 -170.9(9) . .
C68 C69 C70 C71 -175.6(4) . .
N6 C69 C70 C71 -1.1(7) . .
C68 C69 C70 C75' -20.5(10) . .
N6 C69 C70 C75' 154.1(9) . .
C75 C70 C71 C72 -15.5(10) . .
C69 C70 C71 C72 174.0(4) . .
C75' C70 C71 C72 19.5(10) . .
C70 C71 C72 C73 17.7(10) . .
C70 C71 C72 C76 -173.5(4) . .
C70 C71 C72 C73' -17.0(11) . .
C78 N7 C76 C77 0.8(5) . .
Cd2 N7 C76 C77 -166.4(3) . .
C78 N7 C76 C72 179.1(4) . .
Cd2 N7 C76 C72 11.8(6) . .
C73 C72 C76 C77 11.4(11) . .
C71 C72 C76 C77 -156.9(5) . .
C73' C72 C76 C77 46.4(12) . .
C73 C72 C76 N7 -166.4(9) . .
C71 C72 C76 N7 25.2(6) . .
C73' C72 C76 N7 -131.4(11) . .
C78 N8 C77 C76 0.0(6) . .
N7 C76 C77 N8 -0.5(5) . .
C72 C76 C77 N8 -178.6(4) . .
C77 N8 C78 N7 0.6(6) . .
C76 N7 C78 N8 -0.9(5) . .
Cd2 N7 C78 N8 168.5(3) . .
C71 C72 C73 C74 -9.5(14) . .
C76 C72 C73 C74 -178.3(10) . .
C72 C73 C74 C75 0.4(19) . .
C71 C70 C75 C74 5.7(14) . .
C69 C70 C75 C74 176.2(10) . .
C73 C74 C75 C70 1.6(19) . .
C71 C72 C73' C74' 12.9(19) . .
C76 C72 C73' C74' 170.3(13) . .
C71 C70 C75' C74' -18.0(17) . .
C69 C70 C75' C74' -174.3(12) . .
C70 C75' C74' C73' 15(2) . .
C72 C73' C74' C75' -13(3) . .
C59 C60 C61 C62 6.3(14) . .
C64 C60 C61 C62 174.6(9) . .
C60 C61 C62 C63 -8.6(19) . .
C61 C62 C63 C58 9.9(19) . .
C59 C58 C63 C62 -9.4(14) . .
C57 C58 C63 C62 -178.4(10) . .
C59 C58 C63' C62' 10(3) . .
C57 C58 C63' C62' 173.1(16) . .
C58 C63' C62' C61' -5(4) . .
C59 C60 C61' C62' -19(3) . .
C64 C60 C61' C62' -179.4(16) . .
C63' C62' C61' C60 9(3) . .
