#------------------------------------------------------------------------------
#$Date: 2017-08-03 05:20:19 +0300 (Thu, 03 Aug 2017) $
#$Revision: 199484 $
#$URL: file:///home/coder/svn-repositories/cod/cif/7/04/38/7043897.cif $
#------------------------------------------------------------------------------
#
# This file is available in the Crystallography Open Database (COD),
# http://www.crystallography.net/
#
# All data on this site have been placed in the public domain by the
# contributors.
#
data_7043897
loop_
_publ_author_name
'Wang, Peng'
'Chen, Kai'
'Liu, Qing'
'Wang, Huai-Wei'
'Azam, Mohammad'
'Al-Resayes, Saud I'
'Lu, Yi'
'Sun, Wei-Yin'
_publ_section_title
;
 Fine tuning catalytic and sorption properties of metal-organic frameworks
 via in situ ligand exchange
;
_journal_name_full               'Dalton Trans.'
_journal_paper_doi               10.1039/C7DT02231J
_journal_year                    2017
_chemical_formula_moiety         'C92 H58 Cu6 N6 O26, 24(C3 H7 N O)'
_chemical_formula_sum            'C164 H226 Cu6 N30 O50'
_chemical_formula_weight         3798.97
_space_group_crystal_system      tetragonal
_space_group_IT_number           141
_space_group_name_Hall           '-I 4bd 2'
_space_group_name_H-M_alt        'I 41/a m d'
_symmetry_space_group_name_Hall  '-I 4bd 2'
_symmetry_space_group_name_H-M   'I 41/a m d :2'
_atom_sites_solution_hydrogens   mixed
_audit_creation_method           SHELXL-2014/7
_audit_update_record
;
2017-07-15 deposited with the CCDC.
2017-08-02 downloaded from the CCDC.
;
_cell_angle_alpha                90
_cell_angle_beta                 90
_cell_angle_gamma                90
_cell_formula_units_Z            4
_cell_length_a                   19.525(5)
_cell_length_b                   19.525
_cell_length_c                   60.38(2)
_cell_measurement_reflns_used    2653
_cell_measurement_temperature    293(2)
_cell_measurement_theta_max      27.51
_cell_measurement_theta_min      2.19
_cell_volume                     23018(10)
_computing_cell_refinement       'Bruker SMART'
_computing_data_collection       'Bruker SMART'
_computing_data_reduction        'Bruker SAINT'
_computing_molecular_graphics    'Bruker SHELXTL'
_computing_publication_material  'Bruker SHELXTL'
_computing_structure_refinement  'SHELXL-2014/7 (Sheldrick, 2014)'
_computing_structure_solution    'Bruker SHELXTL'
_diffrn_ambient_temperature      293(2)
_diffrn_measured_fraction_theta_full 0.999
_diffrn_measured_fraction_theta_max 0.999
_diffrn_measurement_device_type  'CCD area detector'
_diffrn_measurement_method       'phi and omega scans'
_diffrn_radiation_type           MoK\a
_diffrn_radiation_wavelength     0.71073
_diffrn_reflns_av_R_equivalents  0.2023
_diffrn_reflns_av_unetI/netI     0.0833
_diffrn_reflns_Laue_measured_fraction_full 0.999
_diffrn_reflns_Laue_measured_fraction_max 0.999
_diffrn_reflns_limit_h_max       17
_diffrn_reflns_limit_h_min       -23
_diffrn_reflns_limit_k_max       23
_diffrn_reflns_limit_k_min       -21
_diffrn_reflns_limit_l_max       71
_diffrn_reflns_limit_l_min       -69
_diffrn_reflns_number            59272
_diffrn_reflns_point_group_measured_fraction_full 0.999
_diffrn_reflns_point_group_measured_fraction_max 0.999
_diffrn_reflns_theta_full        25.048
_diffrn_reflns_theta_max         25.048
_diffrn_reflns_theta_min         1.096
_exptl_absorpt_coefficient_mu    0.614
_exptl_absorpt_correction_T_max  0.7456
_exptl_absorpt_correction_T_min  0.5711
_exptl_absorpt_correction_type   multi-scan
_exptl_absorpt_process_details   sadabs
_exptl_crystal_colour            light-green
_exptl_crystal_density_diffrn    1.096
_exptl_crystal_description       pillar
_exptl_crystal_F_000             7976
_exptl_crystal_size_max          0.400
_exptl_crystal_size_mid          0.400
_exptl_crystal_size_min          0.180
_refine_diff_density_max         0.642
_refine_diff_density_min         -0.481
_refine_diff_density_rms         0.067
_refine_ls_extinction_method     none
_refine_ls_goodness_of_fit_ref   1.006
_refine_ls_hydrogen_treatment    constr
_refine_ls_matrix_type           full
_refine_ls_number_parameters     180
_refine_ls_number_reflns         5434
_refine_ls_number_restraints     33
_refine_ls_restrained_S_all      1.015
_refine_ls_R_factor_all          0.0983
_refine_ls_R_factor_gt           0.0561
_refine_ls_shift/su_max          0.002
_refine_ls_shift/su_mean         0.000
_refine_ls_structure_factor_coef Fsqd
_refine_ls_weighting_details
'w=1/[\s^2^(Fo^2^)+(0.0794P)^2^] where P=(Fo^2^+2Fc^2^)/3'
_refine_ls_weighting_scheme      calc
_refine_ls_wR_factor_gt          0.1542
_refine_ls_wR_factor_ref         0.1613
_reflns_Friedel_coverage         0.000
_reflns_number_gt                3041
_reflns_number_total             5434
_reflns_threshold_expression     'I > 2\s(I)'
_cod_data_source_file            c7dt02231j2.cif
_cod_data_source_block           swy6
_cod_original_cell_volume        23018(14)
_cod_database_code               7043897
_shelx_shelxl_version_number     2014/7
_shelx_space_group_comment
;
The symmetry employed for this shelxl refinement is uniquely defined
by the following loop, which should always be used as a source of
symmetry information in preference to the above space-group names.
They are only intended as comments.
;
_shelx_estimated_absorpt_t_min   0.791
_shelx_estimated_absorpt_t_max   0.898
_shelx_res_file
;

    swy6.res created by SHELXL-2014/7


TITL                                  wpp12 in I4(1)/amd
CELL   0.71073     19.525   19.525   60.38   90.000   90.000   90.000
ZERR        4      0.005    0.000    0.02    0.000    0.000    0.000
LATT 2
SYMM -X, 0.50000-Y,Z
SYMM X,-Y,-Z
SYMM -X, 0.50000+Y,-Z
SYMM  0.25000-Y, 0.25000-X, 0.75000-Z
SYMM  0.25000+Y, 0.75000+X, 0.25000-Z
SYMM  0.25000+Y, 0.25000-X, 0.75000+Z
SYMM  0.25000-Y, 0.75000+X, 0.25000+Z
SFAC C  H  N  O  Cu
UNIT 656  904  120  200  24
LIST 6 ! automatically inserted. Change 6 to 4 for CHECKCIF!!
MERG 2
L.S. 4
ACTA
omit 0 50.1
list 4
FMAP 2
PLAN 25
size .4 .4 .18
dang 2.28 N1 N2A N1 N2c
FREE C13C N2C
FREE C13B N2B
FREE H13C N2C
FREE H13B N2B
DFIX 1.35 C13C N2C
abin
FLAT 0.1 CU1 N1 C13C N2C
DELU 0.01 C13C N2C
SIMU 0.01 C13C N2C
ISOR 0.01 C13C N2C C13B N2B
WGHT    0.079400
FVAR       0.02874
CU1   5    0.682942    0.750000    0.752717    10.50000    0.02629    0.04550 =
         0.03360    0.00000   -0.00150    0.00000
CU2   5    0.500000    0.250000    0.603315    10.25000    0.03985    0.03858 =
         0.02805    0.00000    0.00000    0.00000
O1    4    0.800085    0.680917    0.724553    11.00000    0.03979    0.06805 =
         0.05232   -0.01609    0.00369   -0.00670
O2    4    0.687547    0.680054    0.729421    11.00000    0.04544    0.06696 =
         0.05349   -0.01849    0.00098   -0.00615
O3    4    0.570528    0.320153    0.606527    11.00000    0.06166    0.05585 =
         0.03762   -0.00483    0.00543   -0.01521
O4    4    0.500000    0.250000    0.567134    10.25000    0.15935    0.11566 =
         0.04414    0.00000    0.00000    0.00000
AFIX   3
H4A   2    0.467210    0.217233    0.561834    10.25000   -1.50000
H4B   2    0.488018    0.294780    0.561834    10.25000   -1.50000
AFIX   0
N1    3    0.571409    0.750000    0.754722    10.50000    0.03562    0.04902 =
         0.05847    0.00000    0.00289    0.00000
C1    1    0.741296    0.661629    0.719678    11.00000    0.04943    0.05118 =
         0.04001   -0.00221    0.00650   -0.00031
C2    1    0.732961    0.614222    0.700483    11.00000    0.05178    0.06585 =
         0.04440   -0.02107    0.00769   -0.01169
C3    1    0.668566    0.591632    0.694311    11.00000    0.05624    0.08819 =
         0.05668   -0.03445    0.01801   -0.01534
AFIX  43
H3A   2    0.630437    0.605134    0.702444    11.00000   -1.20000
AFIX   0
C4    1    0.788196    0.593720    0.688224    11.00000    0.04860    0.09225 =
         0.06964   -0.03252    0.01612   -0.01860
AFIX  43
H4    2    0.831960    0.608235    0.692088    11.00000   -1.20000
AFIX   0
C5    1    0.660318    0.549169    0.676167    11.00000    0.05946    0.10192 =
         0.06783   -0.03934    0.01116   -0.03442
AFIX  43
H5    2    0.616642    0.534329    0.672329    11.00000   -1.20000
AFIX   0
C6    1    0.779019    0.551396    0.670076    11.00000    0.05767    0.09960 =
         0.07608   -0.04903    0.02899   -0.01783
AFIX  43
H6    2    0.817156    0.538019    0.661925    11.00000   -1.20000
AFIX   0
C7    1    0.715534    0.528492    0.663699    11.00000    0.05622    0.07020 =
         0.05126   -0.02693    0.01810   -0.02888
C8    1    0.705718    0.485798    0.644073    11.00000    0.05969    0.06976 =
         0.04963   -0.01881    0.01270   -0.02273
C9    1    0.745423    0.495423    0.625000    10.50000    0.07399    0.07399 =
         0.06072   -0.01922    0.01922   -0.03786
AFIX  43
H9    2    0.779105    0.529102    0.625000    10.50000   -1.20000
AFIX   0
C10   1    0.656186    0.433489    0.643764    11.00000    0.06199    0.06347 =
         0.04743   -0.01315    0.01900   -0.01892
AFIX  43
H10   2    0.630488    0.424642    0.656413    11.00000   -1.20000
AFIX   0
C11   1    0.645404    0.395404    0.625000    10.50000    0.05220    0.05220 =
         0.04677   -0.01188    0.01188   -0.01936
C12   1    0.590798    0.340798    0.625000    10.50000    0.04520    0.04520 =
         0.04566   -0.01083    0.01083   -0.00149
PART 1
C13A  1    0.535359    0.750000    0.735576    10.25000    0.01692    0.12493 =
         0.03065    0.00000    0.00216    0.00000
AFIX  43
H13A  2    0.558695    0.750000    0.722149    10.25000   -1.20000
AFIX   0
C13B  1    0.535775    0.750000    0.773903    10.25000    0.04099    0.07476 =
         0.03677    0.00000    0.00713    0.00000
part 4
AFIX   3
H13B  2    0.558879    0.750000    0.787372    10.12500   -1.20000
AFIX   0
part 5
N2B   3    0.566798    0.750000    0.794188    10.12500    0.10493    0.18283 =
         0.08982    0.00000   -0.01652    0.00000
AFIX   3
H2B1  2    0.610843    0.750000    0.794248    10.12500   -1.20000
H2B2  2    0.544615    0.750000    0.806492    10.12500   -1.20000
PART 2
AFIX   0
C13C  1    0.539690    0.696656    0.756709    10.50000    0.08598    0.11604 =
         0.17805    0.02084    0.00166    0.03058
AFIX  43
H13C  2    0.563300    0.655560    0.758241    10.37500   -1.20000
AFIX   0
part 3
N2C   3    0.559420    0.625395    0.758564    10.12500    0.09158    0.13318 =
         0.18162    0.01827    0.00286    0.03412
AFIX   3
H2C1  2    0.606795    0.620283    0.757224    10.12500   -1.20000
H2C2  2    0.533796    0.588422    0.758974    10.12500   -1.20000
PART
AFIX   0
HKLF      4

REM                                   wpp12 in I4(1)/amd
REM R1 =  0.0561 for    3041 Fo > 4sig(Fo)  and  0.0983 for all    5434 data
REM    180 parameters refined using     33 restraints

END

WGHT      0.0977      0.0000

REM Highest difference peak  0.642,  deepest hole -0.481,  1-sigma level  0.067
Q1    1   0.5000  0.5570  0.7578  10.50000  0.05    0.64
Q2    1   0.5000  0.2500  0.6162  10.25000  0.05    0.56
Q3    1   0.4299  0.2500  0.5565  10.50000  0.05    0.44
Q4    1   0.6822  0.7500  0.7411  10.50000  0.05    0.38
Q5    1   0.5323  0.2823  0.6250  10.50000  0.05    0.33
Q6    1   0.5000  0.1785  0.5913  10.50000  0.05    0.32
Q7    1   0.5000  0.3095  0.5557  10.50000  0.05    0.28
Q8    1   0.5000  0.2500  0.5954  10.25000  0.05    0.27
Q9    1   0.5646  0.7500  0.8158  10.50000  0.05    0.27
Q10   1   0.5000  0.2342  0.6008  10.50000  0.05    0.26
Q11   1   0.5000  0.3482  0.5604  10.50000  0.05    0.24
Q12   1   0.5000  0.1858  0.6158  10.50000  0.05    0.24
Q13   1   0.6891  0.4355  0.6467  11.00000  0.05    0.23
Q14   1   0.8027  0.5313  0.6715  11.00000  0.05    0.23
Q15   1   0.8054  0.6758  0.7356  11.00000  0.05    0.21
Q16   1   0.5471  0.7184  0.8112  11.00000  0.05    0.21
Q17   1   0.5321  0.7004  0.7444  11.00000  0.05    0.20
Q18   1   0.6989  0.4936  0.6378  11.00000  0.05    0.20
Q19   1   0.7699  0.5633  0.6201  11.00000  0.05    0.19
Q20   1   0.7164  0.6035  0.7062  11.00000  0.05    0.19
Q21   1   0.5563  0.3023  0.6028  11.00000  0.05    0.19
Q22   1   0.5620  0.7120  0.7911  11.00000  0.05    0.19
Q23   1   0.7308  0.4827  0.6432  11.00000  0.05    0.18
Q24   1   0.6023  0.3702  0.6248  11.00000  0.05    0.18
Q25   1   0.6826  0.7500  0.7649  10.50000  0.05    0.18
;
_shelx_res_checksum              18516
_shelx_fab_file
;
    0    2    0   -264.25      0.00
    2    2    0    549.49      0.00
    0    4    0    471.21      0.00
    2    4    0    -89.05      0.00
    4    4    0     81.29      0.00
    0    6    0   -128.81      0.00
    2    6    0     79.21      0.00
    4    6    0    -35.82      0.00
    6    6    0     -0.78      0.00
    0    8    0     91.95      0.00
    2    8    0    -30.57      0.00
    4    8    0      0.46      0.00
    6    8    0      8.53      0.00
    8    8    0     -2.32      0.00
    0   10    0    -35.84      0.00
    2   10    0     19.00      0.00
    4   10    0      5.80      0.00
    6   10    0     -2.19      0.00
    8   10    0      2.51      0.00
   10   10    0     -1.91      0.00
    0   12    0     20.22      0.00
    2   12    0    -11.63      0.00
    4   12    0      0.81      0.00
    6   12    0     -1.04      0.00
    8   12    0     -2.14      0.00
   10   12    0     -3.46      0.00
   12   12    0      8.22      0.00
    0   14    0    -15.22      0.00
    2   14    0      4.78      0.00
    4   14    0    -10.11      0.00
    6   14    0     -4.07      0.00
    8   14    0     -6.94      0.00
   10   14    0      9.69      0.00
   12   14    0     -2.72      0.00
   14   14    0     -3.37      0.00
    0   16    0     18.16      0.00
    2   16    0      7.12      0.00
    4   16    0      0.84      0.00
    6   16    0     11.76      0.00
    8   16    0     -4.65      0.00
   10   16    0     -8.74      0.00
   12   16    0     -6.48      0.00
   14   16    0     -6.89      0.00
   16   16    0      4.55      0.00
    0   18    0     11.77      0.00
    2   18    0    -13.01      0.00
    4   18    0      7.23      0.00
    6   18    0     -5.68      0.00
    8   18    0     -4.31      0.00
   10   18    0      7.02      0.00
   12   18    0    -11.96      0.00
   14   18    0     17.29      0.00
    0   20    0     -4.27      0.00
    2   20    0    -14.32      0.00
    4   20    0     -6.22      0.00
    6   20    0     18.60      0.00
    8   20    0      6.14      0.00
   10   20    0     -5.06      0.00
   12   20    0     12.00      0.00
    0   22    0      0.72      0.00
    2   22    0     31.27      0.00
    4   22    0      5.82      0.00
    6   22    0     17.07      0.00
    8   22    0      6.06      0.00
    0    1    1    201.23      0.00
    1    2    1    166.74      0.00
    0    3    1    140.40      0.00
    2    3    1    -76.15      0.00
    1    4    1    -21.00      0.00
    3    4    1     28.12      0.00
    0    5    1     11.65      0.00
    2    5    1    -14.62      0.00
    4    5    1     -0.96      0.00
    1    6    1     24.27      0.00
    3    6    1    -31.35      0.00
    5    6    1     13.03      0.00
    0    7    1    -34.37      0.00
    2    7    1    -25.22      0.00
    4    7    1    -19.71      0.00
    6    7    1     -3.26      0.00
    1    8    1     -8.22      0.00
    3    8    1     11.48      0.00
    5    8    1     -4.84      0.00
    7    8    1      4.22      0.00
    0    9    1     -0.96      0.00
    2    9    1    -17.40      0.00
    4    9    1     -3.20      0.00
    6    9    1     -2.01      0.00
    8    9    1     -1.61      0.00
    1   10    1     -8.51      0.00
    3   10    1     -2.52      0.00
    5   10    1      7.59      0.00
    7   10    1     -3.67      0.00
    9   10    1     -5.58      0.00
    0   11    1     -5.77      0.00
    2   11    1     -4.02      0.00
    4   11    1     -6.52      0.00
    6   11    1      6.08      0.00
    8   11    1      0.30      0.00
   10   11    1     -7.03      0.00
    1   12    1     -5.89      0.00
    3   12    1      1.19      0.00
    5   12    1     -6.57      0.00
    7   12    1      9.32      0.00
    9   12    1      0.30      0.00
   11   12    1      0.54      0.00
    0   13    1      4.12      0.00
    2   13    1    -14.23      0.00
    4   13    1     -1.86      0.00
    6   13    1      2.17      0.00
    8   13    1     -7.75      0.00
   10   13    1     -2.21      0.00
   12   13    1      4.24      0.00
    1   14    1     -4.22      0.00
    3   14    1     -3.64      0.00
    5   14    1      7.48      0.00
    7   14    1     -3.82      0.00
    9   14    1     -3.85      0.00
   11   14    1      1.76      0.00
   13   14    1      0.79      0.00
    0   15    1     -4.76      0.00
    2   15    1      0.66      0.00
    4   15    1      3.23      0.00
    6   15    1      1.76      0.00
    8   15    1      4.70      0.00
   10   15    1     -4.39      0.00
   12   15    1     -4.51      0.00
   14   15    1     -0.91      0.00
    1   16    1     10.43      0.00
    3   16    1      3.82      0.00
    5   16    1     -8.61      0.00
    7   16    1      5.61      0.00
    9   16    1      7.17      0.00
   11   16    1      8.60      0.00
   13   16    1     16.04      0.00
   15   16    1     -0.46      0.00
    0   17    1      6.18      0.00
    2   17    1     -6.39      0.00
    4   17    1    -11.87      0.00
    6   17    1      9.16      0.00
    8   17    1      4.95      0.00
   10   17    1      1.14      0.00
   12   17    1     -6.58      0.00
   14   17    1      2.08      0.00
   16   17    1      6.84      0.00
    1   18    1     -1.94      0.00
    3   18    1     -7.53      0.00
    5   18    1      8.39      0.00
    7   18    1      6.31      0.00
    9   18    1     -0.80      0.00
   11   18    1      4.32      0.00
   13   18    1     -4.30      0.00
   15   18    1     21.97      0.00
    0   19    1     11.53      0.00
    2   19    1      2.40      0.00
    4   19    1     11.73      0.00
    6   19    1      8.97      0.00
    8   19    1     -3.02      0.00
   10   19    1     -5.77      0.00
   12   19    1     -1.05      0.00
   14   19    1      5.93      0.00
    1   20    1      0.76      0.00
    3   20    1     -6.86      0.00
    5   20    1      0.57      0.00
    7   20    1      2.26      0.00
    9   20    1     -2.77      0.00
   11   20    1     -3.25      0.00
    0   21    1     -6.37      0.00
    2   21    1     -6.54      0.00
    4   21    1      1.42      0.00
    6   21    1      8.98      0.00
    8   21    1      4.62      0.00
   10   21    1      4.64      0.00
    1   22    1      7.78      0.00
    3   22    1      6.04      0.00
    5   22    1      7.27      0.00
    7   22    1     17.69      0.00
    9   22    1     -4.30      0.00
    0   23    1     -1.50      0.00
    2   23    1     -4.20      0.00
    4   23    1    -18.76      0.00
    6   23    1    -18.54      0.00
    1    1    2   -221.70      0.00
    0    2    2   -190.67      0.00
    1    3    2    -35.33      0.00
    3    3    2     49.71      0.00
    0    4    2     46.99      0.00
    2    4    2   -107.15      0.00
    1    5    2    -16.04      0.00
    3    5    2    -36.44      0.00
    5    5    2     -3.57      0.00
    0    6    2    -92.67      0.00
    2    6    2      7.46      0.00
    4    6    2     -3.86      0.00
    1    7    2      1.97      0.00
    3    7    2     -5.99      0.00
    5    7    2    -26.92      0.00
    7    7    2    -18.33      0.00
    0    8    2     16.87      0.00
    2    8    2    -17.72      0.00
    4    8    2      8.21      0.00
    6    8    2      4.90      0.00
    1    9    2    -10.34      0.00
    3    9    2     -7.36      0.00
    5    9    2     -3.27      0.00
    7    9    2     -1.29      0.00
    9    9    2     -6.89      0.00
    0   10    2    -50.34      0.00
    2   10    2      6.89      0.00
    4   10    2      0.02      0.00
    6   10    2     -2.92      0.00
    8   10    2      0.22      0.00
    1   11    2      1.59      0.00
    3   11    2     -1.57      0.00
    5   11    2     -2.34      0.00
    7   11    2     -4.70      0.00
    9   11    2      5.36      0.00
   11   11    2     -1.84      0.00
    0   12    2      9.70      0.00
    2   12    2     -7.42      0.00
    4   12    2     -9.51      0.00
    6   12    2      2.55      0.00
    8   12    2      5.47      0.00
   10   12    2    -13.81      0.00
    1   13    2     -2.12      0.00
    3   13    2     -0.98      0.00
    5   13    2      0.08      0.00
    7   13    2      4.04      0.00
    9   13    2    -10.87      0.00
   11   13    2     -2.46      0.00
   13   13    2    -10.40      0.00
    0   14    2     -8.28      0.00
    2   14    2      1.38      0.00
    4   14    2      1.05      0.00
    6   14    2     -5.60      0.00
    8   14    2     -3.82      0.00
   10   14    2     -1.27      0.00
   12   14    2      1.66      0.00
    1   15    2      3.05      0.00
    3   15    2      0.96      0.00
    5   15    2      4.03      0.00
    7   15    2      1.56      0.00
    9   15    2      7.08      0.00
   11   15    2      1.71      0.00
   13   15    2      5.76      0.00
   15   15    2     -1.26      0.00
    0   16    2      6.82      0.00
    2   16    2      3.48      0.00
    4   16    2     -2.20      0.00
    6   16    2      7.14      0.00
    8   16    2      1.16      0.00
   10   16    2     -5.56      0.00
   12   16    2      6.19      0.00
   14   16    2      4.86      0.00
    1   17    2    -12.06      0.00
    3   17    2      1.13      0.00
    5   17    2     -7.55      0.00
    7   17    2      2.11      0.00
    9   17    2      4.65      0.00
   11   17    2      1.01      0.00
   13   17    2    -17.23      0.00
   15   17    2     -7.04      0.00
    0   18    2      5.43      0.00
    2   18    2     -7.29      0.00
    4   18    2     -8.85      0.00
    6   18    2     -4.08      0.00
    8   18    2     -1.46      0.00
   10   18    2      1.31      0.00
   12   18    2    -11.72      0.00
   14   18    2      9.17      0.00
    1   19    2     -4.73      0.00
    3   19    2     -0.13      0.00
    5   19    2      2.35      0.00
    7   19    2      1.11      0.00
    9   19    2     -0.20      0.00
   11   19    2     -9.81      0.00
   13   19    2     -0.33      0.00
    0   20    2      8.30      0.00
    2   20    2     16.37      0.00
    4   20    2      8.23      0.00
    6   20    2     10.65      0.00
    8   20    2    -24.52      0.00
   10   20    2    -21.71      0.00
   12   20    2      5.28      0.00
    1   21    2      5.34      0.00
    3   21    2     -7.25      0.00
    5   21    2      5.47      0.00
    7   21    2     -2.46      0.00
    9   21    2    -20.45      0.00
   11   21    2      9.24      0.00
    0   22    2    -10.98      0.00
    2   22    2     -9.59      0.00
    4   22    2     -8.76      0.00
    6   22    2     -5.68      0.00
    8   22    2     -6.33      0.00
    1   23    2    -17.68      0.00
    3   23    2     -0.29      0.00
    5   23    2     -6.07      0.00
    0    1    3   -518.89      0.00
    1    2    3     85.63      0.00
    0    3    3   -145.52      0.00
    2    3    3     18.91      0.00
    1    4    3    -10.37      0.00
    3    4    3     -9.18      0.00
    0    5    3      7.99      0.00
    2    5    3     17.13      0.00
    4    5    3      1.96      0.00
    1    6    3     17.96      0.00
    3    6    3     -4.50      0.00
    5    6    3      6.09      0.00
    0    7    3    -14.78      0.00
    2    7    3     47.97      0.00
    4    7    3     10.58      0.00
    6    7    3     15.29      0.00
    1    8    3     -0.39      0.00
    3    8    3      1.73      0.00
    5    8    3     -4.18      0.00
    7    8    3     10.92      0.00
    0    9    3     41.39      0.00
    2    9    3     -7.13      0.00
    4    9    3      9.93      0.00
    6    9    3    -13.45      0.00
    8    9    3     -0.23      0.00
    1   10    3     -0.45      0.00
    3   10    3     -1.42      0.00
    5   10    3      3.48      0.00
    7   10    3     -3.51      0.00
    9   10    3      0.51      0.00
    0   11    3    -22.37      0.00
    2   11    3     17.12      0.00
    4   11    3      0.03      0.00
    6   11    3     -0.13      0.00
    8   11    3      4.12      0.00
   10   11    3      0.71      0.00
    1   12    3      4.02      0.00
    3   12    3     -1.50      0.00
    5   12    3     -1.00      0.00
    7   12    3      1.40      0.00
    9   12    3     -3.90      0.00
   11   12    3     -2.22      0.00
    0   13    3     17.05      0.00
    2   13    3     -4.01      0.00
    4   13    3     -1.06      0.00
    6   13    3      0.97      0.00
    8   13    3     -1.05      0.00
   10   13    3      2.84      0.00
   12   13    3      2.19      0.00
    1   14    3      1.92      0.00
    3   14    3      0.30      0.00
    5   14    3     -1.96      0.00
    7   14    3      3.60      0.00
    9   14    3     -4.27      0.00
   11   14    3      1.10      0.00
   13   14    3      2.10      0.00
    0   15    3     -7.51      0.00
    2   15    3     11.79      0.00
    4   15    3      6.00      0.00
    6   15    3     -3.16      0.00
    8   15    3      1.94      0.00
   10   15    3     -0.66      0.00
   12   15    3     -2.17      0.00
   14   15    3     -1.77      0.00
    1   16    3      1.39      0.00
    3   16    3     -1.61      0.00
    5   16    3     -1.97      0.00
    7   16    3     -0.62      0.00
    9   16    3     -1.82      0.00
   11   16    3     -9.30      0.00
   13   16    3     -8.29      0.00
   15   16    3     -2.83      0.00
    0   17    3     14.35      0.00
    2   17    3     -3.33      0.00
    4   17    3      3.60      0.00
    6   17    3     10.44      0.00
    8   17    3      3.76      0.00
   10   17    3      0.63      0.00
   12   17    3     -2.01      0.00
   14   17    3     -1.65      0.00
   16   17    3     -5.12      0.00
    1   18    3     13.36      0.00
    3   18    3      0.41      0.00
    5   18    3      5.68      0.00
    7   18    3      1.32      0.00
    9   18    3     -3.29      0.00
   11   18    3     -8.82      0.00
   13   18    3      4.35      0.00
   15   18    3      3.13      0.00
    0   19    3      7.41      0.00
    2   19    3     -9.12      0.00
    4   19    3     -3.30      0.00
    6   19    3     -2.42      0.00
    8   19    3      5.23      0.00
   10   19    3     -3.77      0.00
   12   19    3      3.05      0.00
   14   19    3     -4.51      0.00
    1   20    3    -12.09      0.00
    3   20    3      9.21      0.00
    5   20    3      4.78      0.00
    7   20    3     11.68      0.00
    9   20    3     -0.80      0.00
   11   20    3      9.17      0.00
    0   21    3     -6.10      0.00
    2   21    3     21.31      0.00
    4   21    3     -6.61      0.00
    6   21    3     -0.21      0.00
    8   21    3    -11.68      0.00
   10   21    3      7.96      0.00
    1   22    3     -7.18      0.00
    3   22    3     -0.50      0.00
    5   22    3    -14.90      0.00
    7   22    3     -9.03      0.00
    9   22    3    -13.25      0.00
    0   23    3     -4.35      0.00
    2   23    3    -14.25      0.00
    4   23    3      1.82      0.00
    6   23    3    -25.02      0.00
    0    0    4     67.52      0.00
    0    2    4    394.99      0.00
    2    2    4   -233.56      0.00
    1    3    4    -16.78      0.00
    0    4    4     38.35      0.00
    2    4    4    115.83      0.00
    4    4    4     -2.58      0.00
    1    5    4      6.77      0.00
    3    5    4    -16.29      0.00
    0    6    4     85.23      0.00
    2    6    4      5.51      0.00
    4    6    4     -0.09      0.00
    6    6    4     -0.41      0.00
    1    7    4    -11.62      0.00
    3    7    4     11.72      0.00
    5    7    4      7.46      0.00
    0    8    4     10.81      0.00
    2    8    4      6.59      0.00
    4    8    4     -1.35      0.00
    6    8    4      0.16      0.00
    8    8    4     -8.47      0.00
    1    9    4      4.48      0.00
    3    9    4     -5.69      0.00
    5    9    4      1.50      0.00
    7    9    4      4.36      0.00
    0   10    4      2.86      0.00
    2   10    4      1.41      0.00
    4   10    4     -1.48      0.00
    6   10    4      3.14      0.00
    8   10    4     -2.52      0.00
   10   10    4      0.44      0.00
    1   11    4     -7.22      0.00
    3   11    4      5.51      0.00
    5   11    4      2.29      0.00
    7   11    4      2.39      0.00
    9   11    4     -0.23      0.00
    0   12    4     -2.81      0.00
    2   12    4     -1.65      0.00
    4   12    4      7.05      0.00
    6   12    4      5.80      0.00
    8   12    4     -0.62      0.00
   10   12    4      0.15      0.00
   12   12    4      5.04      0.00
    1   13    4      4.17      0.00
    3   13    4    -15.49      0.00
    5   13    4     11.72      0.00
    7   13    4      3.49      0.00
    9   13    4     -7.82      0.00
   11   13    4      2.18      0.00
    0   14    4      2.12      0.00
    2   14    4     -1.25      0.00
    4   14    4     10.04      0.00
    6   14    4     -0.06      0.00
    8   14    4      0.11      0.00
   10   14    4      3.98      0.00
   12   14    4      0.93      0.00
   14   14    4     -0.24      0.00
    1   15    4      5.31      0.00
    3   15    4     -7.69      0.00
    5   15    4    -10.53      0.00
    7   15    4    -13.02      0.00
    9   15    4     13.56      0.00
   11   15    4     -1.70      0.00
   13   15    4      5.56      0.00
    0   16    4     -0.63      0.00
    2   16    4      5.45      0.00
    4   16    4    -11.39      0.00
    6   16    4     -2.03      0.00
    8   16    4     -0.95      0.00
   10   16    4     10.08      0.00
   12   16    4      9.31      0.00
   14   16    4      4.67      0.00
   16   16    4      0.29      0.00
    1   17    4     20.67      0.00
    3   17    4    -10.36      0.00
    5   17    4     -7.69      0.00
    7   17    4     12.80      0.00
    9   17    4    -21.81      0.00
   11   17    4     -0.41      0.00
   13   17    4     11.93      0.00
   15   17    4      4.38      0.00
    0   18    4     17.53      0.00
    2   18    4     -2.15      0.00
    4   18    4      7.28      0.00
    6   18    4      5.20      0.00
    8   18    4     -8.02      0.00
   10   18    4      8.80      0.00
   12   18    4      2.21      0.00
   14   18    4     13.77      0.00
    1   19    4     16.39      0.00
    3   19    4    -11.13      0.00
    5   19    4     -0.24      0.00
    7   19    4     -4.53      0.00
    9   19    4      9.83      0.00
   11   19    4     -1.40      0.00
   13   19    4     -0.09      0.00
    0   20    4     10.53      0.00
    2   20    4    -12.32      0.00
    4   20    4    -13.15      0.00
    6   20    4      4.62      0.00
    8   20    4     -3.04      0.00
   10   20    4     -4.09      0.00
   12   20    4     18.76      0.00
    1   21    4    -17.47      0.00
    3   21    4    -13.74      0.00
    5   21    4     -9.16      0.00
    7   21    4    -16.58      0.00
    9   21    4    -11.20      0.00
   11   21    4     -3.39      0.00
    0   22    4     -6.31      0.00
    2   22    4     17.83      0.00
    4   22    4    -17.08      0.00
    6   22    4    -12.23      0.00
    8   22    4     13.91      0.00
    1   23    4    -18.25      0.00
    3   23    4      7.19      0.00
    5   23    4    -16.85      0.00
    0    1    5    279.43      0.00
    1    2    5    -80.82      0.00
    0    3    5    -26.12      0.00
    2    3    5     -4.43      0.00
    1    4    5     73.44      0.00
    3    4    5    -49.03      0.00
    0    5    5     55.94      0.00
    2    5    5    -36.14      0.00
    4    5    5     -6.73      0.00
    1    6    5    -34.49      0.00
    3    6    5      2.60      0.00
    5    6    5     -5.37      0.00
    0    7    5      0.09      0.00
    2    7    5      7.28      0.00
    4    7    5    -17.42      0.00
    6    7    5      0.08      0.00
    1    8    5      4.48      0.00
    3    8    5     -4.08      0.00
    5    8    5      8.52      0.00
    7    8    5     -9.91      0.00
    0    9    5     12.77      0.00
    2    9    5    -17.97      0.00
    4    9    5      3.60      0.00
    6    9    5      1.78      0.00
    8    9    5      1.29      0.00
    1   10    5     -7.77      0.00
    3   10    5      1.19      0.00
    5   10    5     -1.07      0.00
    7   10    5      2.58      0.00
    9   10    5     -9.07      0.00
    0   11    5    -16.39      0.00
    2   11    5      0.82      0.00
    4   11    5     -0.52      0.00
    6   11    5      7.54      0.00
    8   11    5     10.85      0.00
   10   11    5     -2.78      0.00
    1   12    5     -1.64      0.00
    3   12    5      2.63      0.00
    5   12    5     -0.09      0.00
    7   12    5     -0.77      0.00
    9   12    5     -2.44      0.00
   11   12    5      3.30      0.00
    0   13    5      8.22      0.00
    2   13    5    -19.93      0.00
    4   13    5     -3.14      0.00
    6   13    5      7.59      0.00
    8   13    5     -1.38      0.00
   10   13    5      4.10      0.00
   12   13    5     -6.70      0.00
    1   14    5     -1.39      0.00
    3   14    5      3.29      0.00
    5   14    5      2.53      0.00
    7   14    5     -5.77      0.00
    9   14    5      3.63      0.00
   11   14    5     -0.60      0.00
   13   14    5     -3.46      0.00
    0   15    5    -11.27      0.00
    2   15    5    -11.20      0.00
    4   15    5    -10.80      0.00
    6   15    5      5.15      0.00
    8   15    5      3.01      0.00
   10   15    5     -4.29      0.00
   12   15    5     -3.87      0.00
   14   15    5     -6.13      0.00
    1   16    5     -2.33      0.00
    3   16    5     -2.05      0.00
    5   16    5      1.86      0.00
    7   16    5      4.70      0.00
    9   16    5     -7.01      0.00
   11   16    5     -6.52      0.00
   13   16    5     -4.62      0.00
   15   16    5      1.45      0.00
    0   17    5      8.78      0.00
    2   17    5     -4.58      0.00
    4   17    5    -12.14      0.00
    6   17    5     -8.70      0.00
    8   17    5     -5.09      0.00
   10   17    5     -3.59      0.00
   12   17    5      1.91      0.00
   14   17    5    -10.70      0.00
   16   17    5     -5.17      0.00
    1   18    5      1.38      0.00
    3   18    5    -14.00      0.00
    5   18    5     -7.68      0.00
    7   18    5    -17.39      0.00
    9   18    5    -11.12      0.00
   11   18    5     -5.52      0.00
   13   18    5      3.63      0.00
   15   18    5      0.54      0.00
    0   19    5     -9.12      0.00
    2   19    5      4.07      0.00
    4   19    5      7.59      0.00
    6   19    5     -2.24      0.00
    8   19    5     -3.04      0.00
   10   19    5      0.31      0.00
   12   19    5      2.98      0.00
   14   19    5      7.19      0.00
    1   20    5     29.73      0.00
    3   20    5      7.32      0.00
    5   20    5    -19.27      0.00
    7   20    5    -11.97      0.00
    9   20    5    -27.63      0.00
   11   20    5     -4.02      0.00
    0   21    5      2.41      0.00
    2   21    5    -37.17      0.00
    4   21    5    -13.96      0.00
    6   21    5      0.50      0.00
    8   21    5     -0.63      0.00
   10   21    5      8.41      0.00
    1   22    5    -14.72      0.00
    3   22    5     -1.07      0.00
    5   22    5     -9.27      0.00
    7   22    5     -3.62      0.00
    0   23    5     -8.22      0.00
    2   23    5     27.84      0.00
    4   23    5     17.81      0.00
    1    1    6    118.35      0.00
    0    2    6   -198.66      0.00
    1    3    6     98.00      0.00
    3    3    6    232.41      0.00
    0    4    6   -151.20      0.00
    2    4    6   -121.78      0.00
    1    5    6     71.28      0.00
    3    5    6      9.91      0.00
    5    5    6     26.91      0.00
    0    6    6    -45.03      0.00
    2    6    6     -5.26      0.00
    4    6    6    -12.87      0.00
    1    7    6      7.26      0.00
    3    7    6     22.15      0.00
    5    7    6     -5.95      0.00
    7    7    6      6.89      0.00
    0    8    6    -25.71      0.00
    2    8    6    -17.21      0.00
    4    8    6     -2.85      0.00
    6    8    6     -8.58      0.00
    1    9    6     13.47      0.00
    3    9    6     -2.05      0.00
    5    9    6      1.25      0.00
    7    9    6      3.74      0.00
    9    9    6      6.13      0.00
    0   10    6     -3.75      0.00
    2   10    6     -3.05      0.00
    4   10    6     -3.47      0.00
    6   10    6      2.82      0.00
    8   10    6     -3.42      0.00
    1   11    6      0.79      0.00
    3   11    6      4.98      0.00
    5   11    6      3.51      0.00
    7   11    6      3.37      0.00
    9   11    6     -0.22      0.00
   11   11    6      0.48      0.00
    0   12    6    -15.33      0.00
    2   12    6      6.94      0.00
    4   12    6      2.92      0.00
    6   12    6     -5.14      0.00
    8   12    6      4.13      0.00
   10   12    6      2.26      0.00
    1   13    6     -0.86      0.00
    3   13    6      4.27      0.00
    5   13    6     -0.83      0.00
    7   13    6      5.62      0.00
    9   13    6     -6.38      0.00
   11   13    6     -2.97      0.00
   13   13    6      0.28      0.00
    0   14    6      1.25      0.00
    2   14    6     -6.95      0.00
    4   14    6     -4.24      0.00
    6   14    6      2.36      0.00
    8   14    6     -1.14      0.00
   10   14    6     -0.07      0.00
   12   14    6     -2.61      0.00
    1   15    6    -13.68      0.00
    3   15    6     -0.28      0.00
    5   15    6     -1.23      0.00
    7   15    6     -3.75      0.00
    9   15    6      9.75      0.00
   11   15    6      1.30      0.00
   13   15    6     -5.96      0.00
   15   15    6     -7.55      0.00
    0   16    6     -1.61      0.00
    2   16    6      1.44      0.00
    4   16    6      0.35      0.00
    6   16    6      8.56      0.00
    8   16    6      4.07      0.00
   10   16    6     -3.37      0.00
   12   16    6     -8.53      0.00
   14   16    6      1.87      0.00
    1   17    6     -2.69      0.00
    3   17    6      1.07      0.00
    5   17    6      1.18      0.00
    7   17    6     21.75      0.00
    9   17    6     -6.32      0.00
   11   17    6      7.45      0.00
   13   17    6     -0.74      0.00
   15   17    6     -0.38      0.00
    0   18    6     15.73      0.00
    2   18    6     -3.09      0.00
    4   18    6     -1.46      0.00
    6   18    6      2.11      0.00
    8   18    6     -3.07      0.00
   10   18    6      2.74      0.00
   12   18    6      6.86      0.00
   14   18    6     21.05      0.00
    1   19    6     -9.30      0.00
    3   19    6     -3.59      0.00
    5   19    6     11.74      0.00
    7   19    6     -9.57      0.00
    9   19    6     -0.33      0.00
   11   19    6      5.11      0.00
   13   19    6     -2.44      0.00
    0   20    6    -15.66      0.00
    2   20    6     18.98      0.00
    4   20    6     -9.01      0.00
    6   20    6     -2.26      0.00
    8   20    6     -7.22      0.00
   10   20    6     15.10      0.00
   12   20    6     16.84      0.00
    1   21    6     -5.84      0.00
    3   21    6     16.30      0.00
    5   21    6    -11.42      0.00
    7   21    6     -6.95      0.00
    9   21    6      0.19      0.00
   11   21    6      6.88      0.00
    0   22    6     -7.05      0.00
    2   22    6      3.76      0.00
    4   22    6     19.70      0.00
    6   22    6     -2.68      0.00
    8   22    6      5.06      0.00
    1   23    6     12.20      0.00
    3   23    6      4.69      0.00
    5   23    6     14.58      0.00
    0    1    7     28.27      0.00
    1    2    7    -90.09      0.00
    0    3    7     99.73      0.00
    2    3    7    226.32      0.00
    1    4    7     10.65      0.00
    3    4    7      0.30      0.00
    0    5    7    -46.79      0.00
    2    5    7     46.72      0.00
    4    5    7     33.77      0.00
    1    6    7     -5.43      0.00
    3    6    7      1.93      0.00
    5    6    7      2.78      0.00
    0    7    7      6.93      0.00
    2    7    7     -3.57      0.00
    4    7    7    -11.33      0.00
    6    7    7      3.19      0.00
    1    8    7      0.61      0.00
    3    8    7     -9.28      0.00
    5    8    7     -5.87      0.00
    7    8    7     -5.41      0.00
    0    9    7      7.16      0.00
    2    9    7     20.07      0.00
    4    9    7      3.90      0.00
    6    9    7     -5.47      0.00
    8    9    7     -3.56      0.00
    1   10    7     -3.07      0.00
    3   10    7     -6.80      0.00
    5   10    7     -0.13      0.00
    7   10    7      5.80      0.00
    9   10    7      3.28      0.00
    0   11    7      8.26      0.00
    2   11    7     -0.01      0.00
    4   11    7     14.10      0.00
    6   11    7      4.88      0.00
    8   11    7      3.17      0.00
   10   11    7    -15.41      0.00
    1   12    7      1.30      0.00
    3   12    7     -3.08      0.00
    5   12    7      0.99      0.00
    7   12    7     -2.72      0.00
    9   12    7      1.43      0.00
   11   12    7      7.24      0.00
    0   13    7      0.51      0.00
    2   13    7      2.08      0.00
    4   13    7      5.56      0.00
    6   13    7     -4.12      0.00
    8   13    7     -5.29      0.00
   10   13    7     -7.32      0.00
   12   13    7     -1.74      0.00
    1   14    7      0.29      0.00
    3   14    7     -1.45      0.00
    5   14    7     -2.46      0.00
    7   14    7     -5.94      0.00
    9   14    7      7.84      0.00
   11   14    7      2.01      0.00
   13   14    7      9.41      0.00
    0   15    7      6.03      0.00
    2   15    7      7.06      0.00
    4   15    7     -8.91      0.00
    6   15    7     -0.87      0.00
    8   15    7     -1.19      0.00
   10   15    7      0.57      0.00
   12   15    7     10.83      0.00
   14   15    7      8.79      0.00
    1   16    7     12.26      0.00
    3   16    7     12.93      0.00
    5   16    7      3.21      0.00
    7   16    7      1.70      0.00
    9   16    7    -11.53      0.00
   11   16    7      9.67      0.00
   13   16    7     19.89      0.00
   15   16    7     14.49      0.00
    0   17    7     23.70      0.00
    2   17    7      0.54      0.00
    4   17    7     -0.60      0.00
    6   17    7     -4.09      0.00
    8   17    7     -0.27      0.00
   10   17    7      7.05      0.00
   12   17    7      9.54      0.00
   14   17    7      5.17      0.00
   16   17    7     -4.66      0.00
    1   18    7     -2.55      0.00
    3   18    7      1.22      0.00
    5   18    7     -6.61      0.00
    7   18    7      1.19      0.00
    9   18    7     10.32      0.00
   11   18    7     13.37      0.00
   13   18    7     -5.91      0.00
   15   18    7     14.52      0.00
    0   19    7      5.78      0.00
    2   19    7      4.88      0.00
    4   19    7     -6.44      0.00
    6   19    7      4.41      0.00
    8   19    7      4.75      0.00
   10   19    7      1.44      0.00
   12   19    7     -1.22      0.00
   14   19    7      6.10      0.00
    1   20    7     -8.68      0.00
    3   20    7     -1.78      0.00
    5   20    7     -0.10      0.00
    7   20    7     -0.85      0.00
    9   20    7     -1.05      0.00
   11   20    7    -19.96      0.00
    0   21    7     -6.50      0.00
    2   21    7     -6.38      0.00
    4   21    7      9.33      0.00
    6   21    7      0.29      0.00
    8   21    7    -10.16      0.00
   10   21    7      3.56      0.00
    1   22    7     11.97      0.00
    3   22    7     24.15      0.00
    5   22    7      0.05      0.00
    7   22    7      8.77      0.00
    0   23    7    -13.32      0.00
    2   23    7      7.51      0.00
    4   23    7     13.31      0.00
    0    0    8    301.99      0.00
    0    2    8    214.76      0.00
    2    2    8     60.59      0.00
    1    3    8    -19.36      0.00
    0    4    8     40.40      0.00
    2    4    8    -47.27      0.00
    4    4    8      9.76      0.00
    1    5    8      7.12      0.00
    3    5    8     -0.22      0.00
    0    6    8     79.14      0.00
    2    6    8      7.23      0.00
    4    6    8     -8.51      0.00
    6    6    8      8.41      0.00
    1    7    8      9.58      0.00
    3    7    8     -2.11      0.00
    5    7    8      0.84      0.00
    0    8    8    -10.16      0.00
    2    8    8     14.52      0.00
    4    8    8     10.29      0.00
    6    8    8      1.26      0.00
    8    8    8      8.31      0.00
    1    9    8     -1.61      0.00
    3    9    8      1.57      0.00
    5    9    8      0.28      0.00
    7    9    8      5.77      0.00
    0   10    8     19.23      0.00
    2   10    8     -5.44      0.00
    4   10    8     -6.71      0.00
    6   10    8     -1.15      0.00
    8   10    8     -7.04      0.00
   10   10    8      2.99      0.00
    1   11    8     -1.17      0.00
    3   11    8     -0.33      0.00
    5   11    8      4.02      0.00
    7   11    8     -0.82      0.00
    9   11    8      8.25      0.00
    0   12    8      1.52      0.00
    2   12    8      5.99      0.00
    4   12    8      6.21      0.00
    6   12    8     -0.31      0.00
    8   12    8     -2.01      0.00
   10   12    8      9.64      0.00
   12   12    8      4.07      0.00
    1   13    8     -2.69      0.00
    3   13    8    -14.28      0.00
    5   13    8      4.00      0.00
    7   13    8     -0.70      0.00
    9   13    8      0.43      0.00
   11   13    8    -15.64      0.00
    0   14    8     12.20      0.00
    2   14    8      2.07      0.00
    4   14    8      9.46      0.00
    6   14    8      0.74      0.00
    8   14    8     -2.41      0.00
   10   14    8     -1.29      0.00
   12   14    8      1.67      0.00
   14   14    8     -1.16      0.00
    1   15    8      2.40      0.00
    3   15    8    -15.81      0.00
    5   15    8     -3.10      0.00
    7   15    8     12.77      0.00
    9   15    8     -3.54      0.00
   11   15    8      7.11      0.00
   13   15    8      9.15      0.00
    0   16    8     -1.46      0.00
    2   16    8      2.81      0.00
    4   16    8      1.21      0.00
    6   16    8     -3.13      0.00
    8   16    8    -13.21      0.00
   10   16    8      3.17      0.00
   12   16    8      3.23      0.00
   14   16    8     -1.92      0.00
   16   16    8     14.56      0.00
    1   17    8      6.49      0.00
    3   17    8    -10.57      0.00
    5   17    8     -9.91      0.00
    7   17    8    -15.38      0.00
    9   17    8     -3.08      0.00
   11   17    8      7.51      0.00
   13   17    8      4.38      0.00
   15   17    8      2.41      0.00
    0   18    8      0.33      0.00
    2   18    8     -9.05      0.00
    4   18    8      0.44      0.00
    6   18    8     -6.94      0.00
    8   18    8     -3.59      0.00
   10   18    8      5.02      0.00
   12   18    8     -6.69      0.00
   14   18    8     -1.42      0.00
    1   19    8     21.81      0.00
    3   19    8      6.22      0.00
    5   19    8    -16.18      0.00
    7   19    8     -5.62      0.00
    9   19    8     -0.25      0.00
   11   19    8     -1.65      0.00
   13   19    8      2.79      0.00
    0   20    8     -6.60      0.00
    2   20    8      7.52      0.00
    4   20    8    -10.12      0.00
    6   20    8     -5.09      0.00
    8   20    8     15.54      0.00
   10   20    8     -2.62      0.00
   12   20    8     -1.68      0.00
    1   21    8    -14.31      0.00
    3   21    8     -5.87      0.00
    5   21    8     18.99      0.00
    7   21    8     19.21      0.00
    9   21    8     17.57      0.00
    0   22    8      0.81      0.00
    2   22    8     -5.20      0.00
    4   22    8     -0.52      0.00
    6   22    8     13.72      0.00
    8   22    8    -13.22      0.00
    1   23    8     27.96      0.00
    3   23    8     -2.75      0.00
    5   23    8      9.88      0.00
    0    1    9    -74.04      0.00
    1    2    9      2.81      0.00
    0    3    9    -30.84      0.00
    2    3    9    -42.00      0.00
    1    4    9    -51.20      0.00
    3    4    9     40.27      0.00
    0    5    9     64.55      0.00
    2    5    9     30.84      0.00
    4    5    9     18.34      0.00
    1    6    9     -7.88      0.00
    3    6    9    -12.59      0.00
    5    6    9     25.61      0.00
    0    7    9     19.92      0.00
    2    7    9     -3.61      0.00
    4    7    9      0.80      0.00
    6    7    9     13.20      0.00
    1    8    9      0.06      0.00
    3    8    9      4.44      0.00
    5    8    9     -3.57      0.00
    7    8    9      9.52      0.00
    0    9    9     -0.54      0.00
    2    9    9    -10.85      0.00
    4    9    9      3.34      0.00
    6    9    9     -4.30      0.00
    8    9    9      2.63      0.00
    1   10    9     -0.66      0.00
    3   10    9     -4.85      0.00
    5   10    9      8.49      0.00
    7   10    9     -1.09      0.00
    9   10    9     -3.56      0.00
    0   11    9     -6.48      0.00
    2   11    9     -4.06      0.00
    4   11    9     -5.59      0.00
    6   11    9      2.09      0.00
    8   11    9      4.21      0.00
   10   11    9     -0.92      0.00
    1   12    9    -10.12      0.00
    3   12    9      8.87      0.00
    5   12    9     -1.36      0.00
    7   12    9     -6.33      0.00
    9   12    9     -1.48      0.00
   11   12    9     -0.73      0.00
    0   13    9      1.95      0.00
    2   13    9     -1.07      0.00
    4   13    9      0.84      0.00
    6   13    9      9.55      0.00
    8   13    9     -3.14      0.00
   10   13    9      0.52      0.00
   12   13    9     -6.67      0.00
    1   14    9      5.17      0.00
    3   14    9     -0.40      0.00
    5   14    9      1.57      0.00
    7   14    9     -1.90      0.00
    9   14    9      3.15      0.00
   11   14    9     -6.00      0.00
   13   14    9     -0.39      0.00
    0   15    9     -0.68      0.00
    2   15    9     -2.37      0.00
    4   15    9     -4.58      0.00
    6   15    9      1.84      0.00
    8   15    9      5.63      0.00
   10   15    9      1.63      0.00
   12   15    9     -2.87      0.00
   14   15    9     -0.04      0.00
    1   16    9      0.54      0.00
    3   16    9     -3.07      0.00
    5   16    9      7.94      0.00
    7   16    9     -3.63      0.00
    9   16    9     -3.20      0.00
   11   16    9      6.97      0.00
   13   16    9     -6.72      0.00
   15   16    9     -1.14      0.00
    0   17    9      0.04      0.00
    2   17    9    -10.82      0.00
    4   17    9    -13.44      0.00
    6   17    9      3.95      0.00
    8   17    9     10.16      0.00
   10   17    9     -1.02      0.00
   12   17    9      5.32      0.00
   14   17    9     -0.29      0.00
   16   17    9      6.69      0.00
    1   18    9      1.34      0.00
    3   18    9      5.58      0.00
    5   18    9    -14.45      0.00
    7   18    9     -4.14      0.00
    9   18    9     -8.18      0.00
   11   18    9      4.13      0.00
   13   18    9     11.78      0.00
   15   18    9     15.26      0.00
    0   19    9      5.79      0.00
    2   19    9      1.75      0.00
    4   19    9      2.65      0.00
    6   19    9     -2.00      0.00
    8   19    9     -5.44      0.00
   10   19    9      9.02      0.00
   12   19    9     -1.54      0.00
   14   19    9    -15.48      0.00
    1   20    9     -3.68      0.00
    3   20    9     -0.79      0.00
    5   20    9      2.19      0.00
    7   20    9     -3.43      0.00
    9   20    9     18.00      0.00
   11   20    9     -3.20      0.00
    0   21    9    -10.13      0.00
    2   21    9      0.89      0.00
    4   21    9     13.46      0.00
    6   21    9    -19.06      0.00
    8   21    9     -3.07      0.00
   10   21    9    -16.64      0.00
    1   22    9     -4.33      0.00
    3   22    9     -0.44      0.00
    5   22    9     -6.61      0.00
    7   22    9      6.76      0.00
    0   23    9     22.53      0.00
    2   23    9     -7.98      0.00
    4   23    9    -13.80      0.00
    1    1   10    -52.39      0.00
    0    2   10    110.68      0.00
    1    3   10    -34.89      0.00
    3    3   10   -104.37      0.00
    0    4   10   -163.34      0.00
    2    4   10     98.21      0.00
    1    5   10    -19.16      0.00
    3    5   10     50.04      0.00
    5    5   10    -48.15      0.00
    0    6   10     11.13      0.00
    2    6   10    -43.52      0.00
    4    6   10     22.94      0.00
    1    7   10     13.33      0.00
    3    7   10    -18.73      0.00
    5    7   10     15.07      0.00
    7    7   10    -13.21      0.00
    0    8   10    -44.26      0.00
    2    8   10     13.81      0.00
    4    8   10     -6.57      0.00
    6    8   10      8.01      0.00
    1    9   10     11.57      0.00
    3    9   10     13.12      0.00
    5    9   10    -17.18      0.00
    7    9   10      3.00      0.00
    9    9   10     -1.11      0.00
    0   10   10     12.77      0.00
    2   10   10    -10.23      0.00
    4   10   10      3.74      0.00
    6   10   10     -4.91      0.00
    8   10   10      4.32      0.00
    1   11   10      1.70      0.00
    3   11   10      2.73      0.00
    5   11   10     11.09      0.00
    7   11   10     -2.04      0.00
    9   11   10    -11.02      0.00
   11   11   10      3.85      0.00
    0   12   10     -9.77      0.00
    2   12   10      0.24      0.00
    4   12   10     -8.39      0.00
    6   12   10     -8.61      0.00
    8   12   10      2.60      0.00
   10   12   10     -2.85      0.00
    1   13   10      1.99      0.00
    3   13   10     12.61      0.00
    5   13   10      8.25      0.00
    7   13   10      6.00      0.00
    9   13   10      3.32      0.00
   11   13   10     -5.37      0.00
   13   13   10     -3.33      0.00
    0   14   10      7.53      0.00
    2   14   10      5.86      0.00
    4   14   10     -3.73      0.00
    6   14   10      2.94      0.00
    8   14   10      3.26      0.00
   10   14   10     10.25      0.00
   12   14   10      2.50      0.00
    1   15   10      1.64      0.00
    3   15   10     12.63      0.00
    5   15   10      0.47      0.00
    7   15   10      6.10      0.00
    9   15   10    -11.73      0.00
   11   15   10     -2.13      0.00
   13   15   10     -6.27      0.00
   15   15   10     -8.01      0.00
    0   16   10      5.67      0.00
    2   16   10      5.97      0.00
    4   16   10      7.79      0.00
    6   16   10     -1.15      0.00
    8   16   10    -11.65      0.00
   10   16   10      4.67      0.00
   12   16   10     -0.90      0.00
   14   16   10     12.98      0.00
    1   17   10     -8.39      0.00
    3   17   10     -4.24      0.00
    5   17   10     -6.36      0.00
    7   17   10      4.51      0.00
    9   17   10      4.79      0.00
   11   17   10      3.53      0.00
   13   17   10    -10.93      0.00
   15   17   10     -2.56      0.00
    0   18   10     -5.61      0.00
    2   18   10      5.30      0.00
    4   18   10    -12.51      0.00
    6   18   10     -1.52      0.00
    8   18   10     -6.72      0.00
   10   18   10     -0.44      0.00
   12   18   10    -11.57      0.00
   14   18   10      2.75      0.00
    1   19   10    -14.88      0.00
    3   19   10     18.23      0.00
    5   19   10      2.76      0.00
    7   19   10     12.19      0.00
    9   19   10     -1.08      0.00
   11   19   10      0.58      0.00
   13   19   10      3.04      0.00
    0   20   10    -10.74      0.00
    2   20   10    -10.98      0.00
    4   20   10     -1.25      0.00
    6   20   10      1.49      0.00
    8   20   10     -4.52      0.00
   10   20   10     -7.64      0.00
   12   20   10      6.38      0.00
    1   21   10     -1.34      0.00
    3   21   10     -9.59      0.00
    5   21   10     15.67      0.00
    7   21   10    -15.99      0.00
    9   21   10    -12.83      0.00
    0   22   10     -7.83      0.00
    2   22   10      5.32      0.00
    4   22   10     -6.63      0.00
    6   22   10      0.89      0.00
    8   22   10     -4.46      0.00
    1   23   10    -16.51      0.00
    3   23   10      6.36      0.00
    5   23   10     -8.62      0.00
    0    1   11    159.37      0.00
    1    2   11    -13.14      0.00
    0    3   11   -149.85      0.00
    2    3   11      5.43      0.00
    1    4   11     20.44      0.00
    3    4   11      8.64      0.00
    0    5   11     11.60      0.00
    2    5   11    -19.26      0.00
    4    5   11    -31.43      0.00
    1    6   11     -5.56      0.00
    3    6   11     -9.93      0.00
    5    6   11     -4.42      0.00
    0    7   11    -35.55      0.00
    2    7   11     29.26      0.00
    4    7   11    -20.66      0.00
    6    7   11    -18.54      0.00
    1    8   11      3.50      0.00
    3    8   11      0.80      0.00
    5    8   11      1.19      0.00
    7    8   11     -5.82      0.00
    0    9   11      9.48      0.00
    2    9   11     -8.84      0.00
    4    9   11      6.88      0.00
    6    9   11     -5.47      0.00
    8    9   11     -5.51      0.00
    1   10   11      8.18      0.00
    3   10   11      0.33      0.00
    5   10   11     -4.35      0.00
    7   10   11      0.84      0.00
    9   10   11      1.80      0.00
    0   11   11      8.14      0.00
    2   11   11      4.38      0.00
    4   11   11     -2.96      0.00
    6   11   11    -14.15      0.00
    8   11   11     -1.86      0.00
   10   11   11      0.20      0.00
    1   12   11      6.09      0.00
    3   12   11      0.35      0.00
    5   12   11      6.93      0.00
    7   12   11      0.42      0.00
    9   12   11      3.62      0.00
   11   12   11     11.00      0.00
    0   13   11      8.95      0.00
    2   13   11     10.27      0.00
    4   13   11     14.27      0.00
    6   13   11      3.29      0.00
    8   13   11      3.51      0.00
   10   13   11     -9.40      0.00
   12   13   11    -15.90      0.00
    1   14   11      0.60      0.00
    3   14   11      1.70      0.00
    5   14   11     -3.14      0.00
    7   14   11      3.43      0.00
    9   14   11     -3.10      0.00
   11   14   11     -1.24      0.00
   13   14   11      0.67      0.00
    0   15   11      6.17      0.00
    2   15   11     -0.02      0.00
    4   15   11     -1.40      0.00
    6   15   11      4.07      0.00
    8   15   11      3.38      0.00
   10   15   11     10.16      0.00
   12   15   11     11.94      0.00
   14   15   11    -17.48      0.00
    1   16   11     -3.65      0.00
    3   16   11     -5.11      0.00
    5   16   11      6.60      0.00
    7   16   11     -8.94      0.00
    9   16   11      5.45      0.00
   11   16   11      2.95      0.00
   13   16   11     -6.96      0.00
   15   16   11      0.90      0.00
    0   17   11     -1.76      0.00
    2   17   11      1.11      0.00
    4   17   11     -3.50      0.00
    6   17   11      1.39      0.00
    8   17   11     -2.14      0.00
   10   17   11     -8.04      0.00
   12   17   11    -13.97      0.00
   14   17   11      3.91      0.00
   16   17   11    -12.74      0.00
    1   18   11      2.39      0.00
    3   18   11     12.91      0.00
    5   18   11    -17.69      0.00
    7   18   11     10.71      0.00
    9   18   11     14.84      0.00
   11   18   11      3.99      0.00
   13   18   11      6.85      0.00
   15   18   11      0.29      0.00
    0   19   11     -3.93      0.00
    2   19   11      6.42      0.00
    4   19   11     12.86      0.00
    6   19   11     -3.55      0.00
    8   19   11      3.30      0.00
   10   19   11     -2.33      0.00
   12   19   11      3.72      0.00
    1   20   11    -15.10      0.00
    3   20   11     -6.29      0.00
    5   20   11      2.08      0.00
    7   20   11      0.67      0.00
    9   20   11      3.85      0.00
   11   20   11      7.92      0.00
    0   21   11      9.31      0.00
    2   21   11    -21.08      0.00
    4   21   11     -5.98      0.00
    6   21   11     14.32      0.00
    8   21   11    -20.75      0.00
   10   21   11     11.19      0.00
    1   22   11      1.88      0.00
    3   22   11    -10.65      0.00
    5   22   11     -8.13      0.00
    7   22   11     -8.20      0.00
    0   23   11     -7.54      0.00
    2   23   11     18.92      0.00
    4   23   11     -2.49      0.00
    0    0   12   -144.67      0.00
    0    2   12     -0.85      0.00
    2    2   12   -257.57      0.00
    1    3   12     18.39      0.00
    0    4   12     56.76      0.00
    2    4   12     45.98      0.00
    4    4   12     -1.00      0.00
    1    5   12    -16.29      0.00
    3    5   12     16.12      0.00
    0    6   12     39.42      0.00
    2    6   12    -18.98      0.00
    4    6   12     30.90      0.00
    6    6   12     -0.51      0.00
    1    7   12      7.21      0.00
    3    7   12    -28.79      0.00
    5    7   12      9.07      0.00
    0    8   12     18.85      0.00
    2    8   12      3.32      0.00
    4    8   12    -11.30      0.00
    6    8   12     15.39      0.00
    8    8   12      4.68      0.00
    1    9   12    -20.37      0.00
    3    9   12     10.24      0.00
    5    9   12    -18.38      0.00
    7    9   12    -11.79      0.00
    0   10   12      6.52      0.00
    2   10   12      2.45      0.00
    4   10   12      6.03      0.00
    6   10   12     -4.79      0.00
    8   10   12      0.65      0.00
   10   10   12      2.54      0.00
    1   11   12     -7.28      0.00
    3   11   12    -19.35      0.00
    5   11   12      5.37      0.00
    7   11   12      3.76      0.00
    9   11   12     -4.99      0.00
    0   12   12     -5.95      0.00
    2   12   12     -0.04      0.00
    4   12   12      1.04      0.00
    6   12   12      8.20      0.00
    8   12   12     -1.64      0.00
   10   12   12     -1.73      0.00
   12   12   12      5.63      0.00
    1   13   12      9.05      0.00
    3   13   12      7.28      0.00
    5   13   12     -3.24      0.00
    7   13   12     -7.51      0.00
    9   13   12      7.04      0.00
   11   13   12      2.35      0.00
    0   14   12      0.39      0.00
    2   14   12     -4.06      0.00
    4   14   12      6.06      0.00
    6   14   12     -5.27      0.00
    8   14   12      2.61      0.00
   10   14   12      4.03      0.00
   12   14   12     -9.41      0.00
   14   14   12      2.50      0.00
    1   15   12      7.73      0.00
    3   15   12      1.78      0.00
    5   15   12      5.20      0.00
    7   15   12      7.06      0.00
    9   15   12    -10.90      0.00
   11   15   12      8.63      0.00
   13   15   12     -0.61      0.00
    0   16   12      8.68      0.00
    2   16   12     -1.71      0.00
    4   16   12      5.40      0.00
    6   16   12      2.79      0.00
    8   16   12     -0.58      0.00
   10   16   12      0.64      0.00
   12   16   12     10.26      0.00
   14   16   12      2.16      0.00
   16   16   12      7.38      0.00
    1   17   12     16.89      0.00
    3   17   12    -10.60      0.00
    5   17   12     -6.43      0.00
    7   17   12      8.65      0.00
    9   17   12     14.26      0.00
   11   17   12     -8.79      0.00
   13   17   12     -1.88      0.00
   15   17   12      4.27      0.00
    0   18   12     10.24      0.00
    2   18   12     22.32      0.00
    4   18   12      7.93      0.00
    6   18   12     -4.34      0.00
    8   18   12     -6.59      0.00
   10   18   12      7.97      0.00
   12   18   12     -9.31      0.00
   14   18   12     -4.23      0.00
    1   19   12     -1.02      0.00
    3   19   12      9.62      0.00
    5   19   12      1.70      0.00
    7   19   12      1.29      0.00
    9   19   12     -0.30      0.00
   11   19   12      5.28      0.00
   13   19   12      0.86      0.00
    0   20   12      1.93      0.00
    2   20   12      7.00      0.00
    4   20   12      5.98      0.00
    6   20   12    -11.83      0.00
    8   20   12     -1.34      0.00
   10   20   12     -3.87      0.00
   12   20   12      2.94      0.00
    1   21   12      8.17      0.00
    3   21   12    -14.79      0.00
    5   21   12    -13.47      0.00
    7   21   12    -19.86      0.00
    9   21   12    -14.99      0.00
    0   22   12     18.71      0.00
    2   22   12    -12.66      0.00
    4   22   12     -3.60      0.00
    6   22   12     12.26      0.00
    8   22   12    -16.58      0.00
    1   23   12     22.27      0.00
    3   23   12     11.03      0.00
    0    1   13   -115.22      0.00
    1    2   13     73.61      0.00
    0    3   13    -26.19      0.00
    2    3   13     50.66      0.00
    1    4   13      5.09      0.00
    3    4   13     25.03      0.00
    0    5   13     -2.52      0.00
    2    5   13    -18.15      0.00
    4    5   13     19.49      0.00
    1    6   13     10.57      0.00
    3    6   13     29.73      0.00
    5    6   13    -14.09      0.00
    0    7   13      5.21      0.00
    2    7   13     -9.60      0.00
    4    7   13      8.53      0.00
    6    7   13     -0.88      0.00
    1    8   13     -1.33      0.00
    3    8   13    -10.61      0.00
    5    8   13     10.95      0.00
    7    8   13     -1.88      0.00
    0    9   13     -7.17      0.00
    2    9   13     -7.77      0.00
    4    9   13      0.94      0.00
    6    9   13      6.78      0.00
    8    9   13     -2.39      0.00
    1   10   13     -8.90      0.00
    3   10   13     -2.98      0.00
    5   10   13     -8.93      0.00
    7   10   13    -13.56      0.00
    9   10   13     -7.89      0.00
    0   11   13      2.19      0.00
    2   11   13    -13.32      0.00
    4   11   13      3.35      0.00
    6   11   13     -6.08      0.00
    8   11   13      4.48      0.00
   10   11   13      2.84      0.00
    1   12   13      1.86      0.00
    3   12   13     -4.54      0.00
    5   12   13      0.06      0.00
    7   12   13      7.51      0.00
    9   12   13      3.99      0.00
   11   12   13     -5.70      0.00
    0   13   13     -6.70      0.00
    2   13   13      6.98      0.00
    4   13   13      4.49      0.00
    6   13   13     20.09      0.00
    8   13   13      0.06      0.00
   10   13   13     -0.30      0.00
   12   13   13     -6.19      0.00
    1   14   13      4.89      0.00
    3   14   13      1.45      0.00
    5   14   13      2.58      0.00
    7   14   13     -1.68      0.00
    9   14   13      3.58      0.00
   11   14   13     -8.87      0.00
   13   14   13     -2.04      0.00
    0   15   13      3.13      0.00
    2   15   13     10.05      0.00
    4   15   13      0.68      0.00
    6   15   13     -0.52      0.00
    8   15   13     -1.08      0.00
   10   15   13     13.84      0.00
   12   15   13      2.80      0.00
   14   15   13      0.14      0.00
    1   16   13      1.33      0.00
    3   16   13      3.42      0.00
    5   16   13     -0.43      0.00
    7   16   13      7.41      0.00
    9   16   13     -9.74      0.00
   11   16   13      2.85      0.00
   13   16   13      6.81      0.00
   15   16   13      8.96      0.00
    0   17   13      0.25      0.00
    2   17   13      7.54      0.00
    4   17   13      2.15      0.00
    6   17   13     -3.79      0.00
    8   17   13      4.76      0.00
   10   17   13     -1.60      0.00
   12   17   13     11.06      0.00
   14   17   13     -3.00      0.00
   16   17   13     19.59      0.00
    1   18   13      4.79      0.00
    3   18   13      7.53      0.00
    5   18   13      4.20      0.00
    7   18   13      0.03      0.00
    9   18   13      4.94      0.00
   11   18   13      7.58      0.00
   13   18   13      0.37      0.00
   15   18   13      6.29      0.00
    0   19   13     -4.74      0.00
    2   19   13      0.40      0.00
    4   19   13      4.49      0.00
    6   19   13    -16.03      0.00
    8   19   13     -4.44      0.00
   10   19   13     -6.65      0.00
   12   19   13      3.46      0.00
    1   20   13      2.19      0.00
    3   20   13     -1.85      0.00
    5   20   13     -1.74      0.00
    7   20   13    -12.49      0.00
    9   20   13     -1.66      0.00
   11   20   13     -2.46      0.00
    0   21   13      8.50      0.00
    2   21   13      4.24      0.00
    4   21   13      8.31      0.00
    6   21   13      4.88      0.00
    8   21   13    -15.54      0.00
   10   21   13      1.71      0.00
    1   22   13     -0.20      0.00
    3   22   13      1.02      0.00
    5   22   13     11.05      0.00
    7   22   13     -7.30      0.00
    0   23   13     23.29      0.00
    2   23   13     -6.40      0.00
    4   23   13     13.14      0.00
    1    1   14    -18.76      0.00
    0    2   14    -87.83      0.00
    1    3   14    -22.34      0.00
    3    3   14    -38.35      0.00
    0    4   14    -34.96      0.00
    2    4   14     28.97      0.00
    1    5   14     -3.75      0.00
    3    5   14      9.41      0.00
    5    5   14     -3.91      0.00
    0    6   14    -28.46      0.00
    2    6   14     14.64      0.00
    4    6   14     -3.22      0.00
    1    7   14      1.98      0.00
    3    7   14     -4.02      0.00
    5    7   14      0.55      0.00
    7    7   14      8.69      0.00
    0    8   14     -7.33      0.00
    2    8   14      5.98      0.00
    4    8   14      0.17      0.00
    6    8   14     -8.83      0.00
    1    9   14      3.37      0.00
    3    9   14     17.35      0.00
    5    9   14     -1.06      0.00
    7    9   14     -7.28      0.00
    9    9   14      0.20      0.00
    0   10   14     -7.72      0.00
    2   10   14      0.64      0.00
    4   10   14      2.26      0.00
    6   10   14     -0.91      0.00
    8   10   14      0.64      0.00
    1   11   14     13.01      0.00
    3   11   14      0.85      0.00
    5   11   14      2.16      0.00
    7   11   14      1.73      0.00
    9   11   14     -7.20      0.00
   11   11   14     13.14      0.00
    0   12   14     -2.64      0.00
    2   12   14      0.90      0.00
    4   12   14      2.02      0.00
    6   12   14     -0.70      0.00
    8   12   14      0.51      0.00
   10   12   14     -0.35      0.00
    1   13   14     -3.01      0.00
    3   13   14      6.75      0.00
    5   13   14      3.53      0.00
    7   13   14     -1.30      0.00
    9   13   14      6.51      0.00
   11   13   14     -2.51      0.00
   13   13   14      2.01      0.00
    0   14   14      8.19      0.00
    2   14   14     -7.59      0.00
    4   14   14      1.26      0.00
    6   14   14      2.75      0.00
    8   14   14     -2.25      0.00
   10   14   14     -5.51      0.00
   12   14   14     -1.05      0.00
    1   15   14     11.01      0.00
    3   15   14     12.58      0.00
    5   15   14      7.19      0.00
    7   15   14      6.80      0.00
    9   15   14      4.44      0.00
   11   15   14     16.31      0.00
   13   15   14      0.54      0.00
   15   15   14     10.57      0.00
    0   16   14    -13.82      0.00
    2   16   14      7.48      0.00
    4   16   14    -10.50      0.00
    6   16   14      8.86      0.00
    8   16   14      1.51      0.00
   10   16   14      5.93      0.00
   12   16   14     -6.03      0.00
   14   16   14     12.56      0.00
    1   17   14     -0.30      0.00
    3   17   14     19.33      0.00
    5   17   14     -4.28      0.00
    7   17   14     10.40      0.00
    9   17   14     -3.36      0.00
   11   17   14     -6.40      0.00
   13   17   14     -3.65      0.00
   15   17   14    -10.12      0.00
    0   18   14     -8.40      0.00
    2   18   14     -8.35      0.00
    4   18   14      6.19      0.00
    6   18   14     -1.26      0.00
    8   18   14      8.20      0.00
   10   18   14     14.38      0.00
   12   18   14     17.22      0.00
   14   18   14      0.68      0.00
    1   19   14     -8.98      0.00
    3   19   14      5.83      0.00
    5   19   14      9.85      0.00
    7   19   14     -3.04      0.00
    9   19   14    -16.12      0.00
   11   19   14      3.85      0.00
   13   19   14     -3.10      0.00
    0   20   14    -11.70      0.00
    2   20   14     -6.53      0.00
    4   20   14    -17.24      0.00
    6   20   14     -1.74      0.00
    8   20   14    -11.14      0.00
   10   20   14     19.21      0.00
   12   20   14      0.93      0.00
    1   21   14    -19.47      0.00
    3   21   14     -0.21      0.00
    5   21   14      6.12      0.00
    7   21   14     -9.30      0.00
    9   21   14    -13.90      0.00
    0   22   14     -1.60      0.00
    2   22   14     10.38      0.00
    4   22   14      7.69      0.00
    6   22   14     -2.16      0.00
    1   23   14    -16.90      0.00
    3   23   14     -1.24      0.00
    0    1   15      1.32      0.00
    1    2   15     -9.65      0.00
    0    3   15     25.35      0.00
    2    3   15    -28.52      0.00
    1    4   15    -34.94      0.00
    3    4   15    -47.93      0.00
    0    5   15    -22.38      0.00
    2    5   15     38.18      0.00
    4    5   15      1.68      0.00
    1    6   15      7.16      0.00
    3    6   15      4.89      0.00
    5    6   15    -10.46      0.00
    0    7   15     23.34      0.00
    2    7   15    -10.20      0.00
    4    7   15     15.59      0.00
    6    7   15     13.42      0.00
    1    8   15     11.33      0.00
    3    8   15     10.37      0.00
    5    8   15      9.84      0.00
    7    8   15      1.24      0.00
    0    9   15    -12.80      0.00
    2    9   15     19.19      0.00
    4    9   15     -8.49      0.00
    6    9   15     -1.72      0.00
    8    9   15      3.80      0.00
    1   10   15     11.06      0.00
    3   10   15      2.09      0.00
    5   10   15     -6.20      0.00
    7   10   15     -0.75      0.00
    9   10   15      4.14      0.00
    0   11   15      3.99      0.00
    2   11   15      5.80      0.00
    4   11   15     12.29      0.00
    6   11   15     -1.12      0.00
    8   11   15      6.70      0.00
   10   11   15     -3.49      0.00
    1   12   15     -1.37      0.00
    3   12   15     -3.02      0.00
    5   12   15     -0.29      0.00
    7   12   15     -2.61      0.00
    9   12   15     -4.98      0.00
   11   12   15      3.08      0.00
    0   13   15      8.00      0.00
    2   13   15     -2.94      0.00
    4   13   15      0.48      0.00
    6   13   15     -5.75      0.00
    8   13   15     -8.15      0.00
   10   13   15      2.22      0.00
   12   13   15      0.94      0.00
    1   14   15     -6.41      0.00
    3   14   15      4.25      0.00
    5   14   15     -3.65      0.00
    7   14   15      8.18      0.00
    9   14   15      4.89      0.00
   11   14   15      6.08      0.00
   13   14   15      7.65      0.00
    0   15   15     -2.24      0.00
    2   15   15     -1.01      0.00
    4   15   15      6.67      0.00
    6   15   15      0.33      0.00
    8   15   15     -6.37      0.00
   10   15   15     -3.24      0.00
   12   15   15      3.79      0.00
   14   15   15     12.53      0.00
    1   16   15      4.96      0.00
    3   16   15     -1.85      0.00
    5   16   15     12.31      0.00
    7   16   15     -2.77      0.00
    9   16   15      9.95      0.00
   11   16   15     -9.70      0.00
   13   16   15     -2.87      0.00
   15   16   15     -3.40      0.00
    0   17   15      3.42      0.00
    2   17   15      8.07      0.00
    4   17   15      0.23      0.00
    6   17   15     -3.33      0.00
    8   17   15      0.13      0.00
   10   17   15     -4.53      0.00
   12   17   15     -9.54      0.00
   14   17   15     -8.89      0.00
    1   18   15     -4.93      0.00
    3   18   15     23.20      0.00
    5   18   15    -14.42      0.00
    7   18   15      2.11      0.00
    9   18   15    -17.05      0.00
   11   18   15      1.37      0.00
   13   18   15    -11.33      0.00
    0   19   15     14.73      0.00
    2   19   15     -1.22      0.00
    4   19   15      8.57      0.00
    6   19   15      0.38      0.00
    8   19   15    -11.59      0.00
   10   19   15     -0.50      0.00
   12   19   15     -4.13      0.00
    1   20   15      8.88      0.00
    3   20   15    -11.48      0.00
    5   20   15      9.72      0.00
    7   20   15     -3.02      0.00
    9   20   15     16.67      0.00
   11   20   15     -1.17      0.00
    0   21   15    -22.70      0.00
    2   21   15     -9.65      0.00
    4   21   15     -3.40      0.00
    6   21   15     -2.44      0.00
    8   21   15    -11.74      0.00
   10   21   15    -13.58      0.00
    1   22   15      6.69      0.00
    3   22   15      7.66      0.00
    5   22   15     13.82      0.00
    7   22   15      5.77      0.00
    0   23   15     -9.36      0.00
    2   23   15      5.14      0.00
    0    0   16    -23.82      0.00
    0    2   16     64.60      0.00
    2    2   16     -8.11      0.00
    1    3   16      8.57      0.00
    0    4   16     20.37      0.00
    2    4   16    -16.45      0.00
    4    4   16     -3.82      0.00
    1    5   16     15.31      0.00
    3    5   16     35.95      0.00
    0    6   16      8.60      0.00
    2    6   16    -43.99      0.00
    4    6   16     -8.37      0.00
    6    6   16    -19.49      0.00
    1    7   16     -1.29      0.00
    3    7   16     -2.67      0.00
    5    7   16     18.11      0.00
    0    8   16     17.52      0.00
    2    8   16      0.62      0.00
    4    8   16     -3.66      0.00
    6    8   16    -13.94      0.00
    8    8   16    -13.92      0.00
    1    9   16    -22.96      0.00
    3    9   16    -10.43      0.00
    5    9   16     13.79      0.00
    7    9   16     -1.70      0.00
    0   10   16      7.24      0.00
    2   10   16     -1.90      0.00
    4   10   16      4.39      0.00
    6   10   16     -5.18      0.00
    8   10   16     -6.11      0.00
   10   10   16     -1.81      0.00
    1   11   16     -8.81      0.00
    3   11   16     -5.10      0.00
    5   11   16    -11.67      0.00
    7   11   16      7.21      0.00
    9   11   16     -2.34      0.00
    0   12   16      2.83      0.00
    2   12   16     -1.27      0.00
    4   12   16    -12.35      0.00
    6   12   16      0.46      0.00
    8   12   16      3.13      0.00
   10   12   16     -1.97      0.00
   12   12   16     13.76      0.00
    1   13   16      3.05      0.00
    3   13   16     -1.82      0.00
    5   13   16     19.43      0.00
    7   13   16     -0.48      0.00
    9   13   16      2.91      0.00
   11   13   16    -10.13      0.00
    0   14   16      2.97      0.00
    2   14   16      2.50      0.00
    4   14   16      2.41      0.00
    6   14   16     -0.83      0.00
    8   14   16     -0.22      0.00
   10   14   16     -3.76      0.00
   12   14   16    -15.44      0.00
   14   14   16     -0.43      0.00
    1   15   16     -5.42      0.00
    3   15   16      1.73      0.00
    5   15   16    -20.79      0.00
    7   15   16      3.43      0.00
    9   15   16     -1.37      0.00
   11   15   16     13.84      0.00
   13   15   16     -2.00      0.00
    0   16   16    -12.31      0.00
    2   16   16      3.18      0.00
    4   16   16      4.28      0.00
    6   16   16      2.19      0.00
    8   16   16      1.59      0.00
   10   16   16     -9.01      0.00
   12   16   16     -6.37      0.00
   14   16   16     -6.12      0.00
   16   16   16     -2.93      0.00
    1   17   16     -2.02      0.00
    3   17   16      5.71      0.00
    5   17   16      1.50      0.00
    7   17   16    -17.92      0.00
    9   17   16     -3.01      0.00
   11   17   16      2.48      0.00
   13   17   16     -3.57      0.00
   15   17   16      2.75      0.00
    0   18   16     10.05      0.00
    2   18   16     -3.55      0.00
    4   18   16     -1.78      0.00
    6   18   16      3.47      0.00
    8   18   16      7.64      0.00
   10   18   16     -4.01      0.00
   12   18   16     -5.34      0.00
   14   18   16      5.92      0.00
    1   19   16      9.91      0.00
    3   19   16      7.71      0.00
    5   19   16    -12.66      0.00
    7   19   16     -8.67      0.00
    9   19   16     -3.72      0.00
   11   19   16     -6.58      0.00
   13   19   16     -1.17      0.00
    0   20   16      1.68      0.00
    2   20   16     -7.14      0.00
    4   20   16      8.63      0.00
    6   20   16     11.52      0.00
    8   20   16     -7.21      0.00
   10   20   16      8.64      0.00
    1   21   16     10.86      0.00
    3   21   16     13.25      0.00
    5   21   16     21.61      0.00
    7   21   16     -6.64      0.00
    9   21   16    -13.59      0.00
    0   22   16     -1.92      0.00
    2   22   16    -10.14      0.00
    4   22   16     -9.19      0.00
    6   22   16     -2.93      0.00
    1   23   16     10.48      0.00
    3   23   16     -9.40      0.00
    0    1   17     -2.87      0.00
    1    2   17     -3.57      0.00
    0    3   17    -27.84      0.00
    2    3   17     12.21      0.00
    1    4   17     -3.42      0.00
    3    4   17     -0.41      0.00
    0    5   17     -4.11      0.00
    2    5   17      0.00      0.00
    4    5   17     -6.49      0.00
    1    6   17    -18.84      0.00
    3    6   17     -5.18      0.00
    5    6   17    -19.03      0.00
    0    7   17    -11.07      0.00
    2    7   17     -4.83      0.00
    4    7   17      7.06      0.00
    6    7   17     -9.17      0.00
    1    8   17    -10.02      0.00
    3    8   17     -1.53      0.00
    5    8   17    -12.58      0.00
    7    8   17      0.44      0.00
    0    9   17     -3.54      0.00
    2    9   17    -13.09      0.00
    4    9   17     -0.64      0.00
    6    9   17     -1.03      0.00
    8    9   17     -5.34      0.00
    1   10   17     -1.43      0.00
    3   10   17      0.04      0.00
    5   10   17      2.84      0.00
    7   10   17     -0.74      0.00
    9   10   17      4.46      0.00
    0   11   17     -5.90      0.00
    2   11   17    -29.12      0.00
    4   11   17      6.29      0.00
    6   11   17     -3.44      0.00
    8   11   17     -8.28      0.00
   10   11   17     -0.04      0.00
    1   12   17     -3.22      0.00
    3   12   17     -8.52      0.00
    5   12   17      2.08      0.00
    7   12   17      3.99      0.00
    9   12   17      2.96      0.00
   11   12   17     -8.09      0.00
    0   13   17     -6.47      0.00
    2   13   17     -7.39      0.00
    4   13   17    -14.35      0.00
    6   13   17     -2.01      0.00
    8   13   17     -0.86      0.00
   10   13   17      8.45      0.00
   12   13   17     16.12      0.00
    1   14   17      9.43      0.00
    3   14   17      5.09      0.00
    5   14   17      0.95      0.00
    7   14   17     -0.69      0.00
    9   14   17     -4.35      0.00
   11   14   17      6.85      0.00
   13   14   17      2.83      0.00
    0   15   17    -11.26      0.00
    2   15   17     10.27      0.00
    4   15   17      4.85      0.00
    6   15   17      5.41      0.00
    8   15   17      5.22      0.00
   10   15   17      6.14      0.00
   12   15   17     -3.68      0.00
   14   15   17     14.00      0.00
    1   16   17     -4.50      0.00
    3   16   17      1.45      0.00
    5   16   17     -2.70      0.00
    7   16   17      0.74      0.00
    9   16   17     -1.36      0.00
   11   16   17     -5.74      0.00
   13   16   17     -1.64      0.00
   15   16   17     -5.07      0.00
    0   17   17     -3.12      0.00
    2   17   17      2.26      0.00
    4   17   17      5.68      0.00
    6   17   17     -4.29      0.00
    8   17   17      3.00      0.00
   10   17   17     -4.61      0.00
   12   17   17     -0.96      0.00
   14   17   17    -14.09      0.00
    1   18   17     -4.85      0.00
    3   18   17     -0.94      0.00
    5   18   17      0.72      0.00
    7   18   17     12.68      0.00
    9   18   17     -9.37      0.00
   11   18   17     -6.11      0.00
   13   18   17    -18.47      0.00
    0   19   17     -5.51      0.00
    2   19   17     -4.37      0.00
    4   19   17      4.08      0.00
    6   19   17      7.93      0.00
    8   19   17     -3.55      0.00
   10   19   17      4.24      0.00
   12   19   17    -19.90      0.00
    1   20   17    -27.12      0.00
    3   20   17     -9.71      0.00
    5   20   17      9.84      0.00
    7   20   17    -14.66      0.00
    9   20   17      1.85      0.00
   11   20   17     -4.41      0.00
    0   21   17     -0.91      0.00
    2   21   17     -3.57      0.00
    4   21   17      9.35      0.00
    6   21   17     -4.94      0.00
    8   21   17     -9.84      0.00
    1   22   17     -4.52      0.00
    3   22   17     -9.44      0.00
    5   22   17      4.44      0.00
    7   22   17     -1.46      0.00
    0   23   17      1.40      0.00
    2   23   17    -12.66      0.00
    1    1   18    -64.00      0.00
    0    2   18     27.13      0.00
    1    3   18     -2.65      0.00
    3    3   18    -36.25      0.00
    0    4   18     -8.48      0.00
    2    4   18     36.43      0.00
    1    5   18     -2.59      0.00
    3    5   18      1.31      0.00
    5    5   18     -7.39      0.00
    0    6   18    -27.39      0.00
    2    6   18     13.67      0.00
    4    6   18     11.75      0.00
    1    7   18     -6.75      0.00
    3    7   18      1.20      0.00
    5    7   18     -1.12      0.00
    0    8   18     -5.52      0.00
    2    8   18      5.51      0.00
    4    8   18     -5.86      0.00
    6    8   18     13.88      0.00
    1    9   18     -1.29      0.00
    3    9   18     -3.35      0.00
    5    9   18      1.38      0.00
    7    9   18      1.80      0.00
    9    9   18     -1.39      0.00
    0   10   18    -20.61      0.00
    2   10   18     15.59      0.00
    4   10   18     -6.01      0.00
    6   10   18    -12.40      0.00
    8   10   18      5.40      0.00
    1   11   18      9.41      0.00
    3   11   18      5.37      0.00
    5   11   18    -11.31      0.00
    7   11   18     -0.91      0.00
    9   11   18    -10.62      0.00
   11   11   18      9.00      0.00
    0   12   18     22.83      0.00
    2   12   18     -7.17      0.00
    4   12   18      2.69      0.00
    6   12   18      1.10      0.00
    8   12   18      5.75      0.00
   10   12   18     -0.51      0.00
    1   13   18     -4.66      0.00
    3   13   18     -3.73      0.00
    5   13   18      5.86      0.00
    7   13   18    -11.23      0.00
    9   13   18     -0.20      0.00
   11   13   18     -2.68      0.00
   13   13   18      0.52      0.00
    0   14   18    -11.94      0.00
    2   14   18      7.11      0.00
    4   14   18      1.98      0.00
    6   14   18     -0.59      0.00
    8   14   18      6.70      0.00
   10   14   18     -1.66      0.00
   12   14   18      7.68      0.00
    1   15   18     -0.14      0.00
    3   15   18      1.72      0.00
    5   15   18     -0.98      0.00
    7   15   18     -3.36      0.00
    9   15   18     -7.90      0.00
   11   15   18     -3.62      0.00
   13   15   18      2.45      0.00
   15   15   18      2.92      0.00
    0   16   18      4.44      0.00
    2   16   18      4.09      0.00
    4   16   18      0.55      0.00
    6   16   18      1.81      0.00
    8   16   18     -6.27      0.00
   10   16   18     -5.26      0.00
   12   16   18    -14.62      0.00
   14   16   18     -4.26      0.00
    1   17   18      0.32      0.00
    3   17   18     16.70      0.00
    5   17   18      6.43      0.00
    7   17   18     -0.82      0.00
    9   17   18    -10.75      0.00
   11   17   18     -3.87      0.00
   13   17   18     -5.14      0.00
   15   17   18      6.62      0.00
    0   18   18     -2.59      0.00
    2   18   18      5.40      0.00
    4   18   18     -0.71      0.00
    6   18   18      5.83      0.00
    8   18   18     -5.83      0.00
   10   18   18     -4.22      0.00
   12   18   18     -0.35      0.00
   14   18   18     -3.27      0.00
    1   19   18      3.86      0.00
    3   19   18     -1.04      0.00
    5   19   18      1.99      0.00
    7   19   18      5.46      0.00
    9   19   18      4.35      0.00
   11   19   18      3.66      0.00
   13   19   18    -10.09      0.00
    0   20   18    -17.52      0.00
    2   20   18    -14.82      0.00
    4   20   18      9.72      0.00
    6   20   18      9.88      0.00
    8   20   18     -2.35      0.00
   10   20   18      7.05      0.00
    1   21   18    -17.94      0.00
    3   21   18      7.33      0.00
    5   21   18     -2.50      0.00
    7   21   18     -3.25      0.00
    9   21   18     -4.54      0.00
    0   22   18     -0.46      0.00
    2   22   18     -4.01      0.00
    4   22   18     -5.43      0.00
    6   22   18     18.44      0.00
    1   23   18      5.22      0.00
    0    1   19    -26.59      0.00
    1    2   19    -13.19      0.00
    0    3   19     -7.86      0.00
    2    3   19      5.48      0.00
    1    4   19      3.83      0.00
    3    4   19     -2.60      0.00
    0    5   19     22.29      0.00
    2    5   19    -14.21      0.00
    4    5   19      3.38      0.00
    1    6   19     23.19      0.00
    3    6   19      7.56      0.00
    5    6   19     10.75      0.00
    0    7   19     -3.32      0.00
    2    7   19     14.19      0.00
    4    7   19      5.16      0.00
    6    7   19    -12.38      0.00
    1    8   19      7.62      0.00
    3    8   19      3.70      0.00
    5    8   19      7.66      0.00
    7    8   19      9.47      0.00
    0    9   19     11.93      0.00
    2    9   19      6.70      0.00
    4    9   19     -2.62      0.00
    6    9   19     -0.29      0.00
    8    9   19    -11.68      0.00
    1   10   19      8.33      0.00
    3   10   19     10.98      0.00
    5   10   19     10.40      0.00
    7   10   19     -2.29      0.00
    9   10   19     -5.82      0.00
    0   11   19     20.98      0.00
    2   11   19      5.06      0.00
    4   11   19      2.82      0.00
    6   11   19     -2.10      0.00
    8   11   19     -0.13      0.00
   10   11   19     -3.92      0.00
    1   12   19     12.47      0.00
    3   12   19      8.89      0.00
    5   12   19     -8.38      0.00
    7   12   19      0.81      0.00
    9   12   19      3.10      0.00
   11   12   19     -9.36      0.00
    0   13   19     -6.45      0.00
    2   13   19      7.50      0.00
    4   13   19      2.84      0.00
    6   13   19      5.19      0.00
    8   13   19     -3.74      0.00
   10   13   19      1.15      0.00
   12   13   19     -9.57      0.00
    1   14   19     -5.82      0.00
    3   14   19     -3.40      0.00
    5   14   19      1.15      0.00
    7   14   19     12.96      0.00
    9   14   19     -4.56      0.00
   11   14   19     -5.34      0.00
   13   14   19     -1.77      0.00
    0   15   19      1.54      0.00
    2   15   19     -3.43      0.00
    4   15   19      7.99      0.00
    6   15   19     -7.00      0.00
    8   15   19      1.01      0.00
   10   15   19     -1.39      0.00
   12   15   19     -9.37      0.00
   14   15   19     -2.65      0.00
    1   16   19     -5.68      0.00
    3   16   19     10.58      0.00
    5   16   19      0.37      0.00
    7   16   19     -5.10      0.00
    9   16   19      2.27      0.00
   11   16   19     -3.69      0.00
   13   16   19      0.06      0.00
   15   16   19      7.54      0.00
    0   17   19      4.38      0.00
    2   17   19      2.07      0.00
    4   17   19     14.62      0.00
    6   17   19     12.48      0.00
    8   17   19      3.67      0.00
   10   17   19     -5.85      0.00
   12   17   19      0.62      0.00
   14   17   19     -0.53      0.00
    1   18   19      0.73      0.00
    3   18   19    -12.40      0.00
    5   18   19      0.65      0.00
    7   18   19     20.40      0.00
    9   18   19     -1.98      0.00
   11   18   19     -6.04      0.00
   13   18   19      9.98      0.00
    0   19   19     -6.44      0.00
    2   19   19     -3.14      0.00
    4   19   19      9.34      0.00
    6   19   19      3.33      0.00
    8   19   19     -1.68      0.00
   10   19   19      6.17      0.00
   12   19   19      0.66      0.00
    1   20   19    -11.45      0.00
    3   20   19     -1.01      0.00
    5   20   19      2.80      0.00
    7   20   19     -3.02      0.00
    9   20   19      4.55      0.00
   11   20   19      8.20      0.00
    0   21   19    -17.73      0.00
    2   21   19      5.72      0.00
    4   21   19      2.95      0.00
    6   21   19      1.23      0.00
    8   21   19     -5.31      0.00
    1   22   19    -11.42      0.00
    3   22   19    -16.20      0.00
    5   22   19    -13.76      0.00
    0   23   19      2.23      0.00
    0    0   20     34.00      0.00
    0    2   20     47.63      0.00
    2    2   20     28.22      0.00
    1    3   20      9.28      0.00
    0    4   20    -15.44      0.00
    2    4   20    -52.84      0.00
    4    4   20    -16.09      0.00
    1    5   20     13.79      0.00
    3    5   20     12.75      0.00
    0    6   20     18.67      0.00
    2    6   20     12.10      0.00
    4    6   20     -4.66      0.00
    6    6   20    -10.47      0.00
    1    7   20      5.32      0.00
    3    7   20      9.26      0.00
    5    7   20     -1.75      0.00
    0    8   20     24.52      0.00
    2    8   20    -16.94      0.00
    4    8   20     27.69      0.00
    6    8   20      5.01      0.00
    8    8   20      4.10      0.00
    1    9   20     11.42      0.00
    3    9   20     -3.88      0.00
    5    9   20      3.04      0.00
    7    9   20     -4.61      0.00
    0   10   20      8.50      0.00
    2   10   20     -4.69      0.00
    4   10   20     -4.73      0.00
    6   10   20      7.75      0.00
    8   10   20      4.47      0.00
   10   10   20      1.13      0.00
    1   11   20     -4.94      0.00
    3   11   20     -3.38      0.00
    5   11   20      0.39      0.00
    7   11   20      2.88      0.00
    9   11   20     -6.03      0.00
    0   12   20      3.41      0.00
    2   12   20      0.74      0.00
    4   12   20     -0.95      0.00
    6   12   20     -4.74      0.00
    8   12   20     10.48      0.00
   10   12   20      1.24      0.00
   12   12   20     -2.50      0.00
    1   13   20     -5.85      0.00
    3   13   20     -8.93      0.00
    5   13   20      3.40      0.00
    7   13   20    -16.70      0.00
    9   13   20      3.34      0.00
   11   13   20     15.62      0.00
    0   14   20     -0.04      0.00
    2   14   20      3.74      0.00
    4   14   20     -7.17      0.00
    6   14   20      2.42      0.00
    8   14   20     -1.13      0.00
   10   14   20      1.41      0.00
   12   14   20     14.26      0.00
   14   14   20     31.52      0.00
    1   15   20    -19.23      0.00
    3   15   20      0.31      0.00
    5   15   20     -3.87      0.00
    7   15   20     20.61      0.00
    9   15   20      3.91      0.00
   11   15   20     -0.04      0.00
   13   15   20      6.03      0.00
    0   16   20     -0.96      0.00
    2   16   20      0.62      0.00
    4   16   20      3.48      0.00
    6   16   20      4.03      0.00
    8   16   20      4.96      0.00
   10   16   20     11.63      0.00
   12   16   20      1.25      0.00
   14   16   20      1.88      0.00
   16   16   20     -1.12      0.00
    1   17   20     -3.19      0.00
    3   17   20     -3.55      0.00
    5   17   20     15.84      0.00
    7   17   20     -1.02      0.00
    9   17   20      7.64      0.00
   11   17   20     -5.41      0.00
   13   17   20    -11.24      0.00
   15   17   20      1.82      0.00
    0   18   20     -9.58      0.00
    2   18   20     -3.26      0.00
    4   18   20     -0.68      0.00
    6   18   20      2.65      0.00
    8   18   20      5.71      0.00
   10   18   20     -0.56      0.00
   12   18   20     -4.67      0.00
   14   18   20     -3.41      0.00
    1   19   20    -19.81      0.00
    3   19   20     -0.12      0.00
    5   19   20     -7.04      0.00
    7   19   20     -1.41      0.00
    9   19   20    -13.63      0.00
   11   19   20     -3.00      0.00
    0   20   20      5.72      0.00
    2   20   20     -7.78      0.00
    4   20   20     -3.56      0.00
    6   20   20     -4.48      0.00
    8   20   20     10.30      0.00
   10   20   20     -7.16      0.00
    1   21   20      3.73      0.00
    3   21   20    -19.70      0.00
    5   21   20     -8.09      0.00
    7   21   20     -4.13      0.00
    9   21   20     -3.50      0.00
    0   22   20     -5.66      0.00
    2   22   20      6.10      0.00
    4   22   20     -4.24      0.00
    6   22   20     10.73      0.00
    0    1   21     19.25      0.00
    1    2   21     -3.43      0.00
    0    3   21    -22.99      0.00
    2    3   21      6.57      0.00
    1    4   21      3.14      0.00
    3    4   21     -4.44      0.00
    0    5   21     -3.93      0.00
    2    5   21     13.91      0.00
    4    5   21     -0.26      0.00
    1    6   21    -20.60      0.00
    3    6   21     -4.01      0.00
    5    6   21     -7.09      0.00
    0    7   21    -16.28      0.00
    2    7   21    -16.29      0.00
    4    7   21     -0.96      0.00
    6    7   21      0.73      0.00
    1    8   21     -7.07      0.00
    3    8   21      1.60      0.00
    5    8   21     -4.61      0.00
    7    8   21      5.06      0.00
    0    9   21    -12.42      0.00
    2    9   21     -2.67      0.00
    4    9   21      1.89      0.00
    6    9   21     -7.92      0.00
    8    9   21     -1.53      0.00
    1   10   21     -3.61      0.00
    3   10   21     -5.67      0.00
    5   10   21     -1.72      0.00
    7   10   21      9.75      0.00
    9   10   21      9.70      0.00
    0   11   21     35.79      0.00
    2   11   21     -5.05      0.00
    4   11   21      2.90      0.00
    6   11   21     -4.70      0.00
    8   11   21     -7.88      0.00
   10   11   21     -0.99      0.00
    1   12   21     -6.23      0.00
    3   12   21     -4.94      0.00
    5   12   21     -9.50      0.00
    7   12   21     -0.72      0.00
    9   12   21     12.57      0.00
   11   12   21      5.01      0.00
    0   13   21     -8.69      0.00
    2   13   21     -6.62      0.00
    4   13   21     -0.47      0.00
    6   13   21      0.51      0.00
    8   13   21      5.76      0.00
   10   13   21      5.51      0.00
   12   13   21      6.86      0.00
    1   14   21      5.75      0.00
    3   14   21     -3.88      0.00
    5   14   21      0.74      0.00
    7   14   21      3.51      0.00
    9   14   21    -10.28      0.00
   11   14   21     -7.52      0.00
   13   14   21      5.22      0.00
    0   15   21     18.02      0.00
    2   15   21      1.85      0.00
    4   15   21     -1.07      0.00
    6   15   21      4.66      0.00
    8   15   21     -6.54      0.00
   10   15   21      5.53      0.00
   12   15   21     -8.04      0.00
   14   15   21      2.63      0.00
    1   16   21      2.29      0.00
    3   16   21     10.52      0.00
    5   16   21      0.51      0.00
    7   16   21      4.07      0.00
    9   16   21     -4.12      0.00
   11   16   21     -3.64      0.00
   13   16   21    -10.06      0.00
   15   16   21     10.90      0.00
    0   17   21     -6.43      0.00
    2   17   21      2.20      0.00
    4   17   21     10.36      0.00
    6   17   21     -0.74      0.00
    8   17   21     -4.88      0.00
   10   17   21      2.20      0.00
   12   17   21      1.43      0.00
   14   17   21     -5.88      0.00
    1   18   21      4.02      0.00
    3   18   21      1.67      0.00
    5   18   21      0.58      0.00
    7   18   21      2.05      0.00
    9   18   21     -4.25      0.00
   11   18   21      4.24      0.00
   13   18   21      2.01      0.00
    0   19   21      4.65      0.00
    2   19   21     -0.08      0.00
    4   19   21      2.66      0.00
    6   19   21     -2.95      0.00
    8   19   21      1.51      0.00
   10   19   21      7.87      0.00
   12   19   21     11.30      0.00
    1   20   21     -2.60      0.00
    3   20   21      0.02      0.00
    5   20   21      7.30      0.00
    7   20   21      0.64      0.00
    9   20   21     -3.41      0.00
    0   21   21      1.03      0.00
    2   21   21      6.60      0.00
    4   21   21      2.15      0.00
    6   21   21      2.95      0.00
    8   21   21      5.69      0.00
    1   22   21     11.01      0.00
    3   22   21      2.12      0.00
    5   22   21     20.55      0.00
    1    1   22    -24.56      0.00
    0    2   22      7.96      0.00
    1    3   22     13.95      0.00
    3    3   22     11.35      0.00
    0    4   22    -16.20      0.00
    2    4   22     -5.28      0.00
    1    5   22    -14.95      0.00
    3    5   22     -8.32      0.00
    5    5   22      5.50      0.00
    0    6   22     -0.02      0.00
    2    6   22     13.14      0.00
    4    6   22    -12.88      0.00
    1    7   22    -12.69      0.00
    3    7   22    -16.07      0.00
    5    7   22     -6.83      0.00
    7    7   22      4.51      0.00
    0    8   22    -11.36      0.00
    2    8   22      8.19      0.00
    4    8   22      2.08      0.00
    6    8   22     -3.43      0.00
    1    9   22      8.55      0.00
    3    9   22      0.93      0.00
    5    9   22      0.55      0.00
    7    9   22     -7.97      0.00
    9    9   22      7.76      0.00
    0   10   22    -11.30      0.00
    2   10   22      4.49      0.00
    4   10   22     -0.87      0.00
    6   10   22     11.79      0.00
    8   10   22      1.17      0.00
    1   11   22      9.77      0.00
    3   11   22      3.73      0.00
    5   11   22      0.64      0.00
    7   11   22      5.83      0.00
    9   11   22      0.37      0.00
   11   11   22      1.67      0.00
    0   12   22     -3.90      0.00
    2   12   22      3.74      0.00
    4   12   22      6.26      0.00
    6   12   22     -3.23      0.00
    8   12   22      1.12      0.00
   10   12   22    -11.36      0.00
    1   13   22      5.29      0.00
    3   13   22     -7.75      0.00
    5   13   22      0.42      0.00
    7   13   22      2.30      0.00
    9   13   22     -1.13      0.00
   11   13   22      2.67      0.00
   13   13   22     -1.89      0.00
    0   14   22     -3.45      0.00
    2   14   22     -3.11      0.00
    4   14   22     -0.54      0.00
    6   14   22      2.41      0.00
    8   14   22      8.13      0.00
   10   14   22     -9.29      0.00
   12   14   22     -3.01      0.00
    1   15   22      1.04      0.00
    3   15   22      6.72      0.00
    5   15   22      3.40      0.00
    7   15   22     -6.29      0.00
    9   15   22      1.56      0.00
   11   15   22     -2.70      0.00
   13   15   22     -3.79      0.00
   15   15   22      2.09      0.00
    0   16   22     -4.18      0.00
    2   16   22      2.40      0.00
    4   16   22      7.42      0.00
    6   16   22      2.27      0.00
    8   16   22     -2.64      0.00
   10   16   22     -8.99      0.00
   12   16   22     -5.67      0.00
   14   16   22      3.20      0.00
    1   17   22      3.91      0.00
    3   17   22     -0.35      0.00
    5   17   22      5.49      0.00
    7   17   22      6.38      0.00
    9   17   22     -3.06      0.00
   11   17   22      3.31      0.00
   13   17   22      5.22      0.00
   15   17   22      3.11      0.00
    0   18   22     -2.98      0.00
    2   18   22      5.97      0.00
    4   18   22     -6.51      0.00
    6   18   22      0.27      0.00
    8   18   22    -24.25      0.00
   10   18   22    -12.39      0.00
   12   18   22    -10.02      0.00
    1   19   22     -7.76      0.00
    3   19   22     15.84      0.00
    5   19   22      1.91      0.00
    7   19   22      3.35      0.00
    9   19   22      6.92      0.00
   11   19   22      2.73      0.00
    0   20   22     -2.85      0.00
    2   20   22     -6.55      0.00
    4   20   22      5.66      0.00
    6   20   22      5.50      0.00
    8   20   22     -6.85      0.00
   10   20   22     -1.72      0.00
    1   21   22     -0.81      0.00
    3   21   22      0.91      0.00
    5   21   22     10.49      0.00
    7   21   22      6.71      0.00
    0   22   22    -10.93      0.00
    2   22   22     -2.98      0.00
    4   22   22      4.27      0.00
    0    1   23     18.01      0.00
    1    2   23     -6.25      0.00
    0    3   23     -9.76      0.00
    2    3   23     12.37      0.00
    1    4   23      8.51      0.00
    3    4   23      1.60      0.00
    0    5   23     36.09      0.00
    2    5   23      6.33      0.00
    4    5   23      1.75      0.00
    1    6   23      5.06      0.00
    3    6   23      6.50      0.00
    5    6   23      7.79      0.00
    0    7   23      2.87      0.00
    2    7   23     -2.31      0.00
    4    7   23      4.10      0.00
    6    7   23     -6.73      0.00
    1    8   23      1.92      0.00
    3    8   23     -1.23      0.00
    5    8   23      2.36      0.00
    7    8   23     -3.84      0.00
    0    9   23      8.55      0.00
    2    9   23     -4.33      0.00
    4    9   23     -1.90      0.00
    6    9   23      2.54      0.00
    8    9   23     20.82      0.00
    1   10   23      7.00      0.00
    3   10   23     -2.72      0.00
    5   10   23      7.34      0.00
    7   10   23     -5.13      0.00
    9   10   23     -1.04      0.00
    0   11   23      2.37      0.00
    2   11   23      8.62      0.00
    4   11   23     -0.42      0.00
    6   11   23     -0.98      0.00
    8   11   23     -3.66      0.00
   10   11   23     13.69      0.00
    1   12   23      3.63      0.00
    3   12   23      2.40      0.00
    5   12   23      4.58      0.00
    7   12   23     -4.71      0.00
    9   12   23     -4.52      0.00
   11   12   23     -2.11      0.00
    0   13   23      5.18      0.00
    2   13   23     -4.22      0.00
    4   13   23      1.66      0.00
    6   13   23      1.06      0.00
    8   13   23     -7.85      0.00
   10   13   23     -3.77      0.00
   12   13   23      6.91      0.00
    1   14   23     -4.88      0.00
    3   14   23      3.00      0.00
    5   14   23     -3.82      0.00
    7   14   23      7.66      0.00
    9   14   23     -4.46      0.00
   11   14   23     -3.46      0.00
   13   14   23     15.96      0.00
    0   15   23    -14.45      0.00
    2   15   23     -3.79      0.00
    4   15   23      2.38      0.00
    6   15   23      4.18      0.00
    8   15   23     -1.13      0.00
   10   15   23      2.65      0.00
   12   15   23      1.01      0.00
   14   15   23     -0.14      0.00
    1   16   23     -0.65      0.00
    3   16   23     -0.96      0.00
    5   16   23      0.72      0.00
    7   16   23     -8.12      0.00
    9   16   23      1.50      0.00
   11   16   23     -0.52      0.00
   13   16   23     -8.70      0.00
   15   16   23      1.10      0.00
    0   17   23      3.81      0.00
    2   17   23    -13.83      0.00
    4   17   23     12.39      0.00
    6   17   23     -7.47      0.00
    8   17   23      5.93      0.00
   10   17   23     -7.10      0.00
   12   17   23    -13.11      0.00
   14   17   23      6.50      0.00
    1   18   23    -10.06      0.00
    3   18   23      8.51      0.00
    5   18   23    -12.76      0.00
    7   18   23     -2.94      0.00
    9   18   23    -17.79      0.00
   11   18   23      1.46      0.00
   13   18   23      2.31      0.00
    0   19   23     -8.98      0.00
    2   19   23      1.32      0.00
    4   19   23    -12.82      0.00
    6   19   23     -0.37      0.00
    8   19   23    -16.63      0.00
   10   19   23    -12.50      0.00
   12   19   23      7.04      0.00
    1   20   23     12.54      0.00
    3   20   23     -1.61      0.00
    5   20   23     -5.15      0.00
    7   20   23      2.14      0.00
    9   20   23     13.81      0.00
    0   21   23      8.12      0.00
    2   21   23      4.37      0.00
    4   21   23     -3.79      0.00
    6   21   23      7.95      0.00
    8   21   23     -2.16      0.00
    1   22   23     -8.33      0.00
    3   22   23      3.26      0.00
    5   22   23     -7.68      0.00
    0    0   24     26.63      0.00
    0    2   24      2.92      0.00
    2    2   24    -27.39      0.00
    1    3   24     12.69      0.00
    0    4   24     -5.58      0.00
    2    4   24     -0.53      0.00
    4    4   24      7.00      0.00
    1    5   24      4.93      0.00
    3    5   24      3.72      0.00
    0    6   24     23.02      0.00
    2    6   24    -11.49      0.00
    4    6   24     10.36      0.00
    6    6   24     21.06      0.00
    1    7   24     -0.87      0.00
    3    7   24      6.77      0.00
    5    7   24      2.68      0.00
    0    8   24      1.78      0.00
    2    8   24     -8.65      0.00
    4    8   24      5.79      0.00
    6    8   24     -2.88      0.00
    8    8   24      0.83      0.00
    1    9   24      4.87      0.00
    3    9   24      3.95      0.00
    5    9   24     -1.40      0.00
    7    9   24      4.24      0.00
    0   10   24     15.37      0.00
    2   10   24     -3.64      0.00
    4   10   24     -0.82      0.00
    6   10   24      0.68      0.00
    8   10   24     -0.82      0.00
   10   10   24     -2.26      0.00
    1   11   24     13.83      0.00
    3   11   24     -2.24      0.00
    5   11   24      6.25      0.00
    7   11   24     -0.76      0.00
    9   11   24     -5.87      0.00
    0   12   24     11.36      0.00
    2   12   24     -1.15      0.00
    4   12   24      5.30      0.00
    6   12   24     -2.08      0.00
    8   12   24     -2.17      0.00
   10   12   24      5.68      0.00
   12   12   24     -0.50      0.00
    1   13   24     -5.40      0.00
    3   13   24     -7.54      0.00
    5   13   24     -5.60      0.00
    7   13   24      3.83      0.00
    9   13   24      0.77      0.00
   11   13   24      2.20      0.00
    0   14   24     -3.27      0.00
    2   14   24     -3.24      0.00
    4   14   24      1.37      0.00
    6   14   24      8.92      0.00
    8   14   24     -1.33      0.00
   10   14   24     -3.45      0.00
   12   14   24      4.29      0.00
   14   14   24      2.47      0.00
    1   15   24     -1.85      0.00
    3   15   24     -5.38      0.00
    5   15   24     13.56      0.00
    7   15   24      5.85      0.00
    9   15   24      8.72      0.00
   11   15   24     -1.26      0.00
   13   15   24      4.31      0.00
    0   16   24    -19.10      0.00
    2   16   24      2.90      0.00
    4   16   24      0.50      0.00
    6   16   24     -6.69      0.00
    8   16   24     -2.45      0.00
   10   16   24     -5.57      0.00
   12   16   24     -7.83      0.00
   14   16   24     -6.55      0.00
    1   17   24     -1.80      0.00
    3   17   24      2.14      0.00
    5   17   24     -5.77      0.00
    7   17   24     -0.82      0.00
    9   17   24     -6.25      0.00
   11   17   24     -4.36      0.00
   13   17   24    -14.33      0.00
    0   18   24     -2.37      0.00
    2   18   24      0.77      0.00
    4   18   24     -5.52      0.00
    6   18   24      0.38      0.00
    8   18   24      8.81      0.00
   10   18   24     -5.77      0.00
   12   18   24      4.13      0.00
    1   19   24     -3.26      0.00
    3   19   24     -3.16      0.00
    5   19   24      6.96      0.00
    7   19   24      8.19      0.00
    9   19   24     -0.80      0.00
   11   19   24     -4.70      0.00
    0   20   24     -2.26      0.00
    2   20   24     -7.87      0.00
    4   20   24      3.68      0.00
    6   20   24      0.39      0.00
    8   20   24      3.24      0.00
   10   20   24     10.79      0.00
    1   21   24     -0.10      0.00
    3   21   24      6.36      0.00
    5   21   24      1.71      0.00
    7   21   24     -6.24      0.00
    0   22   24      2.27      0.00
    2   22   24      9.16      0.00
    4   22   24     -7.20      0.00
    0    1   25     -1.69      0.00
    1    2   25     10.95      0.00
    0    3   25      3.78      0.00
    2    3   25     21.48      0.00
    1    4   25    -15.24      0.00
    3    4   25      4.87      0.00
    0    5   25    -11.14      0.00
    2    5   25    -11.11      0.00
    4    5   25      4.03      0.00
    1    6   25     10.37      0.00
    3    6   25     -5.89      0.00
    5    6   25     -4.52      0.00
    0    7   25    -10.45      0.00
    2    7   25      7.96      0.00
    4    7   25     -7.88      0.00
    6    7   25     -0.18      0.00
    1    8   25     -9.63      0.00
    3    8   25      3.89      0.00
    5    8   25     -2.60      0.00
    7    8   25     -1.50      0.00
    0    9   25      6.73      0.00
    2    9   25     -5.09      0.00
    4    9   25      6.67      0.00
    6    9   25      8.16      0.00
    8    9   25      9.48      0.00
    1   10   25     -9.31      0.00
    3   10   25     -9.73      0.00
    5   10   25     -7.40      0.00
    7   10   25      2.86      0.00
    9   10   25     -1.02      0.00
    0   11   25      8.32      0.00
    2   11   25     -7.67      0.00
    4   11   25      1.53      0.00
    6   11   25      4.86      0.00
    8   11   25     -1.24      0.00
   10   11   25     -8.28      0.00
    1   12   25      1.09      0.00
    3   12   25      0.48      0.00
    5   12   25      2.96      0.00
    7   12   25      7.28      0.00
    9   12   25     -2.64      0.00
   11   12   25     -3.82      0.00
    0   13   25     -3.85      0.00
    2   13   25     -5.28      0.00
    4   13   25     -3.08      0.00
    6   13   25     -0.22      0.00
    8   13   25      2.48      0.00
   10   13   25      8.66      0.00
   12   13   25      3.86      0.00
    1   14   25     -7.24      0.00
    3   14   25      1.30      0.00
    5   14   25     -2.34      0.00
    7   14   25     -5.97      0.00
    9   14   25     -0.32      0.00
   11   14   25      3.55      0.00
   13   14   25     -1.92      0.00
    0   15   25     -3.37      0.00
    2   15   25    -18.55      0.00
    4   15   25     -5.65      0.00
    6   15   25     -3.79      0.00
    8   15   25      0.78      0.00
   10   15   25      8.14      0.00
   12   15   25      4.92      0.00
   14   15   25     16.88      0.00
    1   16   25     -4.06      0.00
    3   16   25     -0.95      0.00
    5   16   25     -0.56      0.00
    7   16   25      4.11      0.00
    9   16   25     -3.40      0.00
   11   16   25     -7.90      0.00
   13   16   25     -1.15      0.00
   15   16   25     -7.61      0.00
    0   17   25     -0.62      0.00
    2   17   25     -0.68      0.00
    4   17   25     -4.13      0.00
    6   17   25      5.27      0.00
    8   17   25      1.90      0.00
   10   17   25      4.07      0.00
   12   17   25     -1.26      0.00
   14   17   25     10.77      0.00
    1   18   25     -0.41      0.00
    3   18   25      4.62      0.00
    5   18   25     -4.17      0.00
    7   18   25     -9.96      0.00
    9   18   25    -25.54      0.00
   11   18   25      0.64      0.00
   13   18   25     -9.57      0.00
    0   19   25     -5.14      0.00
    2   19   25      0.30      0.00
    4   19   25      0.11      0.00
    6   19   25      5.91      0.00
    8   19   25      7.16      0.00
   10   19   25    -11.39      0.00
    1   20   25     -0.87      0.00
    3   20   25      0.76      0.00
    5   20   25     10.87      0.00
    7   20   25      9.18      0.00
    9   20   25     -2.16      0.00
    0   21   25      5.10      0.00
    2   21   25     -8.74      0.00
    4   21   25      1.19      0.00
    6   21   25      1.76      0.00
    1   22   25    -11.12      0.00
    3   22   25     -1.41      0.00
    1    1   26     13.23      0.00
    0    2   26    -10.54      0.00
    1    3   26      0.58      0.00
    3    3   26     -6.76      0.00
    0    4   26      2.45      0.00
    2    4   26     -0.10      0.00
    1    5   26    -13.02      0.00
    3    5   26     -8.86      0.00
    5    5   26     -6.79      0.00
    0    6   26     -5.39      0.00
    2    6   26      7.53      0.00
    4    6   26      0.59      0.00
    1    7   26     -6.95      0.00
    3    7   26    -11.99      0.00
    5    7   26     -0.47      0.00
    7    7   26      4.63      0.00
    0    8   26     -9.33      0.00
    2    8   26     -6.36      0.00
    4    8   26      0.41      0.00
    6    8   26     -1.55      0.00
    1    9   26     -2.60      0.00
    3    9   26     -6.14      0.00
    5    9   26      3.89      0.00
    7    9   26     -6.54      0.00
    9    9   26      4.30      0.00
    0   10   26      2.85      0.00
    2   10   26      6.14      0.00
    4   10   26     -4.34      0.00
    6   10   26      7.72      0.00
    8   10   26      2.67      0.00
    1   11   26      5.02      0.00
    3   11   26      3.07      0.00
    5   11   26     -2.46      0.00
    7   11   26      5.47      0.00
    9   11   26     -7.41      0.00
   11   11   26      0.97      0.00
    0   12   26     -2.66      0.00
    2   12   26     -1.12      0.00
    4   12   26     -2.22      0.00
    6   12   26    -12.70      0.00
    8   12   26     -5.33      0.00
   10   12   26     -9.67      0.00
    1   13   26      5.72      0.00
    3   13   26      7.16      0.00
    5   13   26     -3.17      0.00
    7   13   26     -4.34      0.00
    9   13   26      2.38      0.00
   11   13   26      8.87      0.00
   13   13   26      9.38      0.00
    0   14   26     -6.09      0.00
    2   14   26     -2.89      0.00
    4   14   26     -5.19      0.00
    6   14   26     -8.18      0.00
    8   14   26     -4.41      0.00
   10   14   26     -7.52      0.00
   12   14   26      1.05      0.00
    1   15   26     11.03      0.00
    3   15   26      2.92      0.00
    5   15   26     11.97      0.00
    7   15   26     -4.02      0.00
    9   15   26     -1.38      0.00
   11   15   26     -0.73      0.00
   13   15   26     -2.21      0.00
   15   15   26      5.52      0.00
    0   16   26      5.82      0.00
    2   16   26      2.42      0.00
    4   16   26      2.27      0.00
    6   16   26     -7.71      0.00
    8   16   26     -1.17      0.00
   10   16   26     -9.88      0.00
   12   16   26    -17.83      0.00
   14   16   26     -2.48      0.00
    1   17   26     -1.61      0.00
    3   17   26      5.63      0.00
    5   17   26      0.76      0.00
    7   17   26     12.15      0.00
    9   17   26      9.58      0.00
   11   17   26     -5.48      0.00
   13   17   26     10.02      0.00
    0   18   26     -9.25      0.00
    2   18   26      5.97      0.00
    4   18   26     -3.28      0.00
    6   18   26     -1.22      0.00
    8   18   26    -21.55      0.00
   10   18   26    -11.66      0.00
   12   18   26     -3.28      0.00
    1   19   26      2.56      0.00
    3   19   26     -1.57      0.00
    5   19   26      6.57      0.00
    7   19   26     -0.26      0.00
    9   19   26     -0.61      0.00
   11   19   26      7.01      0.00
    0   20   26     -2.58      0.00
    2   20   26      3.90      0.00
    4   20   26    -10.02      0.00
    6   20   26     -5.76      0.00
    8   20   26     -7.10      0.00
    1   21   26      7.67      0.00
    3   21   26     -1.92      0.00
    5   21   26      4.15      0.00
    7   21   26     28.72      0.00
    0   22   26    -13.45      0.00
    2   22   26    -13.04      0.00
    0    1   27     -6.78      0.00
    1    2   27     -0.19      0.00
    0    3   27     17.19      0.00
    2    3   27     10.08      0.00
    1    4   27     -0.59      0.00
    3    4   27      5.47      0.00
    0    5   27     -3.22      0.00
    2    5   27    -10.50      0.00
    4    5   27     -0.51      0.00
    1    6   27      2.49      0.00
    3    6   27     -0.57      0.00
    5    6   27     13.41      0.00
    0    7   27      1.62      0.00
    2    7   27     -6.88      0.00
    4    7   27    -14.60      0.00
    6    7   27     -1.94      0.00
    1    8   27     -0.09      0.00
    3    8   27     -2.53      0.00
    5    8   27      1.61      0.00
    7    8   27      4.08      0.00
    0    9   27     14.39      0.00
    2    9   27      0.09      0.00
    4    9   27      4.16      0.00
    6    9   27     -5.55      0.00
    8    9   27      4.86      0.00
    1   10   27      4.32      0.00
    3   10   27     -2.91      0.00
    5   10   27      6.17      0.00
    7   10   27     -2.86      0.00
    9   10   27     -2.21      0.00
    0   11   27      6.26      0.00
    2   11   27     -4.01      0.00
    4   11   27      1.95      0.00
    6   11   27      8.83      0.00
    8   11   27      2.78      0.00
   10   11   27      4.73      0.00
    1   12   27      3.70      0.00
    3   12   27      1.19      0.00
    5   12   27      3.60      0.00
    7   12   27    -11.62      0.00
    9   12   27     -5.32      0.00
   11   12   27     -0.79      0.00
    0   13   27     -4.62      0.00
    2   13   27      3.07      0.00
    4   13   27     -5.71      0.00
    6   13   27     -3.04      0.00
    8   13   27      1.08      0.00
   10   13   27     -1.49      0.00
   12   13   27     -3.77      0.00
    1   14   27     -7.48      0.00
    3   14   27     -1.51      0.00
    5   14   27     -5.16      0.00
    7   14   27     -1.31      0.00
    9   14   27      1.94      0.00
   11   14   27      1.24      0.00
   13   14   27     -0.53      0.00
    0   15   27     -5.86      0.00
    2   15   27     -5.28      0.00
    4   15   27      4.76      0.00
    6   15   27     10.24      0.00
    8   15   27      9.47      0.00
   10   15   27      0.39      0.00
   12   15   27     -9.07      0.00
   14   15   27     -1.33      0.00
    1   16   27     -7.42      0.00
    3   16   27      7.53      0.00
    5   16   27      0.56      0.00
    7   16   27      2.40      0.00
    9   16   27    -11.01      0.00
   11   16   27    -13.20      0.00
   13   16   27     -6.03      0.00
   15   16   27    -14.85      0.00
    0   17   27      1.13      0.00
    2   17   27     -5.36      0.00
    4   17   27     -6.96      0.00
    6   17   27      0.85      0.00
    8   17   27      2.37      0.00
   10   17   27     -5.30      0.00
   12   17   27     -1.00      0.00
   14   17   27     -1.24      0.00
    1   18   27      4.76      0.00
    3   18   27      5.21      0.00
    5   18   27     -6.76      0.00
    7   18   27      1.20      0.00
    9   18   27     -1.17      0.00
   11   18   27     -0.62      0.00
    0   19   27    -11.12      0.00
    2   19   27    -11.13      0.00
    4   19   27     11.49      0.00
    6   19   27     18.90      0.00
    8   19   27     15.12      0.00
   10   19   27      1.57      0.00
    1   20   27    -14.62      0.00
    3   20   27      6.17      0.00
    5   20   27     -0.76      0.00
    7   20   27    -13.43      0.00
    9   20   27      0.08      0.00
    0   21   27    -15.25      0.00
    2   21   27      1.02      0.00
    4   21   27    -10.83      0.00
    6   21   27      9.44      0.00
    1   22   27     -6.73      0.00
    0    0   28      9.90      0.00
    0    2   28     -3.20      0.00
    2    2   28    -15.04      0.00
    1    3   28      3.82      0.00
    0    4   28     20.64      0.00
    2    4   28      8.17      0.00
    4    4   28     13.60      0.00
    1    5   28     11.78      0.00
    3    5   28      7.83      0.00
    0    6   28      0.11      0.00
    2    6   28     -9.18      0.00
    4    6   28      6.31      0.00
    6    6   28      6.67      0.00
    1    7   28     11.44      0.00
    3    7   28      5.79      0.00
    5    7   28      6.75      0.00
    0    8   28     -7.23      0.00
    2    8   28     -8.43      0.00
    4    8   28     -6.47      0.00
    6    8   28     -4.98      0.00
    8    8   28     -2.63      0.00
    1    9   28     -3.70      0.00
    3    9   28      2.55      0.00
    5    9   28      3.01      0.00
    7    9   28     11.04      0.00
    0   10   28      6.68      0.00
    2   10   28    -10.66      0.00
    4   10   28      0.08      0.00
    6   10   28      2.60      0.00
    8   10   28     -8.18      0.00
   10   10   28     -7.76      0.00
    1   11   28      1.37      0.00
    3   11   28     -2.43      0.00
    5   11   28      7.72      0.00
    7   11   28      4.82      0.00
    9   11   28     -6.14      0.00
    0   12   28      2.60      0.00
    2   12   28     -2.45      0.00
    4   12   28      5.95      0.00
    6   12   28      1.33      0.00
    8   12   28      1.97      0.00
   10   12   28      2.35      0.00
   12   12   28      3.63      0.00
    1   13   28    -11.00      0.00
    3   13   28     -7.98      0.00
    5   13   28      0.11      0.00
    7   13   28      2.59      0.00
    9   13   28     -8.65      0.00
   11   13   28     -0.46      0.00
    0   14   28     -0.44      0.00
    2   14   28     -3.68      0.00
    4   14   28      3.19      0.00
    6   14   28      1.01      0.00
    8   14   28      2.13      0.00
   10   14   28      4.24      0.00
   12   14   28     -2.69      0.00
   14   14   28     13.35      0.00
    1   15   28     -9.29      0.00
    3   15   28     -7.40      0.00
    5   15   28     -2.74      0.00
    7   15   28     -1.19      0.00
    9   15   28     -2.42      0.00
   11   15   28     -4.97      0.00
   13   15   28      1.47      0.00
    0   16   28     -6.14      0.00
    2   16   28     11.13      0.00
    4   16   28      0.74      0.00
    6   16   28     11.23      0.00
    8   16   28     15.79      0.00
   10   16   28      2.13      0.00
   12   16   28      7.22      0.00
   14   16   28      0.97      0.00
    1   17   28     -8.45      0.00
    3   17   28     -9.55      0.00
    5   17   28     -8.31      0.00
    7   17   28     12.48      0.00
    9   17   28     -7.73      0.00
   11   17   28     -6.40      0.00
   13   17   28      2.65      0.00
    0   18   28      2.70      0.00
    2   18   28      9.72      0.00
    4   18   28      6.05      0.00
    6   18   28     -1.35      0.00
    8   18   28    -10.71      0.00
   10   18   28     -0.35      0.00
   12   18   28     15.36      0.00
    1   19   28     -6.51      0.00
    3   19   28     -5.87      0.00
    5   19   28      0.38      0.00
    7   19   28     -1.24      0.00
    9   19   28      3.89      0.00
   11   19   28    -17.33      0.00
    0   20   28      1.96      0.00
    2   20   28     -1.46      0.00
    4   20   28      7.42      0.00
    6   20   28      1.84      0.00
    8   20   28     17.63      0.00
    1   21   28     -0.10      0.00
    3   21   28     -4.26      0.00
    5   21   28     -0.74      0.00
    0   22   28    -11.25      0.00
    0    1   29     -6.72      0.00
    1    2   29      8.00      0.00
    0    3   29     -5.66      0.00
    2    3   29      6.27      0.00
    1    4   29     -6.60      0.00
    3    4   29      3.13      0.00
    0    5   29     -6.10      0.00
    2    5   29     -5.58      0.00
    4    5   29     -4.39      0.00
    1    6   29      6.01      0.00
    3    6   29      3.40      0.00
    5    6   29     -0.51      0.00
    0    7   29      2.51      0.00
    2    7   29     -2.52      0.00
    4    7   29     -0.89      0.00
    6    7   29      9.21      0.00
    1    8   29    -11.15      0.00
    3    8   29     -7.28      0.00
    5    8   29     -0.68      0.00
    7    8   29      0.31      0.00
    0    9   29      4.07      0.00
    2    9   29      4.28      0.00
    4    9   29     -1.20      0.00
    6    9   29     -7.53      0.00
    8    9   29     -0.04      0.00
    1   10   29     -8.09      0.00
    3   10   29      6.21      0.00
    5   10   29    -11.41      0.00
    7   10   29      4.54      0.00
    9   10   29      3.33      0.00
    0   11   29     -2.54      0.00
    2   11   29      4.22      0.00
    4   11   29      0.25      0.00
    6   11   29     -3.72      0.00
    8   11   29      0.96      0.00
   10   11   29     -1.42      0.00
    1   12   29      7.16      0.00
    3   12   29     -3.61      0.00
    5   12   29     -0.44      0.00
    7   12   29    -15.39      0.00
    9   12   29     10.79      0.00
   11   12   29     -5.53      0.00
    0   13   29     25.19      0.00
    2   13   29      0.67      0.00
    4   13   29     -8.30      0.00
    6   13   29     -3.68      0.00
    8   13   29    -10.50      0.00
   10   13   29     -4.75      0.00
   12   13   29      0.12      0.00
    1   14   29     -0.94      0.00
    3   14   29     -1.35      0.00
    5   14   29      0.50      0.00
    7   14   29     14.42      0.00
    9   14   29     -2.64      0.00
   11   14   29      6.80      0.00
   13   14   29     -1.40      0.00
    0   15   29     -3.17      0.00
    2   15   29     -1.09      0.00
    4   15   29     16.23      0.00
    6   15   29     12.32      0.00
    8   15   29      6.34      0.00
   10   15   29    -11.66      0.00
   12   15   29     -8.76      0.00
   14   15   29      3.74      0.00
    1   16   29      4.28      0.00
    3   16   29     10.29      0.00
    5   16   29      2.83      0.00
    7   16   29     16.85      0.00
    9   16   29      7.64      0.00
   11   16   29     -3.45      0.00
   13   16   29     14.05      0.00
    0   17   29     -2.46      0.00
    2   17   29      2.24      0.00
    4   17   29     -5.91      0.00
    6   17   29      1.77      0.00
    8   17   29      1.46      0.00
   10   17   29      3.38      0.00
   12   17   29    -17.56      0.00
    1   18   29      4.22      0.00
    3   18   29     -4.10      0.00
    5   18   29      3.81      0.00
    7   18   29      3.60      0.00
    9   18   29     -3.81      0.00
   11   18   29      4.96      0.00
    0   19   29    -10.46      0.00
    2   19   29    -10.66      0.00
    4   19   29     -2.27      0.00
    6   19   29      4.02      0.00
    8   19   29     -2.24      0.00
   10   19   29     -0.37      0.00
    1   20   29     -4.38      0.00
    3   20   29     -3.85      0.00
    5   20   29     -7.82      0.00
    7   20   29      6.45      0.00
    0   21   29      4.53      0.00
    2   21   29    -14.10      0.00
    4   21   29     -3.33      0.00
    6   21   29      5.51      0.00
    1    1   30      2.17      0.00
    0    2   30      8.02      0.00
    1    3   30      1.66      0.00
    3    3   30     -9.78      0.00
    0    4   30     -1.01      0.00
    2    4   30      8.72      0.00
    1    5   30    -13.85      0.00
    3    5   30     -6.70      0.00
    5    5   30     -2.03      0.00
    0    6   30      6.49      0.00
    2    6   30     -2.48      0.00
    4    6   30      2.81      0.00
    1    7   30      9.27      0.00
    3    7   30    -11.03      0.00
    5    7   30     -1.97      0.00
    7    7   30     -1.61      0.00
    0    8   30     -1.75      0.00
    2    8   30     -8.62      0.00
    4    8   30     -0.27      0.00
    6    8   30      1.57      0.00
    1    9   30     -0.42      0.00
    3    9   30     -4.19      0.00
    5    9   30     -3.23      0.00
    7    9   30      5.36      0.00
    9    9   30      7.32      0.00
    0   10   30     -8.48      0.00
    2   10   30      1.32      0.00
    4   10   30     -0.82      0.00
    6   10   30     -6.03      0.00
    8   10   30     -7.35      0.00
    1   11   30     -3.46      0.00
    3   11   30     -7.45      0.00
    5   11   30     -6.78      0.00
    7   11   30     -1.76      0.00
    9   11   30      2.63      0.00
   11   11   30     -4.55      0.00
    0   12   30      2.02      0.00
    2   12   30      5.34      0.00
    4   12   30     -2.09      0.00
    6   12   30    -11.96      0.00
    8   12   30      1.71      0.00
   10   12   30     -8.33      0.00
    1   13   30      0.87      0.00
    3   13   30     -0.30      0.00
    5   13   30      0.00      0.00
    7   13   30     14.23      0.00
    9   13   30      0.65      0.00
   11   13   30     -0.52      0.00
   13   13   30    -13.57      0.00
    0   14   30     -0.02      0.00
    2   14   30      0.15      0.00
    4   14   30      2.06      0.00
    6   14   30      3.06      0.00
    8   14   30     -6.00      0.00
   10   14   30      2.62      0.00
   12   14   30      5.42      0.00
    1   15   30     -5.21      0.00
    3   15   30      0.26      0.00
    5   15   30      7.99      0.00
    7   15   30     -1.14      0.00
    9   15   30     -2.16      0.00
   11   15   30     -0.41      0.00
   13   15   30      5.28      0.00
   15   15   30     -7.10      0.00
    0   16   30      3.02      0.00
    2   16   30     -6.83      0.00
    4   16   30     -1.72      0.00
    6   16   30     -9.44      0.00
    8   16   30     12.57      0.00
   10   16   30    -22.84      0.00
   12   16   30     -9.86      0.00
   14   16   30      4.51      0.00
    1   17   30     -6.42      0.00
    3   17   30     -3.19      0.00
    5   17   30     -6.63      0.00
    7   17   30     -0.51      0.00
    9   17   30     -6.54      0.00
   11   17   30      5.89      0.00
   13   17   30    -13.36      0.00
    0   18   30     -3.60      0.00
    2   18   30     16.03      0.00
    4   18   30      1.06      0.00
    6   18   30      8.15      0.00
    8   18   30      2.57      0.00
   10   18   30      2.01      0.00
   12   18   30    -10.35      0.00
    1   19   30    -10.52      0.00
    3   19   30     -8.24      0.00
    5   19   30     18.46      0.00
    7   19   30      4.66      0.00
    9   19   30      4.59      0.00
    0   20   30     -1.56      0.00
    2   20   30      6.10      0.00
    4   20   30      0.15      0.00
    6   20   30     -0.46      0.00
    8   20   30    -12.28      0.00
    1   21   30     -2.32      0.00
    3   21   30     -9.16      0.00
    5   21   30     -6.86      0.00
    0    1   31      7.85      0.00
    1    2   31     -9.73      0.00
    0    3   31     -1.71      0.00
    2    3   31      4.97      0.00
    1    4   31     18.71      0.00
    3    4   31     -2.93      0.00
    0    5   31     -1.10      0.00
    2    5   31     -5.55      0.00
    4    5   31     -2.88      0.00
    1    6   31     -9.64      0.00
    3    6   31      0.05      0.00
    5    6   31     -1.52      0.00
    0    7   31     12.93      0.00
    2    7   31      9.60      0.00
    4    7   31      6.69      0.00
    6    7   31     -2.78      0.00
    1    8   31      3.23      0.00
    3    8   31      1.68      0.00
    5    8   31      3.93      0.00
    7    8   31     -4.00      0.00
    0    9   31      6.74      0.00
    2    9   31     -3.30      0.00
    4    9   31      2.53      0.00
    6    9   31      3.44      0.00
    8    9   31     -5.10      0.00
    1   10   31      6.52      0.00
    3   10   31      2.10      0.00
    5   10   31      6.64      0.00
    7   10   31     -2.93      0.00
    9   10   31     -8.19      0.00
    0   11   31      2.05      0.00
    2   11   31     -1.46      0.00
    4   11   31      3.54      0.00
    6   11   31      2.02      0.00
    8   11   31      5.10      0.00
   10   11   31    -14.67      0.00
    1   12   31      6.69      0.00
    3   12   31     -0.40      0.00
    5   12   31      4.89      0.00
    7   12   31      2.01      0.00
    9   12   31     -1.61      0.00
   11   12   31    -21.53      0.00
    0   13   31      4.84      0.00
    2   13   31     10.49      0.00
    4   13   31     -0.38      0.00
    6   13   31      9.79      0.00
    8   13   31     -0.88      0.00
   10   13   31    -13.82      0.00
   12   13   31     -5.54      0.00
    1   14   31      2.37      0.00
    3   14   31     10.73      0.00
    5   14   31     -4.99      0.00
    7   14   31     -5.77      0.00
    9   14   31     -5.01      0.00
   11   14   31      0.26      0.00
   13   14   31     -2.36      0.00
    0   15   31     -1.93      0.00
    2   15   31      9.82      0.00
    4   15   31      5.01      0.00
    6   15   31     11.27      0.00
    8   15   31    -12.25      0.00
   10   15   31      2.79      0.00
   12   15   31      5.99      0.00
   14   15   31      2.29      0.00
    1   16   31      3.34      0.00
    3   16   31     -1.39      0.00
    5   16   31     -9.27      0.00
    7   16   31      3.72      0.00
    9   16   31     -1.04      0.00
   11   16   31     -8.09      0.00
   13   16   31      4.40      0.00
    0   17   31      5.80      0.00
    2   17   31     -6.87      0.00
    4   17   31      1.37      0.00
    6   17   31     -5.85      0.00
    8   17   31     -2.01      0.00
   10   17   31    -16.38      0.00
   12   17   31      0.17      0.00
    1   18   31      6.66      0.00
    3   18   31      2.46      0.00
    5   18   31      8.72      0.00
    7   18   31     -1.82      0.00
    9   18   31     -6.37      0.00
   11   18   31      6.35      0.00
    0   19   31      2.72      0.00
    2   19   31      6.01      0.00
    4   19   31     -0.15      0.00
    6   19   31      5.60      0.00
    8   19   31     -2.11      0.00
   10   19   31      0.54      0.00
    1   20   31     -7.40      0.00
    3   20   31      2.78      0.00
    5   20   31     -7.90      0.00
    7   20   31      1.16      0.00
    0   21   31      9.62      0.00
    2   21   31     14.03      0.00
    4   21   31      3.13      0.00
    0    0   32     -4.25      0.00
    0    2   32      0.64      0.00
    2    2   32      1.96      0.00
    1    3   32      2.90      0.00
    0    4   32     12.87      0.00
    2    4   32     -4.76      0.00
    4    4   32      4.14      0.00
    1    5   32     -4.91      0.00
    3    5   32      2.76      0.00
    0    6   32      4.09      0.00
    2    6   32      1.34      0.00
    4    6   32     -0.39      0.00
    6    6   32     -6.77      0.00
    1    7   32      1.79      0.00
    3    7   32      2.62      0.00
    5    7   32     -1.13      0.00
    0    8   32     -6.19      0.00
    2    8   32     -4.29      0.00
    4    8   32     -2.05      0.00
    6    8   32     -0.70      0.00
    8    8   32     -1.04      0.00
    1    9   32     -0.29      0.00
    3    9   32     -5.66      0.00
    5    9   32     -9.16      0.00
    7    9   32    -22.01      0.00
    0   10   32     -3.65      0.00
    2   10   32     -8.04      0.00
    4   10   32      1.33      0.00
    6   10   32     -4.27      0.00
    8   10   32      0.35      0.00
   10   10   32      6.22      0.00
    1   11   32      2.67      0.00
    3   11   32      1.47      0.00
    5   11   32     -2.83      0.00
    7   11   32     10.75      0.00
    9   11   32      2.44      0.00
    0   12   32      5.18      0.00
    2   12   32     -4.23      0.00
    4   12   32     -1.43      0.00
    6   12   32      7.22      0.00
    8   12   32     -9.64      0.00
   10   12   32     -4.33      0.00
   12   12   32     -8.35      0.00
    1   13   32     22.96      0.00
    3   13   32     -0.06      0.00
    5   13   32      0.17      0.00
    7   13   32     18.97      0.00
    9   13   32    -25.68      0.00
   11   13   32     -3.63      0.00
    0   14   32     -4.66      0.00
    2   14   32      7.63      0.00
    4   14   32      4.42      0.00
    6   14   32     -0.53      0.00
    8   14   32      6.85      0.00
   10   14   32     -4.62      0.00
   12   14   32     10.20      0.00
   14   14   32     -3.82      0.00
    1   15   32      2.24      0.00
    3   15   32      1.03      0.00
    5   15   32      1.47      0.00
    7   15   32     11.10      0.00
    9   15   32      0.82      0.00
   11   15   32    -20.91      0.00
   13   15   32      5.12      0.00
    0   16   32     -2.50      0.00
    2   16   32      5.22      0.00
    4   16   32      4.08      0.00
    6   16   32     11.60      0.00
    8   16   32      0.97      0.00
   10   16   32     14.89      0.00
   12   16   32      2.30      0.00
   14   16   32     22.63      0.00
    1   17   32     -2.75      0.00
    3   17   32      7.69      0.00
    5   17   32     -0.66      0.00
    7   17   32    -15.24      0.00
    9   17   32    -11.50      0.00
   11   17   32      3.81      0.00
   13   17   32    -12.37      0.00
    0   18   32      8.00      0.00
    2   18   32     -5.39      0.00
    4   18   32     -2.96      0.00
    6   18   32     -3.68      0.00
    8   18   32      9.44      0.00
   10   18   32    -15.61      0.00
    1   19   32      6.71      0.00
    3   19   32     -4.19      0.00
    5   19   32     -3.71      0.00
    7   19   32      0.84      0.00
    9   19   32     -3.19      0.00
    0   20   32     -5.29      0.00
    2   20   32      2.85      0.00
    4   20   32     -0.64      0.00
    6   20   32      4.42      0.00
    1   21   32      3.30      0.00
    3   21   32     10.98      0.00
    0    1   33     -3.12      0.00
    1    2   33     -2.77      0.00
    0    3   33    -16.92      0.00
    2    3   33     -7.08      0.00
    1    4   33      8.71      0.00
    3    4   33      0.85      0.00
    0    5   33     -4.01      0.00
    2    5   33      3.05      0.00
    4    5   33     -9.34      0.00
    1    6   33     -4.35      0.00
    3    6   33      6.59      0.00
    5    6   33      5.17      0.00
    0    7   33      1.53      0.00
    2    7   33     -7.55      0.00
    4    7   33     10.99      0.00
    6    7   33      0.22      0.00
    1    8   33     -3.53      0.00
    3    8   33     -3.81      0.00
    5    8   33    -10.56      0.00
    7    8   33      1.48      0.00
    0    9   33    -15.27      0.00
    2    9   33     -2.11      0.00
    4    9   33    -14.88      0.00
    6    9   33     -0.86      0.00
    8    9   33     -0.88      0.00
    1   10   33     -1.80      0.00
    3   10   33      4.34      0.00
    5   10   33      3.09      0.00
    7   10   33     -4.71      0.00
    9   10   33     -5.35      0.00
    0   11   33     -4.39      0.00
    2   11   33    -11.79      0.00
    4   11   33      1.31      0.00
    6   11   33      0.54      0.00
    8   11   33     24.65      0.00
   10   11   33     -4.44      0.00
    1   12   33     -7.49      0.00
    3   12   33     -3.93      0.00
    5   12   33      3.82      0.00
    7   12   33     -1.73      0.00
    9   12   33     -4.20      0.00
   11   12   33     -0.66      0.00
    0   13   33      5.45      0.00
    2   13   33     -1.39      0.00
    4   13   33     -6.05      0.00
    6   13   33     23.15      0.00
    8   13   33      1.81      0.00
   10   13   33     -7.95      0.00
   12   13   33      7.54      0.00
    1   14   33    -13.62      0.00
    3   14   33     -0.13      0.00
    5   14   33      4.05      0.00
    7   14   33      3.64      0.00
    9   14   33     -4.87      0.00
   11   14   33     18.43      0.00
   13   14   33     10.55      0.00
    0   15   33      7.19      0.00
    2   15   33     -3.56      0.00
    4   15   33     -2.94      0.00
    6   15   33    -18.58      0.00
    8   15   33      8.05      0.00
   10   15   33      1.32      0.00
   12   15   33    -12.54      0.00
   14   15   33      9.39      0.00
    1   16   33      0.33      0.00
    3   16   33    -10.11      0.00
    5   16   33     -5.48      0.00
    7   16   33     16.72      0.00
    9   16   33     14.67      0.00
   11   16   33    -15.23      0.00
   13   16   33     -0.85      0.00
    0   17   33     -8.85      0.00
    2   17   33     11.38      0.00
    4   17   33      2.32      0.00
    6   17   33      9.34      0.00
    8   17   33    -15.31      0.00
   10   17   33     -0.44      0.00
   12   17   33     14.60      0.00
    1   18   33      6.61      0.00
    3   18   33      9.78      0.00
    5   18   33      9.36      0.00
    7   18   33     13.20      0.00
    9   18   33     10.45      0.00
   11   18   33     -1.81      0.00
    0   19   33     11.02      0.00
    2   19   33     -3.45      0.00
    4   19   33      2.90      0.00
    6   19   33     -9.29      0.00
    8   19   33    -10.76      0.00
    1   20   33     10.13      0.00
    3   20   33      8.07      0.00
    5   20   33      3.90      0.00
    7   20   33     -5.58      0.00
    0   21   33     14.52      0.00
    2   21   33      0.31      0.00
    1    1   34    -13.28      0.00
    0    2   34      0.83      0.00
    1    3   34      3.69      0.00
    3    3   34      2.74      0.00
    0    4   34      6.41      0.00
    2    4   34    -10.37      0.00
    1    5   34     -3.14      0.00
    3    5   34     -7.90      0.00
    5    5   34     -6.09      0.00
    0    6   34     -6.13      0.00
    2    6   34     -3.56      0.00
    4    6   34     -6.52      0.00
    1    7   34      1.52      0.00
    3    7   34      6.17      0.00
    5    7   34      6.81      0.00
    7    7   34    -13.52      0.00
    0    8   34      2.10      0.00
    2    8   34      4.14      0.00
    4    8   34      0.26      0.00
    6    8   34     -0.95      0.00
    1    9   34     -4.44      0.00
    3    9   34     -9.61      0.00
    5    9   34     -2.27      0.00
    7    9   34      2.82      0.00
    9    9   34     11.77      0.00
    0   10   34     13.12      0.00
    2   10   34      1.74      0.00
    4   10   34      7.67      0.00
    6   10   34     -1.30      0.00
    8   10   34      2.20      0.00
    1   11   34     -4.57      0.00
    3   11   34      5.88      0.00
    5   11   34      2.07      0.00
    7   11   34      8.43      0.00
    9   11   34     -3.04      0.00
   11   11   34    -10.22      0.00
    0   12   34      5.05      0.00
    2   12   34      6.98      0.00
    4   12   34      5.38      0.00
    6   12   34     12.61      0.00
    8   12   34      8.80      0.00
   10   12   34      3.24      0.00
    1   13   34     14.77      0.00
    3   13   34      2.01      0.00
    5   13   34    -14.85      0.00
    7   13   34     -8.28      0.00
    9   13   34      0.18      0.00
   11   13   34      5.84      0.00
   13   13   34     11.97      0.00
    0   14   34     -2.74      0.00
    2   14   34     -5.89      0.00
    4   14   34     -7.96      0.00
    6   14   34      3.87      0.00
    8   14   34     -2.91      0.00
   10   14   34      8.36      0.00
   12   14   34     11.84      0.00
    1   15   34     -6.36      0.00
    3   15   34    -11.73      0.00
    5   15   34      6.34      0.00
    7   15   34      8.50      0.00
    9   15   34     -9.10      0.00
   11   15   34     14.35      0.00
   13   15   34      1.21      0.00
    0   16   34      4.79      0.00
    2   16   34     -9.32      0.00
    4   16   34      3.24      0.00
    6   16   34    -14.79      0.00
    8   16   34     14.10      0.00
   10   16   34     -3.78      0.00
   12   16   34    -11.64      0.00
    1   17   34      4.93      0.00
    3   17   34      2.52      0.00
    5   17   34      6.25      0.00
    7   17   34    -11.95      0.00
    9   17   34      0.04      0.00
   11   17   34     -9.44      0.00
    0   18   34      7.70      0.00
    2   18   34     13.18      0.00
    4   18   34    -15.08      0.00
    6   18   34     12.50      0.00
    8   18   34     26.29      0.00
   10   18   34     -2.65      0.00
    1   19   34      4.09      0.00
    3   19   34      4.66      0.00
    5   19   34     -4.92      0.00
    7   19   34    -14.29      0.00
    9   19   34     -8.65      0.00
    0   20   34     -8.01      0.00
    2   20   34     -5.24      0.00
    4   20   34      0.83      0.00
    6   20   34      6.26      0.00
    1   21   34      1.06      0.00
    0    1   35      7.56      0.00
    1    2   35      0.32      0.00
    0    3   35      8.57      0.00
    2    3   35      9.09      0.00
    1    4   35     -6.30      0.00
    3    4   35      1.83      0.00
    0    5   35     -4.58      0.00
    2    5   35     -1.57      0.00
    4    5   35      2.05      0.00
    1    6   35     -0.85      0.00
    3    6   35     -0.79      0.00
    5    6   35    -10.69      0.00
    0    7   35     11.72      0.00
    2    7   35      6.02      0.00
    4    7   35      3.24      0.00
    6    7   35      5.44      0.00
    1    8   35     -0.84      0.00
    3    8   35    -14.54      0.00
    5    8   35      4.62      0.00
    7    8   35     -4.42      0.00
    0    9   35     -2.92      0.00
    2    9   35     -7.39      0.00
    4    9   35     -8.04      0.00
    6    9   35     -8.41      0.00
    8    9   35     -6.44      0.00
    1   10   35     -0.13      0.00
    3   10   35      6.18      0.00
    5   10   35     -2.58      0.00
    7   10   35     23.32      0.00
    9   10   35      5.58      0.00
    0   11   35     -7.39      0.00
    2   11   35      0.96      0.00
    4   11   35      1.12      0.00
    6   11   35    -10.50      0.00
    8   11   35     -1.39      0.00
   10   11   35     -7.64      0.00
    1   12   35      8.65      0.00
    3   12   35     -3.04      0.00
    5   12   35      7.60      0.00
    7   12   35     -3.94      0.00
    9   12   35     -9.53      0.00
   11   12   35      4.89      0.00
    0   13   35     14.10      0.00
    2   13   35     18.35      0.00
    4   13   35    -19.28      0.00
    6   13   35      1.02      0.00
    8   13   35      3.98      0.00
   10   13   35     -7.29      0.00
   12   13   35      4.44      0.00
    1   14   35      4.60      0.00
    3   14   35      6.72      0.00
    5   14   35     -8.04      0.00
    7   14   35      3.28      0.00
    9   14   35     12.28      0.00
   11   14   35      1.85      0.00
   13   14   35      2.84      0.00
    0   15   35     10.40      0.00
    2   15   35    -14.76      0.00
    4   15   35    -10.51      0.00
    6   15   35     -3.88      0.00
    8   15   35     -3.83      0.00
   10   15   35      9.28      0.00
   12   15   35     -1.76      0.00
   14   15   35     13.35      0.00
    1   16   35     -0.69      0.00
    3   16   35      2.82      0.00
    5   16   35      9.53      0.00
    7   16   35     -4.70      0.00
    9   16   35    -16.16      0.00
   11   16   35      5.89      0.00
   13   16   35      2.53      0.00
    0   17   35    -16.53      0.00
    2   17   35      3.65      0.00
    4   17   35      1.82      0.00
    6   17   35     -6.51      0.00
    8   17   35    -14.43      0.00
   10   17   35     -6.44      0.00
   12   17   35      2.90      0.00
    1   18   35      6.89      0.00
    3   18   35     -7.75      0.00
    5   18   35    -13.46      0.00
    7   18   35      7.30      0.00
    9   18   35      4.59      0.00
    0   19   35     -1.93      0.00
    2   19   35      7.53      0.00
    4   19   35      0.25      0.00
    6   19   35     -4.49      0.00
    8   19   35     -9.80      0.00
    1   20   35      0.68      0.00
    3   20   35      0.36      0.00
    5   20   35     10.16      0.00
    0    2   36      5.82      0.00
    2    2   36     -5.83      0.00
    1    3   36     -5.05      0.00
    0    4   36      6.09      0.00
    2    4   36      0.70      0.00
    4    4   36     -3.14      0.00
    1    5   36      4.68      0.00
    3    5   36      3.01      0.00
    0    6   36     -3.57      0.00
    2    6   36     -5.12      0.00
    4    6   36     17.61      0.00
    6    6   36      9.51      0.00
    1    7   36     -4.01      0.00
    3    7   36      9.57      0.00
    5    7   36     -0.94      0.00
    0    8   36      6.14      0.00
    2    8   36      1.46      0.00
    4    8   36     -4.14      0.00
    6    8   36      1.76      0.00
    8    8   36      1.94      0.00
    1    9   36      5.49      0.00
    3    9   36      0.21      0.00
    5    9   36     10.50      0.00
    7    9   36     -5.55      0.00
    0   10   36      4.06      0.00
    2   10   36      0.64      0.00
    4   10   36      4.89      0.00
    6   10   36     16.14      0.00
    8   10   36      3.82      0.00
   10   10   36      7.16      0.00
    1   11   36     -9.96      0.00
    3   11   36     -3.11      0.00
    5   11   36      0.62      0.00
    7   11   36     14.06      0.00
    9   11   36    -15.60      0.00
    0   12   36     -7.03      0.00
    2   12   36    -10.29      0.00
    4   12   36     -2.59      0.00
    6   12   36     -1.44      0.00
    8   12   36     -9.23      0.00
   10   12   36     -2.47      0.00
   12   12   36     11.75      0.00
    1   13   36      2.92      0.00
    3   13   36     -1.73      0.00
    5   13   36     -1.29      0.00
    7   13   36      9.14      0.00
    9   13   36     -7.61      0.00
   11   13   36     -6.51      0.00
    0   14   36    -19.15      0.00
    2   14   36      0.56      0.00
    4   14   36     -4.23      0.00
    6   14   36      5.17      0.00
    8   14   36      5.13      0.00
   10   14   36     -2.53      0.00
   12   14   36     -0.77      0.00
   14   14   36     -3.57      0.00
    1   15   36      9.19      0.00
    3   15   36     -1.68      0.00
    5   15   36    -28.05      0.00
    7   15   36      3.48      0.00
    9   15   36      3.30      0.00
   11   15   36     -4.95      0.00
   13   15   36     -8.38      0.00
    0   16   36      9.60      0.00
    2   16   36     -5.96      0.00
    4   16   36      5.10      0.00
    6   16   36     -1.86      0.00
    8   16   36      6.10      0.00
   10   16   36      3.87      0.00
   12   16   36     -5.83      0.00
    1   17   36     -2.83      0.00
    3   17   36      7.31      0.00
    5   17   36      1.65      0.00
    7   17   36     -5.98      0.00
    9   17   36     -7.99      0.00
   11   17   36      6.77      0.00
    0   18   36     -8.96      0.00
    2   18   36      6.50      0.00
    4   18   36     -2.79      0.00
    6   18   36      2.69      0.00
    8   18   36      6.66      0.00
   10   18   36      0.14      0.00
    1   19   36      1.32      0.00
    3   19   36      8.27      0.00
    5   19   36      2.83      0.00
    7   19   36     -8.18      0.00
    0   20   36      1.32      0.00
    2   20   36     -6.67      0.00
    4   20   36     12.26      0.00
    0    1   37     -9.88      0.00
    1    2   37     -3.56      0.00
    0    3   37     -4.92      0.00
    2    3   37      3.59      0.00
    1    4   37      7.78      0.00
    3    4   37     -4.93      0.00
    0    5   37     -5.86      0.00
    2    5   37      2.26      0.00
    4    5   37     -0.29      0.00
    1    6   37     -5.97      0.00
    3    6   37      6.19      0.00
    5    6   37      3.23      0.00
    0    7   37      3.52      0.00
    2    7   37     -1.18      0.00
    4    7   37      0.91      0.00
    6    7   37     -2.09      0.00
    1    8   37     -4.15      0.00
    3    8   37      2.12      0.00
    5    8   37     -3.46      0.00
    7    8   37      4.45      0.00
    0    9   37    -13.80      0.00
    2    9   37     -8.89      0.00
    4    9   37     -3.68      0.00
    6    9   37     -6.41      0.00
    8    9   37     -1.21      0.00
    1   10   37     -2.06      0.00
    3   10   37      2.17      0.00
    5   10   37     -1.09      0.00
    7   10   37    -18.52      0.00
    9   10   37      2.01      0.00
    0   11   37     -2.46      0.00
    2   11   37     -4.75      0.00
    4   11   37     -3.20      0.00
    6   11   37     -2.80      0.00
    8   11   37     -4.50      0.00
   10   11   37      0.97      0.00
    1   12   37     -1.00      0.00
    3   12   37    -11.95      0.00
    5   12   37     -1.77      0.00
    7   12   37      8.02      0.00
    9   12   37     -0.35      0.00
   11   12   37      6.16      0.00
    0   13   37     -2.76      0.00
    2   13   37     -2.88      0.00
    4   13   37    -16.44      0.00
    6   13   37     -8.91      0.00
    8   13   37     -0.96      0.00
   10   13   37      6.20      0.00
   12   13   37      4.73      0.00
    1   14   37    -13.55      0.00
    3   14   37    -13.50      0.00
    5   14   37     -0.51      0.00
    7   14   37      1.65      0.00
    9   14   37      3.46      0.00
   11   14   37      5.26      0.00
   13   14   37     -2.08      0.00
    0   15   37      0.49      0.00
    2   15   37    -13.25      0.00
    4   15   37     -4.38      0.00
    6   15   37    -11.68      0.00
    8   15   37     11.91      0.00
   10   15   37    -22.97      0.00
   12   15   37     -4.41      0.00
   14   15   37      8.08      0.00
    1   16   37     -0.77      0.00
    3   16   37     -1.93      0.00
    5   16   37     -3.32      0.00
    7   16   37     -1.95      0.00
    9   16   37     12.10      0.00
   11   16   37      2.38      0.00
    0   17   37     -0.78      0.00
    2   17   37     10.79      0.00
    4   17   37     -7.19      0.00
    6   17   37     -6.24      0.00
    8   17   37     -2.25      0.00
   10   17   37      8.65      0.00
    1   18   37     -0.70      0.00
    3   18   37     -2.68      0.00
    5   18   37    -18.34      0.00
    7   18   37      2.70      0.00
    9   18   37      9.12      0.00
    0   19   37     -4.30      0.00
    2   19   37     -9.40      0.00
    4   19   37      8.70      0.00
    6   19   37    -19.97      0.00
    1   20   37      2.88      0.00
    3   20   37     -7.52      0.00
    1    1   38      3.45      0.00
    0    2   38      2.91      0.00
    1    3   38     -1.33      0.00
    3    3   38      5.08      0.00
    0    4   38     -5.07      0.00
    2    4   38     -4.31      0.00
    1    5   38      9.15      0.00
    3    5   38     -3.63      0.00
    5    5   38      4.89      0.00
    0    6   38      4.78      0.00
    2    6   38      1.68      0.00
    4    6   38      2.59      0.00
    1    7   38      0.06      0.00
    3    7   38     -1.50      0.00
    5    7   38      1.73      0.00
    7    7   38     11.57      0.00
    0    8   38      3.20      0.00
    2    8   38     -5.49      0.00
    4    8   38      0.02      0.00
    6    8   38     -4.00      0.00
    1    9   38     -8.04      0.00
    3    9   38     -3.99      0.00
    5    9   38     -3.24      0.00
    7    9   38     -9.73      0.00
    9    9   38      5.10      0.00
    0   10   38    -11.10      0.00
    2   10   38      4.34      0.00
    4   10   38     -2.00      0.00
    6   10   38      7.47      0.00
    8   10   38      2.97      0.00
    1   11   38     -6.14      0.00
    3   11   38      6.55      0.00
    5   11   38     -9.12      0.00
    7   11   38    -14.49      0.00
    9   11   38      5.12      0.00
   11   11   38      5.20      0.00
    0   12   38     10.49      0.00
    2   12   38     -0.43      0.00
    4   12   38      2.96      0.00
    6   12   38     -2.46      0.00
    8   12   38     -0.03      0.00
   10   12   38     10.76      0.00
    1   13   38      7.38      0.00
    3   13   38     -4.50      0.00
    5   13   38     -9.15      0.00
    7   13   38      9.79      0.00
    9   13   38     -2.63      0.00
   11   13   38     -3.17      0.00
   13   13   38     -5.65      0.00
    0   14   38      7.54      0.00
    2   14   38     -1.66      0.00
    4   14   38    -13.45      0.00
    6   14   38      5.22      0.00
    8   14   38      6.90      0.00
   10   14   38     10.21      0.00
   12   14   38     -0.95      0.00
    1   15   38     -0.95      0.00
    3   15   38     -6.90      0.00
    5   15   38    -12.91      0.00
    7   15   38    -12.29      0.00
    9   15   38      1.15      0.00
   11   15   38      6.86      0.00
   13   15   38      1.12      0.00
    0   16   38     -2.93      0.00
    2   16   38     -2.07      0.00
    4   16   38      2.97      0.00
    6   16   38     -2.36      0.00
    8   16   38      9.20      0.00
   10   16   38     -4.28      0.00
   12   16   38    -11.75      0.00
    1   17   38     -3.03      0.00
    3   17   38     -3.10      0.00
    5   17   38      8.10      0.00
    7   17   38    -11.88      0.00
    9   17   38      5.79      0.00
   11   17   38      5.40      0.00
    0   18   38      5.53      0.00
    2   18   38      4.32      0.00
    4   18   38     -6.47      0.00
    6   18   38     -5.91      0.00
    8   18   38     18.44      0.00
    1   19   38     -9.22      0.00
    3   19   38     -2.73      0.00
    5   19   38     -7.32      0.00
    7   19   38    -21.68      0.00
    0   20   38     16.22      0.00
    2   20   38     -1.81      0.00
    0    1   39      3.47      0.00
    1    2   39      1.80      0.00
    0    3   39      2.75      0.00
    2    3   39    -10.60      0.00
    1    4   39      1.42      0.00
    3    4   39     -7.69      0.00
    0    5   39     -6.96      0.00
    2    5   39      2.91      0.00
    4    5   39     -2.41      0.00
    1    6   39     -5.88      0.00
    3    6   39      1.42      0.00
    5    6   39      7.62      0.00
    0    7   39     14.99      0.00
    2    7   39     -9.26      0.00
    4    7   39      5.78      0.00
    6    7   39     -4.34      0.00
    1    8   39      5.49      0.00
    3    8   39      3.44      0.00
    5    8   39     -1.29      0.00
    7    8   39      4.27      0.00
    0    9   39      0.06      0.00
    2    9   39     27.05      0.00
    4    9   39      6.28      0.00
    6    9   39      4.80      0.00
    8    9   39     12.51      0.00
    1   10   39      0.14      0.00
    3   10   39     -1.10      0.00
    5   10   39      8.79      0.00
    7   10   39      5.79      0.00
    9   10   39     11.65      0.00
    0   11   39      8.26      0.00
    2   11   39      3.17      0.00
    4   11   39     10.01      0.00
    6   11   39      8.71      0.00
    8   11   39      2.36      0.00
   10   11   39    -11.35      0.00
    1   12   39    -10.89      0.00
    3   12   39      1.68      0.00
    5   12   39      2.29      0.00
    7   12   39      8.21      0.00
    9   12   39      4.95      0.00
   11   12   39      6.57      0.00
    0   13   39     -3.44      0.00
    2   13   39     10.16      0.00
    4   13   39      7.44      0.00
    6   13   39      2.98      0.00
    8   13   39      7.62      0.00
   10   13   39     -1.65      0.00
   12   13   39      5.94      0.00
    1   14   39      9.41      0.00
    3   14   39      5.64      0.00
    5   14   39     -5.48      0.00
    7   14   39     14.29      0.00
    9   14   39      5.07      0.00
   11   14   39    -11.22      0.00
   13   14   39     -6.59      0.00
    0   15   39     10.93      0.00
    2   15   39      5.39      0.00
    4   15   39     -7.79      0.00
    6   15   39     -5.57      0.00
    8   15   39      6.09      0.00
   10   15   39      5.58      0.00
   12   15   39     -3.21      0.00
    1   16   39     16.66      0.00
    3   16   39      6.84      0.00
    5   16   39      0.05      0.00
    7   16   39     10.34      0.00
    9   16   39      5.21      0.00
   11   16   39      5.48      0.00
    0   17   39    -22.35      0.00
    2   17   39     -0.44      0.00
    4   17   39    -10.14      0.00
    6   17   39     -1.51      0.00
    8   17   39    -14.24      0.00
   10   17   39     -0.34      0.00
    1   18   39     -1.81      0.00
    3   18   39     -1.74      0.00
    5   18   39      6.70      0.00
    7   18   39     -1.35      0.00
    9   18   39     10.15      0.00
    0   19   39     -5.08      0.00
    2   19   39     -3.86      0.00
    4   19   39      5.50      0.00
    6   19   39     -1.44      0.00
    1   20   39      2.87      0.00
    0    2   40     -3.50      0.00
    2    2   40     -7.02      0.00
    1    3   40      0.63      0.00
    0    4   40      1.42      0.00
    2    4   40      5.30      0.00
    4    4   40     11.16      0.00
    1    5   40      0.29      0.00
    3    5   40      0.15      0.00
    0    6   40      4.86      0.00
    2    6   40     -3.41      0.00
    4    6   40      3.12      0.00
    6    6   40      2.23      0.00
    1    7   40      2.59      0.00
    3    7   40      0.90      0.00
    5    7   40    -10.22      0.00
    0    8   40     -1.01      0.00
    2    8   40     -4.04      0.00
    4    8   40      8.95      0.00
    6    8   40      4.41      0.00
    8    8   40    -17.29      0.00
    1    9   40      2.66      0.00
    3    9   40      4.32      0.00
    5    9   40     11.02      0.00
    7    9   40     -5.12      0.00
    0   10   40     -5.50      0.00
    2   10   40      1.04      0.00
    4   10   40     -4.33      0.00
    6   10   40     -5.97      0.00
    8   10   40     -4.03      0.00
   10   10   40      6.57      0.00
    1   11   40      7.53      0.00
    3   11   40     -1.65      0.00
    5   11   40     -9.62      0.00
    7   11   40      6.02      0.00
    9   11   40      0.49      0.00
    0   12   40     -9.32      0.00
    2   12   40    -14.38      0.00
    4   12   40     -4.63      0.00
    6   12   40      1.31      0.00
    8   12   40    -12.27      0.00
   10   12   40     -0.67      0.00
   12   12   40      4.08      0.00
    1   13   40     -1.70      0.00
    3   13   40     -5.60      0.00
    5   13   40    -10.24      0.00
    7   13   40      1.03      0.00
    9   13   40     -1.68      0.00
   11   13   40      2.32      0.00
    0   14   40     -5.01      0.00
    2   14   40      0.89      0.00
    4   14   40     -2.16      0.00
    6   14   40    -11.26      0.00
    8   14   40     -2.25      0.00
   10   14   40     -5.10      0.00
   12   14   40     -5.10      0.00
   14   14   40      1.43      0.00
    1   15   40     -2.64      0.00
    3   15   40      0.00      0.00
    5   15   40    -13.10      0.00
    7   15   40      8.55      0.00
    9   15   40      0.81      0.00
   11   15   40     -6.52      0.00
   13   15   40     10.21      0.00
    0   16   40      6.58      0.00
    2   16   40      1.91      0.00
    4   16   40      4.87      0.00
    6   16   40      2.57      0.00
    8   16   40     -3.45      0.00
   10   16   40      5.25      0.00
    1   17   40      1.29      0.00
    3   17   40     13.85      0.00
    5   17   40     -4.89      0.00
    7   17   40      4.68      0.00
    9   17   40     -3.28      0.00
    0   18   40     -9.75      0.00
    2   18   40      0.88      0.00
    4   18   40      7.31      0.00
    6   18   40    -18.52      0.00
    8   18   40     -9.14      0.00
    1   19   40     -6.21      0.00
    3   19   40     -2.34      0.00
    5   19   40     -2.29      0.00
    0    1   41    -15.77      0.00
    1    2   41    -10.52      0.00
    0    3   41     20.11      0.00
    2    3   41      3.82      0.00
    1    4   41     -4.21      0.00
    3    4   41     -4.39      0.00
    0    5   41      1.02      0.00
    2    5   41     11.18      0.00
    4    5   41      2.75      0.00
    1    6   41      6.02      0.00
    3    6   41     11.86      0.00
    5    6   41      0.78      0.00
    0    7   41     -0.75      0.00
    2    7   41     -2.83      0.00
    4    7   41      3.39      0.00
    6    7   41     -9.79      0.00
    1    8   41      0.97      0.00
    3    8   41      5.20      0.00
    5    8   41      4.63      0.00
    7    8   41     -4.23      0.00
    0    9   41    -25.66      0.00
    2    9   41      3.60      0.00
    4    9   41      0.60      0.00
    6    9   41      7.29      0.00
    8    9   41     -5.18      0.00
    1   10   41    -13.06      0.00
    3   10   41     -2.52      0.00
    5   10   41      4.45      0.00
    7   10   41      4.69      0.00
    9   10   41     -6.15      0.00
    0   11   41      2.44      0.00
    2   11   41     -7.23      0.00
    4   11   41      3.01      0.00
    6   11   41     -8.33      0.00
    8   11   41      6.95      0.00
   10   11   41     -3.54      0.00
    1   12   41     -8.78      0.00
    3   12   41      2.04      0.00
    5   12   41     -0.75      0.00
    7   12   41     -1.56      0.00
    9   12   41     -6.73      0.00
   11   12   41     17.88      0.00
    0   13   41      2.32      0.00
    2   13   41     -1.66      0.00
    4   13   41    -16.89      0.00
    6   13   41     -5.19      0.00
    8   13   41      2.91      0.00
   10   13   41    -12.42      0.00
   12   13   41     -4.79      0.00
    1   14   41      1.30      0.00
    3   14   41     -8.34      0.00
    5   14   41      2.43      0.00
    7   14   41    -10.87      0.00
    9   14   41      3.16      0.00
   11   14   41     -8.09      0.00
   13   14   41     -5.70      0.00
    0   15   41     -2.34      0.00
    2   15   41      0.69      0.00
    4   15   41     -0.61      0.00
    6   15   41    -17.31      0.00
    8   15   41      0.95      0.00
   10   15   41     -2.43      0.00
   12   15   41     -3.90      0.00
    1   16   41     -7.53      0.00
    3   16   41     -6.61      0.00
    5   16   41     -5.25      0.00
    7   16   41     -0.25      0.00
    9   16   41     -1.16      0.00
   11   16   41      0.02      0.00
    0   17   41     -0.11      0.00
    2   17   41     -6.84      0.00
    4   17   41     15.34      0.00
    6   17   41      4.13      0.00
    8   17   41      3.87      0.00
   10   17   41      3.35      0.00
    1   18   41     -5.80      0.00
    3   18   41      5.66      0.00
    5   18   41     -0.91      0.00
    7   18   41      5.46      0.00
    0   19   41     -2.31      0.00
    2   19   41     -0.38      0.00
    4   19   41     -4.25      0.00
    1    1   42      3.70      0.00
    0    2   42      1.41      0.00
    1    3   42      3.36      0.00
    3    3   42     -7.04      0.00
    0    4   42      4.07      0.00
    2    4   42     -6.98      0.00
    1    5   42      0.31      0.00
    3    5   42     -2.63      0.00
    5    5   42      1.01      0.00
    0    6   42     -3.22      0.00
    2    6   42    -14.52      0.00
    4    6   42     -7.73      0.00
    1    7   42      0.58      0.00
    3    7   42      4.20      0.00
    5    7   42      0.04      0.00
    7    7   42     -3.98      0.00
    0    8   42    -10.92      0.00
    2    8   42      3.59      0.00
    4    8   42     -5.81      0.00
    6    8   42      0.79      0.00
    1    9   42      0.45      0.00
    3    9   42      8.35      0.00
    5    9   42      2.67      0.00
    7    9   42     -8.18      0.00
    9    9   42     23.80      0.00
    0   10   42     -4.73      0.00
    2   10   42      1.53      0.00
    4   10   42      4.67      0.00
    6   10   42      4.29      0.00
    8   10   42      6.48      0.00
    1   11   42     -4.31      0.00
    3   11   42     -4.48      0.00
    5   11   42      0.30      0.00
    7   11   42      4.75      0.00
    9   11   42      7.22      0.00
   11   11   42      9.95      0.00
    0   12   42      1.60      0.00
    2   12   42     -8.00      0.00
    4   12   42      1.64      0.00
    6   12   42     16.07      0.00
    8   12   42     -4.42      0.00
   10   12   42     -9.06      0.00
    1   13   42      2.02      0.00
    3   13   42      6.83      0.00
    5   13   42      1.06      0.00
    7   13   42      7.99      0.00
    9   13   42      0.23      0.00
   11   13   42     13.91      0.00
   13   13   42      3.35      0.00
    0   14   42     -3.38      0.00
    2   14   42     14.05      0.00
    4   14   42     -1.00      0.00
    6   14   42      1.65      0.00
    8   14   42     14.59      0.00
   10   14   42      6.35      0.00
   12   14   42    -18.46      0.00
    1   15   42      1.25      0.00
    3   15   42     -1.28      0.00
    5   15   42     -1.24      0.00
    7   15   42      6.50      0.00
    9   15   42      9.28      0.00
   11   15   42     -7.34      0.00
    0   16   42     17.64      0.00
    2   16   42      2.12      0.00
    4   16   42      1.46      0.00
    6   16   42      3.15      0.00
    8   16   42     11.02      0.00
   10   16   42     -9.43      0.00
    1   17   42     -5.36      0.00
    3   17   42     -2.60      0.00
    5   17   42      3.08      0.00
    7   17   42    -15.84      0.00
    9   17   42     -4.61      0.00
    0   18   42     -9.97      0.00
    2   18   42     -6.46      0.00
    4   18   42     -7.74      0.00
    6   18   42     -7.07      0.00
    1   19   42      1.28      0.00
    3   19   42     -9.83      0.00
    0    1   43      3.11      0.00
    1    2   43     -3.21      0.00
    0    3   43     -8.54      0.00
    2    3   43     -3.74      0.00
    1    4   43      4.34      0.00
    3    4   43     -3.01      0.00
    0    5   43     16.87      0.00
    2    5   43      5.75      0.00
    4    5   43      2.37      0.00
    1    6   43     -3.83      0.00
    3    6   43      0.99      0.00
    5    6   43     -1.37      0.00
    0    7   43      3.96      0.00
    2    7   43     -0.52      0.00
    4    7   43     -4.29      0.00
    6    7   43      0.40      0.00
    1    8   43      2.20      0.00
    3    8   43      1.00      0.00
    5    8   43     10.12      0.00
    7    8   43      6.11      0.00
    0    9   43      0.25      0.00
    2    9   43      6.46      0.00
    4    9   43      5.69      0.00
    6    9   43      2.33      0.00
    8    9   43      2.86      0.00
    1   10   43      0.12      0.00
    3   10   43     -5.10      0.00
    5   10   43     -3.47      0.00
    7   10   43      0.90      0.00
    9   10   43      4.67      0.00
    0   11   43      6.80      0.00
    2   11   43     11.20      0.00
    4   11   43     -2.98      0.00
    6   11   43    -14.42      0.00
    8   11   43     -2.28      0.00
   10   11   43     15.47      0.00
    1   12   43      6.32      0.00
    3   12   43      5.61      0.00
    5   12   43     -4.56      0.00
    7   12   43     -3.17      0.00
    9   12   43     -6.53      0.00
   11   12   43      6.38      0.00
    0   13   43      9.51      0.00
    2   13   43     -3.00      0.00
    4   13   43     -2.48      0.00
    6   13   43      6.94      0.00
    8   13   43      4.33      0.00
   10   13   43      4.99      0.00
   12   13   43      0.62      0.00
    1   14   43      3.00      0.00
    3   14   43      7.37      0.00
    5   14   43      3.72      0.00
    7   14   43      2.86      0.00
    9   14   43    -10.84      0.00
   11   14   43      0.20      0.00
   13   14   43    -13.28      0.00
    0   15   43     -7.32      0.00
    2   15   43      7.31      0.00
    4   15   43      2.26      0.00
    6   15   43      8.65      0.00
    8   15   43     18.57      0.00
   10   15   43     -8.16      0.00
   12   15   43     15.02      0.00
    1   16   43     -2.11      0.00
    3   16   43      4.95      0.00
    5   16   43     13.26      0.00
    7   16   43     11.30      0.00
    9   16   43     -3.55      0.00
    0   17   43      4.46      0.00
    2   17   43     13.91      0.00
    4   17   43     13.63      0.00
    6   17   43     -1.85      0.00
    8   17   43     13.85      0.00
    1   18   43     -4.61      0.00
    3   18   43     -9.47      0.00
    5   18   43     -6.00      0.00
    7   18   43    -15.66      0.00
    0   19   43      4.93      0.00
    2   19   43     -0.51      0.00
    0    0   44      3.54      0.00
    0    2   44     -7.37      0.00
    2    2   44      5.09      0.00
    1    3   44      3.27      0.00
    0    4   44     -6.85      0.00
    2    4   44     -3.11      0.00
    4    4   44     12.69      0.00
    1    5   44      3.21      0.00
    3    5   44     -2.43      0.00
    0    6   44     14.39      0.00
    2    6   44     10.91      0.00
    4    6   44     14.33      0.00
    6    6   44     -1.47      0.00
    1    7   44     -2.80      0.00
    3    7   44      1.69      0.00
    5    7   44      0.50      0.00
    0    8   44      0.87      0.00
    2    8   44     -0.75      0.00
    4    8   44     -0.03      0.00
    6    8   44     15.32      0.00
    8    8   44     -2.76      0.00
    1    9   44     -0.11      0.00
    3    9   44      5.73      0.00
    5    9   44      4.31      0.00
    7    9   44      5.28      0.00
    0   10   44      9.12      0.00
    2   10   44     -4.22      0.00
    4   10   44     -2.83      0.00
    6   10   44      2.07      0.00
    8   10   44     -0.02      0.00
   10   10   44     -0.88      0.00
    1   11   44      5.50      0.00
    3   11   44      4.10      0.00
    5   11   44      6.73      0.00
    7   11   44     -4.28      0.00
    9   11   44     -1.48      0.00
    0   12   44      5.25      0.00
    2   12   44     -1.04      0.00
    4   12   44      3.47      0.00
    6   12   44      0.13      0.00
    8   12   44     -8.78      0.00
   10   12   44     11.40      0.00
   12   12   44      3.74      0.00
    1   13   44      0.44      0.00
    3   13   44     -8.55      0.00
    5   13   44     -0.69      0.00
    7   13   44     -1.87      0.00
    9   13   44     -4.19      0.00
   11   13   44     -4.96      0.00
    0   14   44    -14.43      0.00
    2   14   44      2.27      0.00
    4   14   44      9.52      0.00
    6   14   44     -2.88      0.00
    8   14   44     -1.18      0.00
   10   14   44     -5.10      0.00
   12   14   44     -7.46      0.00
    1   15   44      1.03      0.00
    3   15   44     20.03      0.00
    5   15   44    -11.38      0.00
    7   15   44     16.82      0.00
    9   15   44      8.15      0.00
   11   15   44     -9.89      0.00
    0   16   44     -2.50      0.00
    2   16   44     -2.20      0.00
    4   16   44      9.86      0.00
    6   16   44     -2.45      0.00
    8   16   44      2.78      0.00
   10   16   44     -6.23      0.00
    1   17   44      0.38      0.00
    3   17   44      7.21      0.00
    5   17   44      8.40      0.00
    7   17   44     14.97      0.00
    0   18   44     -9.97      0.00
    2   18   44    -10.26      0.00
    4   18   44    -10.57      0.00
    6   18   44     -3.39      0.00
    1   19   44      6.48      0.00
    0    1   45     -2.39      0.00
    1    2   45      1.94      0.00
    0    3   45      9.24      0.00
    2    3   45      4.54      0.00
    1    4   45      0.82      0.00
    3    4   45      3.33      0.00
    0    5   45     -5.88      0.00
    2    5   45      1.56      0.00
    4    5   45      4.42      0.00
    1    6   45     -3.53      0.00
    3    6   45      1.76      0.00
    5    6   45      0.82      0.00
    0    7   45     -3.88      0.00
    2    7   45      0.54      0.00
    4    7   45     -2.45      0.00
    6    7   45     -1.25      0.00
    1    8   45     -3.48      0.00
    3    8   45     -9.68      0.00
    5    8   45     -9.16      0.00
    7    8   45     -1.43      0.00
    0    9   45     -1.46      0.00
    2    9   45      4.07      0.00
    4    9   45      3.81      0.00
    6    9   45     -5.98      0.00
    8    9   45     -5.12      0.00
    1   10   45     -1.48      0.00
    3   10   45     -4.20      0.00
    5   10   45     -4.80      0.00
    7   10   45      4.19      0.00
    9   10   45      6.35      0.00
    0   11   45     -0.97      0.00
    2   11   45      4.51      0.00
    4   11   45    -18.93      0.00
    6   11   45     -0.17      0.00
    8   11   45     -8.39      0.00
   10   11   45      2.83      0.00
    1   12   45    -10.31      0.00
    3   12   45    -14.35      0.00
    5   12   45     -0.45      0.00
    7   12   45      6.39      0.00
    9   12   45    -16.71      0.00
   11   12   45    -10.14      0.00
    0   13   45     -0.73      0.00
    2   13   45    -16.61      0.00
    4   13   45     13.37      0.00
    6   13   45     -5.29      0.00
    8   13   45      2.96      0.00
   10   13   45     12.99      0.00
   12   13   45      3.27      0.00
    1   14   45    -13.30      0.00
    3   14   45     -5.43      0.00
    5   14   45      2.69      0.00
    7   14   45      2.90      0.00
    9   14   45      4.34      0.00
   11   14   45    -15.13      0.00
    0   15   45      1.49      0.00
    2   15   45      7.81      0.00
    4   15   45      4.10      0.00
    6   15   45      2.66      0.00
    8   15   45     16.37      0.00
   10   15   45    -11.62      0.00
    1   16   45     -1.96      0.00
    3   16   45     11.11      0.00
    5   16   45    -11.12      0.00
    7   16   45     -3.65      0.00
    9   16   45      4.19      0.00
    0   17   45     -1.39      0.00
    2   17   45     12.99      0.00
    4   17   45      6.53      0.00
    6   17   45     -5.18      0.00
    8   17   45      5.79      0.00
    1   18   45      0.19      0.00
    3   18   45     -7.57      0.00
    5   18   45     -0.84      0.00
    1    1   46     -1.51      0.00
    0    2   46     -2.66      0.00
    1    3   46      3.42      0.00
    3    3   46     -2.19      0.00
    0    4   46      3.52      0.00
    2    4   46      3.61      0.00
    1    5   46      2.26      0.00
    3    5   46     -2.86      0.00
    5    5   46      8.51      0.00
    0    6   46     -0.70      0.00
    2    6   46     -8.51      0.00
    4    6   46      4.82      0.00
    1    7   46     -3.04      0.00
    3    7   46     -2.32      0.00
    5    7   46     -6.33      0.00
    7    7   46      1.53      0.00
    0    8   46      0.73      0.00
    2    8   46      6.50      0.00
    4    8   46      0.75      0.00
    6    8   46      7.49      0.00
    1    9   46     11.75      0.00
    3    9   46      6.02      0.00
    5    9   46      6.69      0.00
    7    9   46     -5.07      0.00
    9    9   46      1.93      0.00
    0   10   46     -6.14      0.00
    2   10   46    -11.56      0.00
    4   10   46     -1.92      0.00
    6   10   46      1.80      0.00
    8   10   46     -0.49      0.00
    1   11   46     10.95      0.00
    3   11   46      9.45      0.00
    5   11   46     -3.83      0.00
    7   11   46    -15.73      0.00
    9   11   46      1.59      0.00
   11   11   46      6.19      0.00
    0   12   46     -8.27      0.00
    2   12   46     -5.78      0.00
    4   12   46    -13.77      0.00
    6   12   46     11.67      0.00
    8   12   46      3.28      0.00
   10   12   46      5.94      0.00
    1   13   46    -13.21      0.00
    3   13   46     -6.10      0.00
    5   13   46      1.70      0.00
    7   13   46      7.43      0.00
    9   13   46    -11.66      0.00
   11   13   46     11.64      0.00
   13   13   46     -4.86      0.00
    0   14   46     -4.10      0.00
    2   14   46     -6.45      0.00
    4   14   46     -4.33      0.00
    6   14   46      4.83      0.00
    8   14   46     14.92      0.00
   10   14   46    -26.05      0.00
   12   14   46     -7.75      0.00
    1   15   46      0.02      0.00
    3   15   46      8.20      0.00
    5   15   46     20.62      0.00
    7   15   46      7.12      0.00
    9   15   46      2.22      0.00
    0   16   46     -5.55      0.00
    2   16   46     -1.02      0.00
    4   16   46      1.19      0.00
    6   16   46     -1.42      0.00
    8   16   46      0.25      0.00
    1   17   46      7.51      0.00
    3   17   46      1.07      0.00
    5   17   46     -7.91      0.00
    7   17   46     -1.25      0.00
    0   18   46     -4.57      0.00
    2   18   46     -6.95      0.00
    4   18   46     -6.88      0.00
    0    1   47    -11.35      0.00
    1    2   47     -2.29      0.00
    0    3   47      4.90      0.00
    2    3   47     -0.71      0.00
    1    4   47     -2.22      0.00
    3    4   47     -5.45      0.00
    0    5   47     -0.27      0.00
    2    5   47     -1.57      0.00
    4    5   47     -9.72      0.00
    1    6   47     -1.28      0.00
    3    6   47      1.65      0.00
    5    6   47      4.86      0.00
    0    7   47      2.31      0.00
    2    7   47     -8.98      0.00
    4    7   47    -11.74      0.00
    6    7   47      2.57      0.00
    1    8   47      7.23      0.00
    3    8   47      1.71      0.00
    5    8   47      8.04      0.00
    7    8   47      9.37      0.00
    0    9   47      7.89      0.00
    2    9   47     12.84      0.00
    4    9   47      2.62      0.00
    6    9   47     -1.16      0.00
    8    9   47     -1.62      0.00
    1   10   47     17.78      0.00
    3   10   47     16.03      0.00
    5   10   47      4.85      0.00
    7   10   47     -2.79      0.00
    9   10   47      9.31      0.00
    0   11   47     10.45      0.00
    2   11   47      5.19      0.00
    4   11   47      9.79      0.00
    6   11   47     12.61      0.00
    8   11   47      5.46      0.00
   10   11   47      0.10      0.00
    1   12   47      3.91      0.00
    3   12   47    -13.32      0.00
    5   12   47      4.16      0.00
    7   12   47     -0.34      0.00
    9   12   47     10.78      0.00
   11   12   47     11.60      0.00
    0   13   47     -9.42      0.00
    2   13   47      4.73      0.00
    4   13   47     24.13      0.00
    6   13   47     -8.02      0.00
    8   13   47     -2.16      0.00
   10   13   47     -7.96      0.00
   12   13   47      5.40      0.00
    1   14   47     -4.18      0.00
    3   14   47     15.23      0.00
    5   14   47    -11.20      0.00
    7   14   47     16.34      0.00
    9   14   47     12.97      0.00
   11   14   47     -6.30      0.00
    0   15   47     -5.78      0.00
    2   15   47      5.92      0.00
    4   15   47    -14.40      0.00
    6   15   47      4.52      0.00
    8   15   47     11.26      0.00
   10   15   47     -3.98      0.00
    1   16   47      0.37      0.00
    3   16   47     -9.11      0.00
    5   16   47      1.06      0.00
    7   16   47      2.40      0.00
    0   17   47      1.70      0.00
    2   17   47     -5.56      0.00
    4   17   47      8.59      0.00
    6   17   47     12.44      0.00
    1   18   47      1.50      0.00
    3   18   47    -14.78      0.00
    0    0   48    -10.04      0.00
    0    2   48      4.88      0.00
    2    2   48      9.34      0.00
    1    3   48      4.75      0.00
    0    4   48     -8.14      0.00
    2    4   48     -6.87      0.00
    4    4   48      1.15      0.00
    1    5   48      3.19      0.00
    3    5   48     -0.83      0.00
    0    6   48      2.21      0.00
    2    6   48     -0.79      0.00
    4    6   48      4.54      0.00
    6    6   48     -3.73      0.00
    1    7   48     -4.13      0.00
    3    7   48     -8.04      0.00
    5    7   48    -11.92      0.00
    0    8   48     21.73      0.00
    2    8   48      6.40      0.00
    4    8   48    -10.84      0.00
    6    8   48     -3.45      0.00
    8    8   48    -15.53      0.00
    1    9   48     -0.34      0.00
    3    9   48     -6.14      0.00
    5    9   48      2.90      0.00
    7    9   48     -9.39      0.00
    0   10   48      1.99      0.00
    2   10   48     -1.97      0.00
    4   10   48      0.58      0.00
    6   10   48     -2.51      0.00
    8   10   48      1.45      0.00
   10   10   48     11.24      0.00
    1   11   48      8.05      0.00
    3   11   48     -3.16      0.00
    5   11   48     -4.85      0.00
    7   11   48      5.02      0.00
    9   11   48     -4.53      0.00
    0   12   48      5.94      0.00
    2   12   48    -16.50      0.00
    4   12   48     -5.62      0.00
    6   12   48     -0.12      0.00
    8   12   48     -5.34      0.00
   10   12   48     12.60      0.00
   12   12   48      0.03      0.00
    1   13   48      3.82      0.00
    3   13   48     -6.73      0.00
    5   13   48     -0.99      0.00
    7   13   48     -1.22      0.00
    9   13   48     10.23      0.00
   11   13   48     12.22      0.00
    0   14   48    -10.34      0.00
    2   14   48     -2.40      0.00
    4   14   48      0.06      0.00
    6   14   48    -10.22      0.00
    8   14   48     15.80      0.00
   10   14   48     -7.38      0.00
    1   15   48     -3.11      0.00
    3   15   48     22.09      0.00
    5   15   48    -10.54      0.00
    7   15   48     -3.21      0.00
    9   15   48      7.72      0.00
    0   16   48     -3.05      0.00
    2   16   48     11.02      0.00
    4   16   48     -3.46      0.00
    6   16   48    -11.82      0.00
    8   16   48      4.64      0.00
    1   17   48     10.45      0.00
    3   17   48     -4.69      0.00
    5   17   48      1.89      0.00
    0   18   48     19.58      0.00
    0    1   49      4.78      0.00
    1    2   49     -0.06      0.00
    0    3   49     -5.00      0.00
    2    3   49     -0.69      0.00
    1    4   49    -15.21      0.00
    3    4   49     -7.15      0.00
    0    5   49     -6.65      0.00
    2    5   49     -7.85      0.00
    4    5   49     -5.19      0.00
    1    6   49     -0.90      0.00
    3    6   49      3.14      0.00
    5    6   49     -5.53      0.00
    0    7   49     -9.05      0.00
    2    7   49      4.93      0.00
    4    7   49      4.29      0.00
    6    7   49     -1.13      0.00
    1    8   49      4.95      0.00
    3    8   49     -4.08      0.00
    5    8   49     -0.64      0.00
    7    8   49     -3.93      0.00
    0    9   49      8.01      0.00
    2    9   49     -0.33      0.00
    4    9   49      3.91      0.00
    6    9   49     14.19      0.00
    8    9   49      0.16      0.00
    1   10   49    -15.41      0.00
    3   10   49     -4.05      0.00
    5   10   49      0.53      0.00
    7   10   49     -3.47      0.00
    9   10   49     -4.30      0.00
    0   11   49     -8.21      0.00
    2   11   49      0.39      0.00
    4   11   49     -5.69      0.00
    6   11   49      3.85      0.00
    8   11   49      4.52      0.00
   10   11   49     -3.20      0.00
    1   12   49    -17.30      0.00
    3   12   49    -13.58      0.00
    5   12   49    -10.33      0.00
    7   12   49      4.43      0.00
    9   12   49     -7.72      0.00
   11   12   49      6.68      0.00
    0   13   49      3.24      0.00
    2   13   49     -5.04      0.00
    4   13   49      1.98      0.00
    6   13   49      1.42      0.00
    8   13   49     10.44      0.00
   10   13   49    -17.91      0.00
   12   13   49     -4.48      0.00
    1   14   49    -13.21      0.00
    3   14   49    -18.97      0.00
    5   14   49    -12.48      0.00
    7   14   49      7.77      0.00
    9   14   49     -4.01      0.00
    0   15   49     -2.63      0.00
    2   15   49     14.08      0.00
    4   15   49     13.41      0.00
    6   15   49      8.44      0.00
    8   15   49     -4.32      0.00
    1   16   49     11.71      0.00
    3   16   49      9.31      0.00
    5   16   49      2.45      0.00
    7   16   49     -4.31      0.00
    0   17   49     14.43      0.00
    2   17   49     -9.05      0.00
    4   17   49      6.40      0.00
    1    1   50     -2.78      0.00
    0    2   50     -3.29      0.00
    1    3   50      6.93      0.00
    3    3   50     -0.82      0.00
    0    4   50     -3.47      0.00
    2    4   50    -24.34      0.00
    1    5   50      0.07      0.00
    3    5   50      0.67      0.00
    5    5   50      5.44      0.00
    0    6   50     -8.42      0.00
    2    6   50     -2.28      0.00
    4    6   50      2.81      0.00
    1    7   50      1.04      0.00
    3    7   50      4.05      0.00
    5    7   50     -6.51      0.00
    7    7   50      5.92      0.00
    0    8   50     -2.36      0.00
    2    8   50      7.70      0.00
    4    8   50     -0.36      0.00
    6    8   50      4.25      0.00
    1    9   50     -4.82      0.00
    3    9   50     -6.18      0.00
    5    9   50     -0.50      0.00
    7    9   50      1.28      0.00
    9    9   50     21.37      0.00
    0   10   50     14.66      0.00
    2   10   50     -8.57      0.00
    4   10   50      4.99      0.00
    6   10   50     -3.55      0.00
    8   10   50      4.56      0.00
    1   11   50      0.78      0.00
    3   11   50    -13.35      0.00
    5   11   50      2.63      0.00
    7   11   50      4.34      0.00
    9   11   50      3.61      0.00
   11   11   50      8.77      0.00
    0   12   50     -4.80      0.00
    2   12   50     -4.96      0.00
    4   12   50    -19.90      0.00
    6   12   50    -13.64      0.00
    8   12   50    -17.40      0.00
   10   12   50     14.52      0.00
    1   13   50     -2.44      0.00
    3   13   50     12.59      0.00
    5   13   50     10.48      0.00
    7   13   50     -0.30      0.00
    9   13   50      4.62      0.00
   11   13   50     -3.92      0.00
    0   14   50     -4.57      0.00
    2   14   50    -11.49      0.00
    4   14   50    -10.67      0.00
    6   14   50     11.71      0.00
    8   14   50     12.29      0.00
   10   14   50    -17.47      0.00
    1   15   50      1.01      0.00
    3   15   50      8.46      0.00
    5   15   50      0.43      0.00
    7   15   50      8.87      0.00
    0   16   50      3.65      0.00
    2   16   50      4.50      0.00
    4   16   50     -4.04      0.00
    6   16   50     -2.06      0.00
    1   17   50     -0.04      0.00
    3   17   50      5.45      0.00
    0    1   51      1.13      0.00
    1    2   51     17.19      0.00
    0    3   51      2.31      0.00
    2    3   51      0.90      0.00
    1    4   51     -1.45      0.00
    3    4   51     -4.74      0.00
    0    5   51      6.83      0.00
    2    5   51      4.77      0.00
    4    5   51     -0.76      0.00
    1    6   51      8.61      0.00
    3    6   51      7.81      0.00
    5    6   51      9.86      0.00
    0    7   51     -7.51      0.00
    2    7   51     -1.28      0.00
    4    7   51     -3.80      0.00
    6    7   51     -2.74      0.00
    1    8   51      6.77      0.00
    3    8   51     -1.60      0.00
    5    8   51     -1.05      0.00
    7    8   51     -4.19      0.00
    0    9   51     -2.78      0.00
    2    9   51     -4.74      0.00
    4    9   51     -3.39      0.00
    6    9   51     -3.49      0.00
    8    9   51     -6.96      0.00
    1   10   51      7.91      0.00
    3   10   51      8.85      0.00
    5   10   51      3.01      0.00
    7   10   51     -1.06      0.00
    9   10   51      1.72      0.00
    0   11   51      0.57      0.00
    2   11   51     -5.37      0.00
    4   11   51    -15.37      0.00
    6   11   51    -12.39      0.00
    8   11   51      3.53      0.00
   10   11   51      8.17      0.00
    1   12   51     14.50      0.00
    3   12   51     -4.58      0.00
    5   12   51     -5.41      0.00
    7   12   51    -13.64      0.00
    9   12   51      4.10      0.00
   11   12   51      8.61      0.00
    0   13   51      4.58      0.00
    2   13   51     -9.13      0.00
    4   13   51    -23.40      0.00
    6   13   51    -13.50      0.00
    8   13   51      1.50      0.00
   10   13   51      3.32      0.00
    1   14   51      6.35      0.00
    3   14   51     -2.14      0.00
    5   14   51     -4.76      0.00
    7   14   51     -6.59      0.00
    9   14   51     -2.74      0.00
    0   15   51      5.64      0.00
    2   15   51     13.21      0.00
    4   15   51     18.42      0.00
    6   15   51      5.38      0.00
    8   15   51     -0.26      0.00
    1   16   51     13.74      0.00
    3   16   51     -2.22      0.00
    5   16   51      1.11      0.00
    0   17   51     13.45      0.00
    2   17   51      5.81      0.00
    0    0   52     10.14      0.00
    0    2   52     -4.83      0.00
    2    2   52      5.47      0.00
    1    3   52     -8.06      0.00
    0    4   52     -5.94      0.00
    2    4   52     -1.03      0.00
    4    4   52     -8.62      0.00
    1    5   52     10.62      0.00
    3    5   52      4.18      0.00
    0    6   52      9.96      0.00
    2    6   52     -7.22      0.00
    4    6   52      6.04      0.00
    6    6   52     -6.61      0.00
    1    7   52      3.18      0.00
    3    7   52      4.27      0.00
    5    7   52      4.73      0.00
    0    8   52      2.57      0.00
    2    8   52     -2.61      0.00
    4    8   52     -2.48      0.00
    6    8   52      0.94      0.00
    8    8   52      1.11      0.00
    1    9   52     -2.20      0.00
    3    9   52      1.53      0.00
    5    9   52      2.27      0.00
    7    9   52     22.69      0.00
    0   10   52     17.04      0.00
    2   10   52      5.25      0.00
    4   10   52     14.43      0.00
    6   10   52     -4.89      0.00
    8   10   52     -3.56      0.00
   10   10   52      0.90      0.00
    1   11   52      3.27      0.00
    3   11   52     -9.58      0.00
    5   11   52     -0.20      0.00
    7   11   52      2.09      0.00
    9   11   52     -2.96      0.00
    0   12   52      0.57      0.00
    2   12   52      7.28      0.00
    4   12   52      0.83      0.00
    6   12   52     -4.59      0.00
    8   12   52     -5.99      0.00
   10   12   52      8.19      0.00
    1   13   52     -7.36      0.00
    3   13   52     -5.52      0.00
    5   13   52     -5.08      0.00
    7   13   52      5.92      0.00
    9   13   52      4.74      0.00
    0   14   52      9.82      0.00
    2   14   52      3.39      0.00
    4   14   52      4.26      0.00
    6   14   52    -10.23      0.00
    8   14   52      0.65      0.00
    1   15   52     19.73      0.00
    3   15   52     -1.57      0.00
    5   15   52     -4.55      0.00
    7   15   52     -4.91      0.00
    0   16   52      6.65      0.00
    2   16   52      0.30      0.00
    4   16   52     -2.76      0.00
    0    1   53      7.96      0.00
    1    2   53     -3.26      0.00
    0    3   53      7.49      0.00
    2    3   53      4.30      0.00
    1    4   53     -7.14      0.00
    3    4   53     -7.44      0.00
    0    5   53      7.56      0.00
    2    5   53     21.03      0.00
    4    5   53      1.93      0.00
    1    6   53     -5.91      0.00
    3    6   53     -3.53      0.00
    5    6   53     -0.82      0.00
    0    7   53     -3.44      0.00
    2    7   53      0.04      0.00
    4    7   53     -1.38      0.00
    6    7   53     -4.23      0.00
    1    8   53      7.02      0.00
    3    8   53     -5.88      0.00
    5    8   53     -4.48      0.00
    7    8   53    -14.23      0.00
    0    9   53     14.51      0.00
    2    9   53    -11.91      0.00
    4    9   53     -5.65      0.00
    6    9   53      4.67      0.00
    8    9   53      3.15      0.00
    1   10   53     -6.08      0.00
    3   10   53     -6.47      0.00
    5   10   53    -11.29      0.00
    7   10   53      5.47      0.00
    9   10   53      0.02      0.00
    0   11   53      0.63      0.00
    2   11   53     -0.68      0.00
    4   11   53    -12.32      0.00
    6   11   53     -0.60      0.00
    8   11   53     14.94      0.00
   10   11   53      8.96      0.00
    1   12   53     -3.55      0.00
    3   12   53     -1.76      0.00
    5   12   53      3.34      0.00
    7   12   53     -4.17      0.00
    9   12   53      0.95      0.00
   11   12   53     -0.09      0.00
    0   13   53     -3.33      0.00
    2   13   53     -3.30      0.00
    4   13   53      4.61      0.00
    6   13   53     13.95      0.00
    8   13   53      8.26      0.00
   10   13   53      5.19      0.00
    1   14   53     -6.04      0.00
    3   14   53      6.81      0.00
    5   14   53     -2.44      0.00
    7   14   53     18.31      0.00
    0   15   53    -15.54      0.00
    2   15   53     -6.42      0.00
    4   15   53      2.52      0.00
    6   15   53    -14.72      0.00
    1   16   53      1.66      0.00
    3   16   53     -6.13      0.00
    1    1   54     13.89      0.00
    0    2   54      8.39      0.00
    1    3   54      4.75      0.00
    3    3   54      3.55      0.00
    0    4   54     -3.71      0.00
    2    4   54     -3.27      0.00
    1    5   54      1.80      0.00
    3    5   54     -2.03      0.00
    5    5   54     -1.61      0.00
    0    6   54     13.85      0.00
    2    6   54      6.25      0.00
    4    6   54      5.81      0.00
    1    7   54    -10.24      0.00
    3    7   54     10.02      0.00
    5    7   54     -1.37      0.00
    7    7   54      1.29      0.00
    2    8   54      0.92      0.00
    4    8   54     -3.37      0.00
    6    8   54    -10.05      0.00
    1    9   54      5.63      0.00
    3    9   54      1.35      0.00
    5    9   54      3.25      0.00
    7    9   54     -4.84      0.00
    9    9   54      2.58      0.00
    0   10   54      6.62      0.00
    2   10   54     -6.26      0.00
    4   10   54      6.67      0.00
    6   10   54      9.03      0.00
    8   10   54     -0.40      0.00
    1   11   54     -1.75      0.00
    3   11   54    -18.76      0.00
    5   11   54     -4.21      0.00
    7   11   54     -4.92      0.00
    9   11   54      3.57      0.00
   11   11   54     18.57      0.00
    0   12   54      3.35      0.00
    2   12   54    -10.19      0.00
    4   12   54      0.60      0.00
    6   12   54      4.06      0.00
    8   12   54    -14.75      0.00
   10   12   54     -7.45      0.00
    1   13   54      1.12      0.00
    3   13   54     -4.76      0.00
    5   13   54     -6.85      0.00
    7   13   54     -5.48      0.00
    9   13   54      9.02      0.00
    0   14   54      5.28      0.00
    2   14   54     -2.45      0.00
    4   14   54     -7.56      0.00
    6   14   54     -2.24      0.00
    8   14   54      0.79      0.00
    1   15   54    -16.25      0.00
    3   15   54     -8.24      0.00
    5   15   54      4.74      0.00
    0   16   54     -2.86      0.00
    2   16   54     -1.30      0.00
    0    1   55      5.84      0.00
    1    2   55     -1.92      0.00
    0    3   55      3.26      0.00
    2    3   55     11.19      0.00
    1    4   55     -5.15      0.00
    3    4   55     -4.66      0.00
    0    5   55      2.90      0.00
    2    5   55     -6.49      0.00
    4    5   55      1.44      0.00
    1    6   55      1.66      0.00
    3    6   55     -7.62      0.00
    5    6   55      3.73      0.00
    0    7   55      8.79      0.00
    2    7   55      5.65      0.00
    4    7   55      5.21      0.00
    6    7   55    -15.62      0.00
    1    8   55      0.99      0.00
    3    8   55     15.41      0.00
    5    8   55      1.58      0.00
    7    8   55     -5.52      0.00
    0    9   55     -7.44      0.00
    2    9   55      3.35      0.00
    4    9   55     -5.97      0.00
    6    9   55     13.67      0.00
    8    9   55     14.74      0.00
    1   10   55     -0.91      0.00
    3   10   55     -3.07      0.00
    5   10   55     12.76      0.00
    7   10   55    -12.67      0.00
    9   10   55     20.18      0.00
    0   11   55      1.03      0.00
    2   11   55     -1.13      0.00
    4   11   55      2.62      0.00
    6   11   55      0.96      0.00
    8   11   55      2.07      0.00
   10   11   55    -10.46      0.00
    1   12   55     -2.66      0.00
    3   12   55      4.82      0.00
    5   12   55      1.77      0.00
    7   12   55     -6.96      0.00
    9   12   55     -0.37      0.00
    0   13   55     -3.06      0.00
    2   13   55    -10.33      0.00
    4   13   55     -6.16      0.00
    6   13   55     -7.12      0.00
    8   13   55     -3.34      0.00
    1   14   55      1.21      0.00
    3   14   55     -4.82      0.00
    5   14   55      4.11      0.00
    7   14   55     -4.62      0.00
    0   15   55      3.59      0.00
    2   15   55     -1.18      0.00
    4   15   55    -11.42      0.00
    0    0   56     21.65      0.00
    0    2   56     -4.74      0.00
    2    2   56     17.36      0.00
    1    3   56     10.96      0.00
    0    4   56     -0.74      0.00
    2    4   56     -6.94      0.00
    4    4   56    -10.68      0.00
    1    5   56      6.16      0.00
    3    5   56     -1.24      0.00
    0    6   56      2.33      0.00
    2    6   56      0.78      0.00
    4    6   56     10.69      0.00
    6    6   56      0.68      0.00
    1    7   56      5.12      0.00
    3    7   56     10.20      0.00
    5    7   56     -0.68      0.00
    0    8   56     13.95      0.00
    2    8   56     -0.68      0.00
    4    8   56     15.33      0.00
    6    8   56     -2.56      0.00
    8    8   56     -0.82      0.00
    1    9   56      0.46      0.00
    3    9   56     -0.40      0.00
    5    9   56     -3.90      0.00
    7    9   56     18.28      0.00
    0   10   56     -7.21      0.00
    2   10   56     -2.79      0.00
    4   10   56      0.69      0.00
    6   10   56     -1.09      0.00
    8   10   56      6.16      0.00
   10   10   56     16.22      0.00
    1   11   56      0.18      0.00
    3   11   56    -11.18      0.00
    5   11   56      3.61      0.00
    7   11   56      6.48      0.00
    9   11   56     12.48      0.00
    0   12   56     -5.35      0.00
    2   12   56      0.02      0.00
    4   12   56     20.74      0.00
    6   12   56      1.51      0.00
    8   12   56      6.39      0.00
    1   13   56     -4.11      0.00
    3   13   56     -9.60      0.00
    5   13   56     -3.81      0.00
    7   13   56      3.84      0.00
    0   14   56     -7.22      0.00
    2   14   56     -4.69      0.00
    4   14   56    -10.75      0.00
    6   14   56     -3.95      0.00
    1   15   56     -6.13      0.00
    3   15   56     -6.47      0.00
    0    1   57      5.85      0.00
    1    2   57      6.30      0.00
    0    3   57     -7.95      0.00
    2    3   57     -5.53      0.00
    1    4   57     -4.76      0.00
    3    4   57      2.14      0.00
    0    5   57     12.21      0.00
    2    5   57     10.37      0.00
    4    5   57     -4.38      0.00
    1    6   57      5.13      0.00
    3    6   57      8.23      0.00
    5    6   57     -6.83      0.00
    0    7   57     10.94      0.00
    2    7   57      3.60      0.00
    4    7   57     21.31      0.00
    6    7   57     -5.39      0.00
    1    8   57     -5.66      0.00
    3    8   57     -1.17      0.00
    5    8   57     12.20      0.00
    7    8   57     -0.35      0.00
    0    9   57     -2.12      0.00
    2    9   57     -1.42      0.00
    4    9   57      4.52      0.00
    6    9   57     17.56      0.00
    8    9   57     15.20      0.00
    1   10   57      1.03      0.00
    3   10   57      3.32      0.00
    5   10   57      9.04      0.00
    7   10   57      9.31      0.00
    9   10   57      2.68      0.00
    0   11   57     12.30      0.00
    2   11   57     -3.22      0.00
    4   11   57     10.54      0.00
    6   11   57      9.73      0.00
    8   11   57     -8.77      0.00
   10   11   57    -13.29      0.00
    1   12   57     -7.46      0.00
    3   12   57     14.74      0.00
    5   12   57     -5.33      0.00
    7   12   57     -0.68      0.00
    9   12   57     -9.52      0.00
    0   13   57    -18.00      0.00
    2   13   57      0.24      0.00
    4   13   57    -16.76      0.00
    6   13   57     -5.88      0.00
    1   14   57     -0.61      0.00
    3   14   57    -13.74      0.00
    5   14   57     -2.47      0.00
    0   15   57      0.29      0.00
    1    1   58      2.31      0.00
    0    2   58     11.30      0.00
    1    3   58     -9.28      0.00
    3    3   58    -16.13      0.00
    0    4   58     -1.19      0.00
    2    4   58     -4.36      0.00
    1    5   58      0.34      0.00
    3    5   58     -3.00      0.00
    5    5   58    -11.26      0.00
    0    6   58     -1.54      0.00
    2    6   58     -0.37      0.00
    4    6   58     -0.26      0.00
    1    7   58     -4.41      0.00
    3    7   58      4.21      0.00
    5    7   58     -1.76      0.00
    7    7   58    -26.76      0.00
    0    8   58     -8.28      0.00
    2    8   58     -8.09      0.00
    4    8   58     -2.99      0.00
    6    8   58      0.54      0.00
    1    9   58      2.82      0.00
    3    9   58     -5.06      0.00
    5    9   58      2.11      0.00
    7    9   58     -3.96      0.00
    9    9   58     -3.36      0.00
    0   10   58     -2.23      0.00
    2   10   58     -5.99      0.00
    4   10   58     11.33      0.00
    6   10   58     -0.14      0.00
    8   10   58      1.46      0.00
    1   11   58      1.47      0.00
    3   11   58      4.33      0.00
    5   11   58      6.85      0.00
    7   11   58     13.28      0.00
    9   11   58      2.57      0.00
    0   12   58     -1.06      0.00
    2   12   58     -8.87      0.00
    4   12   58      3.27      0.00
    6   12   58      0.98      0.00
    8   12   58     -5.50      0.00
    1   13   58    -15.61      0.00
    3   13   58     -6.92      0.00
    5   13   58      6.07      0.00
    0   14   58    -13.36      0.00
    2   14   58      0.48      0.00
    4   14   58     -6.97      0.00
    0    1   59    -15.51      0.00
    1    2   59     -9.10      0.00
    0    3   59    -10.58      0.00
    2    3   59     -5.50      0.00
    1    4   59     -1.18      0.00
    3    4   59    -11.76      0.00
    0    5   59    -10.49      0.00
    2    5   59     -3.02      0.00
    4    5   59     -3.71      0.00
    1    6   59      3.24      0.00
    3    6   59     11.78      0.00
    5    6   59    -10.64      0.00
    0    7   59     -2.32      0.00
    2    7   59     -9.03      0.00
    4    7   59     14.70      0.00
    6    7   59      7.13      0.00
    1    8   59     -3.08      0.00
    3    8   59      4.27      0.00
    5    8   59      2.39      0.00
    7    8   59     -1.51      0.00
    0    9   59      5.01      0.00
    2    9   59     -5.62      0.00
    4    9   59     -9.33      0.00
    6    9   59     -5.45      0.00
    8    9   59     -0.67      0.00
    1   10   59     -4.00      0.00
    3   10   59     -1.61      0.00
    5   10   59     17.72      0.00
    7   10   59     -5.71      0.00
    9   10   59      7.81      0.00
    0   11   59     -3.86      0.00
    2   11   59     -9.71      0.00
    4   11   59      3.35      0.00
    6   11   59     -0.24      0.00
    8   11   59      6.24      0.00
    1   12   59     -7.98      0.00
    3   12   59     -1.26      0.00
    5   12   59     -6.39      0.00
    7   12   59     -4.44      0.00
    0   13   59     -1.08      0.00
    2   13   59      2.99      0.00
    4   13   59     -9.94      0.00
    1   14   59     12.43      0.00
    0    0   60    -32.94      0.00
    0    2   60      2.41      0.00
    2    2   60    -23.65      0.00
    1    3   60     -3.60      0.00
    0    4   60     -3.95      0.00
    2    4   60      8.52      0.00
    4    4   60      9.12      0.00
    1    5   60    -10.81      0.00
    3    5   60      2.16      0.00
    0    6   60     -5.89      0.00
    2    6   60      3.85      0.00
    4    6   60     -0.13      0.00
    6    6   60     -8.55      0.00
    1    7   60      7.96      0.00
    3    7   60    -11.32      0.00
    5    7   60      2.93      0.00
    0    8   60     -1.43      0.00
    2    8   60     -6.21      0.00
    4    8   60      8.95      0.00
    6    8   60    -14.16      0.00
    8    8   60      2.24      0.00
    1    9   60     -0.56      0.00
    3    9   60      3.17      0.00
    5    9   60    -14.92      0.00
    7    9   60      5.82      0.00
    0   10   60     -2.73      0.00
    2   10   60     -3.92      0.00
    4   10   60      1.32      0.00
    6   10   60      8.16      0.00
    8   10   60      0.85      0.00
    1   11   60     -3.07      0.00
    3   11   60     -2.89      0.00
    5   11   60      4.81      0.00
    7   11   60      4.26      0.00
    0   12   60     -3.07      0.00
    2   12   60     -2.39      0.00
    4   12   60     -4.35      0.00
    6   12   60    -23.18      0.00
    1   13   60      5.06      0.00
    3   13   60    -25.36      0.00
    0    1   61     -4.11      0.00
    1    2   61      3.33      0.00
    0    3   61      0.00      0.00
    2    3   61      2.15      0.00
    1    4   61     12.83      0.00
    3    4   61      0.30      0.00
    0    5   61    -10.62      0.00
    2    5   61    -19.36      0.00
    4    5   61    -15.74      0.00
    1    6   61     -7.80      0.00
    3    6   61      3.27      0.00
    5    6   61      9.35      0.00
    0    7   61      7.16      0.00
    2    7   61     -1.59      0.00
    4    7   61     -2.95      0.00
    6    7   61     -2.33      0.00
    1    8   61     12.28      0.00
    3    8   61     -6.60      0.00
    5    8   61     -7.45      0.00
    7    8   61      3.62      0.00
    0    9   61     19.28      0.00
    2    9   61      9.80      0.00
    4    9   61     10.00      0.00
    6    9   61    -12.33      0.00
    8    9   61     -1.43      0.00
    1   10   61     -7.39      0.00
    3   10   61      5.51      0.00
    5   10   61      6.19      0.00
    7   10   61      7.80      0.00
    0   11   61     -0.84      0.00
    2   11   61     -2.65      0.00
    4   11   61    -17.33      0.00
    6   11   61      0.35      0.00
    1   12   61      0.15      0.00
    3   12   61      2.11      0.00
    5   12   61    -16.89      0.00
    0   13   61    -11.82      0.00
    2   13   61     -4.15      0.00
    1    1   62     -6.62      0.00
    0    2   62     -1.03      0.00
    1    3   62     -6.16      0.00
    3    3   62     -4.62      0.00
    0    4   62      3.73      0.00
    2    4   62     -2.95      0.00
    1    5   62      2.06      0.00
    3    5   62     -2.60      0.00
    5    5   62    -21.16      0.00
    0    6   62     12.17      0.00
    2    6   62      1.70      0.00
    4    6   62     -7.07      0.00
    1    7   62     -0.94      0.00
    3    7   62      9.21      0.00
    5    7   62     12.53      0.00
    7    7   62     -2.49      0.00
    0    8   62     18.52      0.00
    2    8   62      0.40      0.00
    4    8   62      1.54      0.00
    6    8   62     -2.54      0.00
    1    9   62      2.78      0.00
    3    9   62     -3.96      0.00
    5    9   62     17.23      0.00
    7    9   62     10.05      0.00
    9    9   62      5.41      0.00
    0   10   62    -11.47      0.00
    2   10   62      3.06      0.00
    4   10   62      4.83      0.00
    6   10   62     17.94      0.00
    8   10   62     18.10      0.00
    1   11   62      0.65      0.00
    3   11   62      3.81      0.00
    5   11   62     -1.83      0.00
    0   12   62      9.09      0.00
    2   12   62      8.68      0.00
    4   12   62     -4.40      0.00
    0    1   63     12.80      0.00
    1    2   63     14.38      0.00
    0    3   63     -6.47      0.00
    2    3   63      3.50      0.00
    1    4   63      1.87      0.00
    3    4   63     10.36      0.00
    0    5   63     -4.26      0.00
    2    5   63      3.29      0.00
    4    5   63    -10.35      0.00
    1    6   63     11.06      0.00
    3    6   63      4.89      0.00
    5    6   63     -0.59      0.00
    0    7   63     18.21      0.00
    2    7   63     -9.71      0.00
    4    7   63      0.58      0.00
    6    7   63    -18.06      0.00
    1    8   63     -8.99      0.00
    3    8   63      6.32      0.00
    5    8   63    -18.69      0.00
    7    8   63     -5.67      0.00
    0    9   63      0.90      0.00
    2    9   63    -16.16      0.00
    4    9   63     -3.89      0.00
    6    9   63     -2.35      0.00
    8    9   63    -11.67      0.00
    1   10   63     -1.07      0.00
    3   10   63     -6.24      0.00
    5   10   63     17.00      0.00
    7   10   63     -1.14      0.00
    0   11   63      1.55      0.00
    2   11   63      2.55      0.00
    4   11   63     -6.98      0.00
    1   12   63      6.79      0.00
    0    0   64     12.92      0.00
    0    2   64     -3.75      0.00
    2    2   64     -0.48      0.00
    1    3   64     -0.23      0.00
    0    4   64      5.76      0.00
    2    4   64    -10.13      0.00
    4    4   64    -15.71      0.00
    1    5   64     -1.02      0.00
    3    5   64    -13.51      0.00
    0    6   64    -12.88      0.00
    2    6   64      8.43      0.00
    4    6   64      2.96      0.00
    6    6   64     -3.26      0.00
    1    7   64     16.02      0.00
    3    7   64      2.58      0.00
    5    7   64      0.63      0.00
    0    8   64     21.78      0.00
    2    8   64     -2.83      0.00
    4    8   64      3.83      0.00
    6    8   64     -9.62      0.00
    8    8   64      6.86      0.00
    1    9   64      3.99      0.00
    3    9   64      5.20      0.00
    5    9   64     -6.07      0.00
    7    9   64      4.15      0.00
    0   10   64    -11.67      0.00
    2   10   64     -7.35      0.00
    4   10   64     -4.20      0.00
    6   10   64     -0.56      0.00
    1   11   64      7.32      0.00
    3   11   64     -3.00      0.00
    0    1   65     11.19      0.00
    1    2   65     -3.44      0.00
    0    3   65    -11.76      0.00
    2    3   65     -4.74      0.00
    1    4   65      3.22      0.00
    3    4   65     -0.18      0.00
    0    5   65     -1.09      0.00
    2    5   65     -7.11      0.00
    4    5   65      0.22      0.00
    1    6   65     -3.78      0.00
    3    6   65     -0.88      0.00
    5    6   65     -3.26      0.00
    0    7   65      3.67      0.00
    2    7   65     15.62      0.00
    4    7   65     -3.78      0.00
    6    7   65      9.07      0.00
    1    8   65     -0.63      0.00
    3    8   65    -17.10      0.00
    5    8   65     -4.55      0.00
    7    8   65     -1.92      0.00
    0    9   65     10.01      0.00
    2    9   65     -0.83      0.00
    4    9   65     16.66      0.00
    6    9   65      9.67      0.00
    1   10   65      2.35      0.00
    3   10   65     -8.55      0.00
    5   10   65     -8.95      0.00
    0   11   65     -1.35      0.00
    2   11   65      9.94      0.00
    1    1   66     -4.19      0.00
    0    2   66     18.69      0.00
    1    3   66     -5.99      0.00
    3    3   66     -7.96      0.00
    0    4   66     39.75      0.00
    2    4   66     27.75      0.00
    1    5   66    -16.18      0.00
    3    5   66      3.30      0.00
    5    5   66      8.94      0.00
    0    6   66     -9.08      0.00
    2    6   66      2.11      0.00
    4    6   66     23.90      0.00
    1    7   66     -4.28      0.00
    3    7   66     -2.95      0.00
    5    7   66    -12.34      0.00
    7    7   66     -4.12      0.00
    0    8   66      4.66      0.00
    2    8   66     -6.23      0.00
    4    8   66     -8.19      0.00
    6    8   66      8.00      0.00
    1    9   66     -0.66      0.00
    3    9   66     -1.34      0.00
    5    9   66      8.75      0.00
    0   10   66     -8.80      0.00
    2   10   66      9.36      0.00
    0    1   67    -16.88      0.00
    1    2   67      1.36      0.00
    0    3   67    -14.15      0.00
    2    3   67    -18.46      0.00
    1    4   67      6.88      0.00
    3    4   67    -14.16      0.00
    0    5   67    -13.98      0.00
    2    5   67     -0.04      0.00
    4    5   67     -4.45      0.00
    1    6   67      0.91      0.00
    3    6   67      2.41      0.00
    5    6   67    -11.22      0.00
    0    7   67     16.11      0.00
    2    7   67     -9.37      0.00
    4    7   67      2.78      0.00
    6    7   67     -0.26      0.00
    1    8   67     -4.79      0.00
    3    8   67      8.48      0.00
    5    8   67      2.12      0.00
    0    9   67      2.70      0.00
    2    9   67      0.02      0.00
    4    9   67      9.90      0.00
    0    0   68     -7.21      0.00
    0    2   68      3.10      0.00
    2    2   68    -11.55      0.00
    1    3   68     -1.98      0.00
    0    4   68     -8.14      0.00
    2    4   68     -4.85      0.00
    4    4   68      5.32      0.00
    1    5   68    -24.40      0.00
    3    5   68      5.08      0.00
    0    6   68     -4.76      0.00
    2    6   68      2.02      0.00
    4    6   68    -19.06      0.00
    6    6   68     -7.60      0.00
    1    7   68     18.98      0.00
    3    7   68    -12.39      0.00
    5    7   68     -4.62      0.00
    0    8   68      6.53      0.00
    2    8   68    -25.28      0.00
    4    8   68      1.83      0.00
    1    9   68      4.70      0.00
    0    1   69    -18.59      0.00
    1    2   69    -11.42      0.00
    0    3   69     20.79      0.00
    2    3   69     -1.56      0.00
    1    4   69     13.61      0.00
    3    4   69      1.36      0.00
    0    5   69    -26.92      0.00
    2    5   69     12.71      0.00
    4    5   69     20.09      0.00
    1    6   69     -1.51      0.00
    3    6   69      8.25      0.00
    5    6   69    -10.66      0.00
    0    7   69     12.66      0.00
    2    7   69     -0.92      0.00
    4    7   69     -1.62      0.00
    1    8   69     12.71      0.00
    1    1   70      4.08      0.00
    0    2   70     18.16      0.00
    1    3   70     -4.08      0.00
    3    3   70     -0.94      0.00
    0    4   70     -8.22      0.00
    2    4   70     14.29      0.00
    1    5   70      0.93      0.00
    3    5   70      3.33      0.00
    5    5   70     -5.92      0.00
    0    6   70     26.39      0.00
    2    6   70     -6.07      0.00
    4    6   70    -11.82      0.00
    1    7   70     -2.15      0.00
    0    1   71     -5.06      0.00
    1    2   71      6.99      0.00
    0    3   71      1.38      0.00
    2    3   71     -7.64      0.00
    1    4   71      2.95      0.00
    3    4   71      0.87      0.00
    0    5   71    -27.82      0.00
    2    5   71      4.06      0.00
    1    6   71      2.99      0.00
    0    0   72    -11.93      0.00
    0    2   72      5.80      0.00
    2    2   72     -6.66      0.00
    1    3   72      0.73      0.00
    0    4   72      2.31      0.00
    2    4   72      0.29      0.00
    0    1   73     11.67      0.00
    1    2   73      6.86      0.00
    0    3   73    -13.14      0.00
   13   20    1     27.89      0.00
   13   20    3      9.61      0.00
   13   20    5     11.97      0.00
    9   22    5     13.00      0.00
    6   23    5     10.36      0.00
   13   20    7     14.40      0.00
    9   22    7     -4.55      0.00
    6   23    7      6.14      0.00
   11   21    8      8.61      0.00
    9   22    9    -13.52      0.00
    6   23    9      8.13      0.00
   11   21   10      8.69      0.00
   14   19   11      1.04      0.00
    5   23   12      6.06      0.00
   14   19   13     -1.22      0.00
    8   22   14    -15.23      0.00
    5   23   14      8.46      0.00
   16   17   15     11.75      0.00
   15   18   15     -9.15      0.00
    4   23   15      0.03      0.00
   12   20   16    -12.72      0.00
    8   22   16      4.54      0.00
   16   17   17      0.58      0.00
   10   21   17    -25.03      0.00
    4   23   17     -2.44      0.00
    7    7   18    -26.60      0.00
    3   23   18      8.00      0.00
    7   22   19      0.95      0.00
    2   23   19     -4.73      0.00
   13   19   20      1.88      0.00
    1   23   20     -7.98      0.00
   11   20   21     -2.56      0.00
    0   23   21     21.17      0.00
   14   18   22      0.26      0.00
    9   21   22     -7.13      0.00
    6   22   22      8.47      0.00
   16   16   24      3.44      0.00
   15   17   24     -8.39      0.00
   12   19   25     -2.16      0.00
    8   21   25      5.77      0.00
    5   22   25      9.06      0.00
   10   20   26     -4.11      0.00
    4   22   26     -1.84      0.00
   13   18   27     -8.57      0.00
    3   22   27     -6.66      0.00
    7   21   28      7.81      0.00
    2   22   28      1.57      0.00
   15   16   29     12.49      0.00
   14   17   29      2.98      0.00
    9   20   29      4.65      0.00
    1   22   29      2.29      0.00
   11   19   30    -19.03      0.00
   12   18   32     10.88      0.00
    8   20   32    -10.14      0.00
    5   21   32      6.52      0.00
   10   19   33      1.61      0.00
    4   21   33      6.30      0.00
   15   15   34     15.59      0.00
   14   16   34     12.82      0.00
    3   21   34     -0.21      0.00
   11   18   35    -20.22      0.00
    0   21   35      9.03      0.00
    2   21   35      4.23      0.00
    0    0   36    -60.59      0.00
    6   20   36      2.38      0.00
   13   16   37      3.64      0.00
    8   19   37    -24.13      0.00
    5   20   37      5.21      0.00
   10   18   38     -5.33      0.00
    4   20   38    -10.03      0.00
    3   20   39     -7.30      0.00
    0    0   40    -35.26      0.00
   12   16   40      8.37      0.00
    0   20   40     15.09      0.00
    2   20   40      8.28      0.00
    6   19   41     -9.39      0.00
    8   18   42     10.97      0.00
    5   19   42     -1.18      0.00
   11   16   43    -14.01      0.00
    4   19   43    -16.90      0.00
    9   17   44      9.29      0.00
    3   19   44     -0.39      0.00
    0   19   45     26.02      0.00
   11   15   46    -19.84      0.00
    9   16   47     -2.04      0.00
    2   18   48      2.50      0.00
   11   14   49    -16.49      0.00
   10   15   49      3.39      0.00
    6   17   49     -9.64      0.00
    1   18   49     -2.20      0.00
    9   15   50     -8.88      0.00
    5   17   50     28.47      0.00
   12   12   52    -13.13      0.00
   11   13   52    -21.27      0.00
    6   16   52     -1.85      0.00
    1   17   52     -5.83      0.00
    9   14   53     -9.00      0.00
    5   16   53     -4.23      0.00
    0    8   54     -4.84      0.00
    1   16   55     -3.11      0.00
   10   12   56     10.33      0.00
    8   13   57     13.34      0.00
    2   15   57    -13.61      0.00
    7   13   58    -10.91      0.00
    6   13   59     15.54      0.00
    3   14   59     -0.25      0.00
    5   13   60     -6.49      0.00
    0   14   60     12.35      0.00
    9   10   61     12.23      0.00
    8   11   61      1.56      0.00
    4   13   61     -3.17      0.00
    7   11   62    -10.04      0.00
    1   13   62      3.79      0.00
    6   11   63      0.25      0.00
    3   12   63      2.64      0.00
    5   11   64    -14.79      0.00
    0   12   64      5.07      0.00
    4   10   66     -4.44      0.00
    1   10   67     -5.09      0.00
    3    9   68      7.63      0.00
    3    8   69     -1.74      0.00
    3    7   70     11.09      0.00
    4    5   71      0.20      0.00
    3    6   71     -8.67      0.00
    0    7   71     15.27      0.00
    4    4   72     -1.57      0.00
    1    5   72      4.45      0.00
    3    5   72      4.01      0.00
    2    3   73     11.54      0.00
    1    4   73      5.80      0.00
    0    0    0      0.00      0.00
# SQUEEZE RESULTS (Version =  30715)
# Note: Data are Listed for all Voids in the P1 Unit Cell
# i.e. Centre of Gravity, Solvent Accessible Volume,
# Recovered number of Electrons in the Void and
# Details about the Squeezed Material
loop_
  _platon_squeeze_void_nr
  _platon_squeeze_void_average_x
  _platon_squeeze_void_average_y
  _platon_squeeze_void_average_z
  _platon_squeeze_void_volume
  _platon_squeeze_void_count_electrons
  _platon_squeeze_void_content
   1 -0.073 -0.001 -0.001     15740      3186 ' '
_platon_squeeze_void_probe_radius                  1.20
_platon_squeeze_details
)
TITL wpp12     I 41/a m d   R = 0.10
CELL   19.5250   19.5250   60.3800     90.00     90.00     90.00
SPGR I41/amd
# Solvent Accessible Volume =   15881.0
# Electrons Found in S.A.V. =    3178.1
# Note: Atoms in Void as Cxxx and Qxxx all others
Q101 0.989 0.749 0.102 !       2.92 eA-3
Q102 0.818 0.258 0.242 !       2.43 eA-3
Q103 0.669 0.253 0.246 !       2.35 eA-3
Q104 0.695 0.255 0.246 !       2.15 eA-3
Q105 1.000 0.746 0.113 !       1.66 eA-3
C106 1.000 0.035 0.199 !       1.65 eA-3
Q107 0.500 0.189 0.042 !       1.35 eA-3
C108 0.840 0.747 0.059 !       1.30 eA-3
C109 1.000 0.501 0.211 !       1.24 eA-3
C110 0.702 0.768 0.124 !       1.24 eA-3
C111 0.267 0.751 0.141 !       1.23 eA-3
C112 0.659 0.748 0.125 !       1.21 eA-3
C113 0.359 0.758 0.105 !       1.20 eA-3
C114 0.500 0.518 0.110 !       1.19 eA-3
C115 0.284 0.248 0.148 !       1.16 eA-3
Q116 0.105 0.859 0.124 !       1.15 eA-3
C117 1.000 0.563 0.203 !       1.15 eA-3
Q118 0.610 0.517 0.030 !       1.14 eA-3
C119 0.785 0.754 0.027 !       1.14 eA-3
C120 0.025 0.061 0.109 !       1.10 eA-3
C121 0.500 0.442 0.189 !       1.10 eA-3
Q122 0.969 0.032 0.243 !       1.07 eA-3
C123 0.729 0.753 0.023 !       1.06 eA-3
C124 0.500 0.020 0.091 !       1.05 eA-3
C125 0.758 0.014 0.001 !       1.04 eA-3
Q126 0.306 0.251 0.000 !       1.03 eA-3
Q127 0.694 0.248 0.016 !       1.02 eA-3
C128 0.804 0.746 0.191 !       1.00 eA-3
C129 0.500 0.994 0.248 !       1.00 eA-3
C130 0.670 0.515 0.242 !       0.99 eA-3
C131 0.786 0.745 0.207 !       0.98 eA-3
C132 0.500 0.428 0.091 !       0.98 eA-3
C133 0.331 0.251 0.145 !       0.98 eA-3
C134 0.428 0.748 0.086 !       0.98 eA-3
Q135 0.500 0.791 0.012 !       0.98 eA-3
C136 0.204 0.283 0.142 !       0.97 eA-3
Q137 0.297 0.246 0.035 !       0.96 eA-3
C138 0.782 0.250 0.121 !       0.96 eA-3
C139 0.030 0.276 0.170 !       0.96 eA-3
C140 0.500 0.501 0.216 !       0.96 eA-3
C141 1.000 0.244 0.074 !       0.96 eA-3
C142 0.477 0.467 0.203 !       0.95 eA-3
C143 0.500 0.378 0.093 !       0.95 eA-3
C144 0.960 0.995 0.229 !       0.95 eA-3
C145 0.139 0.515 0.042 !       0.94 eA-3
C146 0.500 0.751 0.070 !       0.94 eA-3
C147 0.698 0.769 0.112 !       0.94 eA-3
C148 0.975 0.250 0.043 !       0.93 eA-3
Q149 1.000 0.743 0.074 !       0.93 eA-3
C150 0.500 0.279 0.171 !       0.92 eA-3
C151 0.058 0.420 0.118 !       0.91 eA-3
Q152 0.557 0.282 0.001 !       0.91 eA-3
Q153 0.198 0.576 0.105 !       0.91 eA-3
C154 0.326 0.670 0.145 !       0.90 eA-3
C155 0.500 0.966 0.095 !       0.89 eA-3
C156 0.500 0.706 0.070 !       0.89 eA-3
C157 0.458 0.438 0.112 !       0.88 eA-3
C158 0.500 0.896 0.114 !       0.87 eA-3
Q159 0.801 1.001 0.145 !       0.87 eA-3
C160 0.308 0.754 0.035 !       0.87 eA-3
C161 1.000 0.360 0.110 !       0.86 eA-3
C162 1.000 0.193 0.180 !       0.86 eA-3
C163 0.500 0.099 0.157 !       0.86 eA-3
C164 0.264 0.216 0.136 !       0.86 eA-3
Q165 0.659 0.029 0.071 !       0.85 eA-3
C166 0.639 0.753 0.227 !       0.84 eA-3
Q167 0.675 0.754 0.016 !       0.84 eA-3
Q168 0.703 0.158 0.224 !       0.83 eA-3
C169 0.528 0.580 0.115 !       0.83 eA-3
Q170 0.468 0.217 0.231 !       0.82 eA-3
C171 0.792 0.827 0.024 !       0.82 eA-3
C172 0.500 0.091 0.177 !       0.82 eA-3
C173 0.766 0.750 0.016 !       0.81 eA-3
C174 0.115 0.253 0.152 !       0.81 eA-3
C175 0.185 0.844 0.211 !       0.80 eA-3
C176 0.444 0.250 0.063 !       0.80 eA-3
C177 0.146 0.500 0.000 !       0.80 eA-3
C178 0.526 0.355 0.176 !       0.79 eA-3
Q179 0.941 0.797 0.103 !       0.79 eA-3
C180 0.877 0.250 0.031 !       0.79 eA-3
C181 0.755 0.919 0.233 !       0.78 eA-3
C182 0.500 0.392 0.141 !       0.78 eA-3
C183 0.500 0.830 0.085 !       0.78 eA-3
C184 0.687 0.753 0.098 !       0.78 eA-3
C185 0.237 0.843 0.214 !       0.78 eA-3
C186 0.877 0.483 0.015 !       0.77 eA-3
C187 0.380 0.731 0.125 !       0.77 eA-3
C188 0.174 0.266 0.107 !       0.77 eA-3
C189 0.844 0.327 0.112 !       0.77 eA-3
C190 0.195 0.373 0.017 !       0.77 eA-3
C191 0.739 0.239 0.023 !       0.77 eA-3
C192 0.701 0.582 0.229 !       0.76 eA-3
C193 0.570 0.214 0.085 !       0.76 eA-3
C194 0.235 0.549 0.242 !       0.76 eA-3
C195 0.925 0.207 0.152 !       0.76 eA-3
C196 0.478 0.139 0.160 !       0.76 eA-3
C197 0.257 0.913 0.218 !       0.76 eA-3
C198 0.566 0.481 0.128 !       0.75 eA-3
C199 0.033 0.832 0.034 !       0.75 eA-3
)
;
_shelx_fab_checksum              4059
loop_
_space_group_symop_operation_xyz
'x, y, z'
'-x, -y+1/2, z'
'x, -y, -z'
'-x, y+1/2, -z'
'-y+1/4, -x+1/4, -z+3/4'
'y+1/4, x+3/4, -z+1/4'
'y+1/4, -x+1/4, z+3/4'
'-y+1/4, x+3/4, z+1/4'
'x+1/2, y+1/2, z+1/2'
'-x+1/2, -y+1, z+1/2'
'x+1/2, -y+1/2, -z+1/2'
'-x+1/2, y+1, -z+1/2'
'-y+3/4, -x+3/4, -z+5/4'
'y+3/4, x+5/4, -z+3/4'
'y+3/4, -x+3/4, z+5/4'
'-y+3/4, x+5/4, z+3/4'
'-x, -y, -z'
'x, y-1/2, -z'
'-x, y, z'
'x, -y-1/2, z'
'y-1/4, x-1/4, z-3/4'
'-y-1/4, -x-3/4, z-1/4'
'-y-1/4, x-1/4, -z-3/4'
'y-1/4, -x-3/4, -z-1/4'
'-x+1/2, -y+1/2, -z+1/2'
'x+1/2, y, -z+1/2'
'-x+1/2, y+1/2, z+1/2'
'x+1/2, -y, z+1/2'
'y+1/4, x+1/4, z-1/4'
'-y+1/4, -x-1/4, z+1/4'
'-y+1/4, x+1/4, -z-1/4'
'y+1/4, -x-1/4, -z+1/4'
loop_
_atom_site_label
_atom_site_type_symbol
_atom_site_fract_x
_atom_site_fract_y
_atom_site_fract_z
_atom_site_U_iso_or_equiv
_atom_site_adp_type
_atom_site_occupancy
_atom_site_site_symmetry_order
_atom_site_calc_flag
_atom_site_refinement_flags_posn
_atom_site_refinement_flags_adp
_atom_site_refinement_flags_occupancy
_atom_site_disorder_assembly
_atom_site_disorder_group
Cu1 Cu 0.68294(3) 0.7500 0.75272(2) 0.0351(2) Uani 1 2 d S T P A .
Cu2 Cu 0.5000 0.2500 0.60332(2) 0.0355(3) Uani 1 4 d S T P . .
O1 O 0.80009(14) 0.68092(14) 0.72455(4) 0.0534(8) Uani 1 1 d . . . . .
O2 O 0.68755(14) 0.68005(15) 0.72942(4) 0.0553(8) Uani 1 1 d . . . . .
O3 O 0.57053(14) 0.32015(14) 0.60653(4) 0.0517(7) Uani 1 1 d . . . . .
O4 O 0.5000 0.2500 0.56713(10) 0.106(3) Uani 1 4 d S T P . .
H4A H 0.4672 0.2172 0.5618 0.160 Uiso 0.25 1 d R U P . .
H4B H 0.4880 0.2948 0.5618 0.160 Uiso 0.25 1 d R U P . .
N1 N 0.5714(2) 0.7500 0.75472(8) 0.0477(12) Uani 1 2 d DS T P . .
C1 C 0.7413(2) 0.6616(2) 0.71968(7) 0.0469(11) Uani 1 1 d . . . . .
C2 C 0.7330(2) 0.6142(2) 0.70048(7) 0.0540(12) Uani 1 1 d . . . . .
C3 C 0.6686(2) 0.5916(2) 0.69431(7) 0.0670(14) Uani 1 1 d . . . . .
H3A H 0.6304 0.6051 0.7024 0.080 Uiso 1 1 calc R U . . .
C4 C 0.7882(2) 0.5937(3) 0.68822(8) 0.0702(14) Uani 1 1 d . . . . .
H4 H 0.8320 0.6082 0.6921 0.084 Uiso 1 1 calc R U . . .
C5 C 0.6603(3) 0.5492(3) 0.67617(8) 0.0764(16) Uani 1 1 d . . . . .
H5 H 0.6166 0.5343 0.6723 0.092 Uiso 1 1 calc R U . . .
C6 C 0.7790(3) 0.5514(3) 0.67008(8) 0.0778(17) Uani 1 1 d . . . . .
H6 H 0.8172 0.5380 0.6619 0.093 Uiso 1 1 calc R U . . .
C7 C 0.7155(2) 0.5285(2) 0.66370(7) 0.0592(13) Uani 1 1 d . . . . .
C8 C 0.7057(2) 0.4858(2) 0.64407(7) 0.0597(13) Uani 1 1 d . . . . .
C9 C 0.7454(2) 0.4954(2) 0.6250 0.070(2) Uani 1 2 d S T P . .
H9 H 0.7791 0.5291 0.6250 0.083 Uiso 1 2 calc R U P . .
C10 C 0.6562(2) 0.4335(2) 0.64376(7) 0.0576(12) Uani 1 1 d . . . . .
H10 H 0.6305 0.4246 0.6564 0.069 Uiso 1 1 calc R U . . .
C11 C 0.6454(2) 0.3954(2) 0.6250 0.0504(15) Uani 1 2 d S T P . .
C12 C 0.5908(2) 0.3408(2) 0.6250 0.0454(14) Uani 1 2 d S T P . .
C13A C 0.5354(5) 0.7500 0.73558(18) 0.057(4) Uani 0.5 2 d S T P A 1
H13A H 0.5587 0.7500 0.7221 0.069 Uiso 0.5 2 calc R U P A 1
C13B C 0.5358(6) 0.7500 0.77390(19) 0.051(3) Uani 0.5 2 d S TU P A 1
H13B H 0.5589 0.7500 0.7874 0.061 Uiso 0.25 2 d R U P A 4
N2B N 0.5668(15) 0.7500 0.7942(5) 0.126(10) Uani 0.25 2 d S TU P B 5
H2B1 H 0.6108 0.7500 0.7942 0.151 Uiso 0.25 2 d R U P B 5
H2B2 H 0.5446 0.7500 0.8065 0.151 Uiso 0.25 2 d R U P B 5
C13C C 0.5397(6) 0.6967(7) 0.7567(2) 0.127(5) Uani 0.5 1 d D U P A 2
H13C H 0.5633 0.6556 0.7582 0.152 Uiso 0.375 1 calc R U P A 2
N2C N 0.559(2) 0.6254(11) 0.7586(6) 0.135(7) Uani 0.125 1 d D U P C 3
H2C1 H 0.6068 0.6203 0.7572 0.163 Uiso 0.125 1 d R U P C 3
H2C2 H 0.5338 0.5884 0.7590 0.163 Uiso 0.125 1 d R U P C 3
loop_
_atom_site_aniso_label
_atom_site_aniso_U_11
_atom_site_aniso_U_22
_atom_site_aniso_U_33
_atom_site_aniso_U_23
_atom_site_aniso_U_13
_atom_site_aniso_U_12
Cu1 0.0263(4) 0.0455(4) 0.0336(4) 0.000 -0.0015(3) 0.000
Cu2 0.0398(6) 0.0386(6) 0.0280(5) 0.000 0.000 0.000
O1 0.0398(18) 0.068(2) 0.0523(18) -0.0161(15) 0.0037(14) -0.0067(15)
O2 0.0454(18) 0.067(2) 0.0535(18) -0.0185(15) 0.0010(15) -0.0062(16)
O3 0.0617(19) 0.0558(18) 0.0376(16) -0.0048(14) 0.0054(14) -0.0152(15)
O4 0.159(8) 0.116(7) 0.044(4) 0.000 0.000 0.000
N1 0.036(3) 0.049(3) 0.058(3) 0.000 0.003(3) 0.000
C1 0.049(3) 0.051(3) 0.040(2) -0.002(2) 0.006(2) 0.000(2)
C2 0.052(3) 0.066(3) 0.044(3) -0.021(2) 0.008(2) -0.012(2)
C3 0.056(3) 0.088(4) 0.057(3) -0.034(3) 0.018(2) -0.015(3)
C4 0.049(3) 0.092(4) 0.070(3) -0.033(3) 0.016(3) -0.019(3)
C5 0.059(3) 0.102(4) 0.068(3) -0.039(3) 0.011(3) -0.034(3)
C6 0.058(3) 0.100(4) 0.076(4) -0.049(3) 0.029(3) -0.018(3)
C7 0.056(3) 0.070(3) 0.051(3) -0.027(2) 0.018(2) -0.029(2)
C8 0.060(3) 0.070(3) 0.050(3) -0.019(2) 0.013(2) -0.023(2)
C9 0.074(3) 0.074(3) 0.061(4) -0.019(3) 0.019(3) -0.038(4)
C10 0.062(3) 0.063(3) 0.047(3) -0.013(2) 0.019(2) -0.019(3)
C11 0.052(2) 0.052(2) 0.047(4) -0.012(2) 0.012(2) -0.019(3)
C12 0.045(2) 0.045(2) 0.046(4) -0.011(2) 0.011(2) -0.001(3)
C13A 0.017(5) 0.125(12) 0.031(6) 0.000 0.002(5) 0.000
C13B 0.041(6) 0.075(7) 0.037(6) 0.000 0.007(5) 0.000
N2B 0.105(16) 0.183(19) 0.090(16) 0.000 -0.017(14) 0.000
C13C 0.086(7) 0.116(8) 0.178(9) 0.021(7) 0.002(6) 0.031(6)
N2C 0.092(10) 0.133(11) 0.182(12) 0.018(10) 0.003(10) 0.034(10)
loop_
_atom_type_symbol
_atom_type_description
_atom_type_scat_dispersion_real
_atom_type_scat_dispersion_imag
_atom_type_scat_source
C C 0.0033 0.0016 'International Tables Vol C Tables 4.2.6.8 and 6.1.1.4'
H H 0.0000 0.0000 'International Tables Vol C Tables 4.2.6.8 and 6.1.1.4'
N N 0.0061 0.0033 'International Tables Vol C Tables 4.2.6.8 and 6.1.1.4'
O O 0.0106 0.0060 'International Tables Vol C Tables 4.2.6.8 and 6.1.1.4'
Cu Cu 0.3201 1.2651 'International Tables Vol C Tables 4.2.6.8 and 6.1.1.4'
loop_
_geom_angle_atom_site_label_1
_geom_angle_atom_site_label_2
_geom_angle_atom_site_label_3
_geom_angle
_geom_angle_site_symmetry_1
_geom_angle_site_symmetry_3
O1 Cu1 O1 87.39(17) 25_666 12_646
O1 Cu1 O2 90.87(12) 25_666 20_575
O1 Cu1 O2 167.60(12) 12_646 20_575
O1 Cu1 O2 167.60(12) 25_666 .
O1 Cu1 O2 90.87(12) 12_646 .
O2 Cu1 O2 88.20(17) 20_575 .
O1 Cu1 N1 97.49(12) 25_666 .
O1 Cu1 N1 97.49(12) 12_646 .
O2 Cu1 N1 94.91(12) 20_575 .
O2 Cu1 N1 94.91(12) . .
O1 Cu1 Cu1 85.35(9) 25_666 25_666
O1 Cu1 Cu1 85.35(9) 12_646 25_666
O2 Cu1 Cu1 82.27(9) 20_575 25_666
O2 Cu1 Cu1 82.27(9) . 25_666
N1 Cu1 Cu1 176.04(13) . 25_666
O3 Cu2 O3 89.74(17) 2_655 20_565
O3 Cu2 O3 89.13(17) 2_655 19_655
O3 Cu2 O3 168.59(15) 20_565 19_655
O3 Cu2 O3 168.59(15) 2_655 .
O3 Cu2 O3 89.13(17) 20_565 .
O3 Cu2 O3 89.74(17) 19_655 .
O3 Cu2 O4 95.71(8) 2_655 .
O3 Cu2 O4 95.71(8) 20_565 .
O3 Cu2 O4 95.71(8) 19_655 .
O3 Cu2 O4 95.70(8) . .
O3 Cu2 Cu2 84.29(8) 2_655 13
O3 Cu2 Cu2 84.29(8) 20_565 13
O3 Cu2 Cu2 84.29(8) 19_655 13
O3 Cu2 Cu2 84.30(8) . 13
O4 Cu2 Cu2 180.0 . 13
C1 O1 Cu1 122.2(3) . 25_666
C1 O2 Cu1 125.0(3) . .
C12 O3 Cu2 122.6(3) . .
C13C N1 C13C 117.6(13) . 20_575
C13B N1 C13A 117.7(8) . .
C13C N1 Cu1 120.9(6) . .
C13C N1 Cu1 120.9(6) 20_575 .
C13B N1 Cu1 124.2(6) . .
C13A N1 Cu1 118.2(5) . .
O1 C1 O2 125.0(4) . .
O1 C1 C2 118.2(4) . .
O2 C1 C2 116.8(4) . .
C4 C2 C3 118.5(4) . .
C4 C2 C1 121.1(4) . .
C3 C2 C1 120.4(4) . .
C5 C3 C2 120.7(4) . .
C2 C4 C6 120.1(4) . .
C7 C5 C3 121.2(4) . .
C7 C6 C4 122.2(4) . .
C6 C7 C5 117.3(4) . .
C6 C7 C8 122.1(4) . .
C5 C7 C8 120.6(4) . .
C9 C8 C10 117.8(4) . .
C9 C8 C7 121.2(4) . .
C10 C8 C7 121.0(4) . .
C8 C9 C8 121.8(6) . 6_546
C11 C10 C8 120.7(4) . .
C10 C11 C10 121.1(5) 6_546 .
C10 C11 C12 119.5(3) 6_546 .
C10 C11 C12 119.5(3) . .
O3 C12 O3 126.3(5) 6_546 .
O3 C12 C11 116.9(3) 6_546 .
O3 C12 C11 116.9(3) . .
N1 C13A C13A 121.3(5) . 2_665
N1 C13B C13B 121.0(5) . 2_665
N1 C13C C13C 120.6(6) . 19_655
loop_
_geom_bond_atom_site_label_1
_geom_bond_atom_site_label_2
_geom_bond_distance
_geom_bond_site_symmetry_2
Cu1 O1 1.953(3) 25_666
Cu1 O1 1.953(3) 12_646
Cu1 O2 1.962(3) 20_575
Cu1 O2 1.963(3) .
Cu1 N1 2.181(5) .
Cu1 Cu1 2.6390(14) 25_666
Cu2 O3 1.952(3) 2_655
Cu2 O3 1.952(3) 20_565
Cu2 O3 1.952(3) 19_655
Cu2 O3 1.952(3) .
Cu2 O4 2.185(6) .
Cu2 Cu2 2.6185(19) 13
O1 C1 1.243(5) .
O1 Cu1 1.953(3) 25_666
O2 C1 1.256(4) .
O3 C12 1.250(3) .
N1 C13C 1.218(14) .
N1 C13C 1.218(14) 20_575
N1 C13B 1.351(12) .
N1 C13A 1.353(11) .
C1 C2 1.492(5) .
C2 C4 1.368(6) .
C2 C3 1.384(6) .
C3 C5 1.383(6) .
C4 C6 1.384(6) .
C5 C7 1.376(6) .
C6 C7 1.373(6) .
C7 C8 1.461(5) .
C8 C9 1.401(5) .
C8 C10 1.407(6) .
C9 C8 1.401(5) 6_546
C10 C11 1.371(5) .
C11 C10 1.371(5) 6_546
C11 C12 1.508(7) .
C12 O3 1.250(3) 6_546
C13A C13A 1.38(2) 2_665
C13B C13B 1.40(2) 2_665
C13C C13C 1.55(2) 19_655
