#------------------------------------------------------------------------------
#$Date: 2017-06-14 05:35:29 +0300 (Wed, 14 Jun 2017) $
#$Revision: 197794 $
#$URL: file:///home/coder/svn-repositories/cod/cif/7/04/33/7043319.cif $
#------------------------------------------------------------------------------
#
# This file is available in the Crystallography Open Database (COD),
# http://www.crystallography.net/
#
# All data on this site have been placed in the public domain by the
# contributors.
#
data_7043319
loop_
_publ_author_name
'Liu, Zhi-Qiang'
'Zhao, Yue'
'Wang, Peng'
'Kang, Yan-Shang'
'Azam, Mohammad'
'Al-Resayes, Saud I'
'Liu, Xaio-Hui'
'Lu, Qingyi'
'Sun, Wei-Yin'
_publ_section_title
;
 Fluorescent sensing and selective adsorption properties of metal-organic
 frameworks with mixed tricarboxylate and 1H-imidazol-4-yl-containing
 ligands
;
_journal_name_full               'Dalton Trans.'
_journal_paper_doi               10.1039/C7DT01759F
_journal_year                    2017
_chemical_formula_sum            'C66 H48 Co4 N4 O17'
_chemical_formula_weight         1404.80
_space_group_crystal_system      triclinic
_space_group_IT_number           2
_space_group_name_Hall           '-P 1'
_space_group_name_H-M_alt        'P -1'
_symmetry_space_group_name_Hall  '-P 1'
_symmetry_space_group_name_H-M   'P -1'
_atom_sites_solution_hydrogens   mixed
_audit_creation_method           SHELXL-2014/7
_audit_update_record
;
2017-06-12 deposited with the CCDC.
2017-06-13 downloaded from the CCDC.
;
_cell_angle_alpha                114.224(4)
_cell_angle_beta                 102.313(4)
_cell_angle_gamma                100.882(4)
_cell_formula_units_Z            2
_cell_length_a                   15.082(3)
_cell_length_b                   16.887(3)
_cell_length_c                   17.338(3)
_cell_measurement_reflns_used    9968
_cell_measurement_temperature    293(2)
_cell_measurement_theta_max      27.7030
_cell_measurement_theta_min      2.2922
_cell_volume                     3740.4(12)
_computing_cell_refinement       'Bruker SMART'
_computing_data_collection       'Bruker SMART'
_computing_data_reduction        'Bruker SAINT'
_computing_molecular_graphics    'Bruker SHELXTL'
_computing_publication_material  'Bruker SHELXTL'
_computing_structure_refinement  'SHELXL-2014/7 (Sheldrick, 2014)'
_computing_structure_solution    'SHELXS-2014/7 (Sheldrick, 2014)'
_diffrn_ambient_temperature      293(2)
_diffrn_measured_fraction_theta_full 0.971
_diffrn_measured_fraction_theta_max 0.971
_diffrn_measurement_device_type  'CCD area detector'
_diffrn_radiation_type           MoK\a
_diffrn_radiation_wavelength     0.71073
_diffrn_reflns_av_R_equivalents  0.0470
_diffrn_reflns_av_unetI/netI     0.0726
_diffrn_reflns_Laue_measured_fraction_full 0.971
_diffrn_reflns_Laue_measured_fraction_max 0.971
_diffrn_reflns_limit_h_max       17
_diffrn_reflns_limit_h_min       -17
_diffrn_reflns_limit_k_max       20
_diffrn_reflns_limit_k_min       -15
_diffrn_reflns_limit_l_max       19
_diffrn_reflns_limit_l_min       -20
_diffrn_reflns_number            22686
_diffrn_reflns_point_group_measured_fraction_full 0.971
_diffrn_reflns_point_group_measured_fraction_max 0.971
_diffrn_reflns_theta_full        25.009
_diffrn_reflns_theta_max         25.009
_diffrn_reflns_theta_min         2.292
_diffrn_source                   'fine-focus sealed tube'
_exptl_absorpt_coefficient_mu    0.934
_exptl_absorpt_correction_T_max  0.861
_exptl_absorpt_correction_T_min  0.784
_exptl_absorpt_correction_type   multi-scan
_exptl_absorpt_process_details   SADABS
_exptl_crystal_colour            pink
_exptl_crystal_density_diffrn    1.247
_exptl_crystal_description       block
_exptl_crystal_F_000             1432
_exptl_crystal_size_max          0.260
_exptl_crystal_size_mid          0.220
_exptl_crystal_size_min          0.160
_refine_diff_density_max         2.239
_refine_diff_density_min         -1.651
_refine_diff_density_rms         0.161
_refine_ls_extinction_method     none
_refine_ls_goodness_of_fit_ref   1.025
_refine_ls_hydrogen_treatment    constr
_refine_ls_matrix_type           full
_refine_ls_number_parameters     820
_refine_ls_number_reflns         12806
_refine_ls_number_restraints     0
_refine_ls_restrained_S_all      1.025
_refine_ls_R_factor_all          0.0907
_refine_ls_R_factor_gt           0.0818
_refine_ls_shift/su_max          0.001
_refine_ls_shift/su_mean         0.000
_refine_ls_structure_factor_coef Fsqd
_refine_ls_weighting_details
'w=1/[\s^2^(Fo^2^)+(0.1662P)^2^+13.0328P] where P=(Fo^2^+2Fc^2^)/3'
_refine_ls_weighting_scheme      calc
_refine_ls_wR_factor_gt          0.2424
_refine_ls_wR_factor_ref         0.2520
_reflns_Friedel_coverage         0.000
_reflns_number_gt                10608
_reflns_number_total             12806
_reflns_threshold_expression     'I > 2\s(I)'
_cod_data_source_file            c7dt01759f2.cif
_cod_data_source_block           1
_cod_original_cell_volume        3740.4(11)
_cod_database_code               7043319
_shelx_shelxl_version_number     2014/7
_shelx_space_group_comment
;
The symmetry employed for this shelxl refinement is uniquely defined
by the following loop, which should always be used as a source of
symmetry information in preference to the above space-group names.
They are only intended as comments.
;
_shelx_estimated_absorpt_t_min   0.793
_shelx_estimated_absorpt_t_max   0.865
_shelx_res_file
;

    1.res created by SHELXL-2014/7

TITL  SIR97 run in space group P -1
CELL   0.71073   15.0822  16.8866  17.3382 114.224 102.313 100.882
ZERR         2    0.0026   0.0028   0.0027   0.004   0.004   0.004
LATT 1
SFAC C  H  N  O  Co
UNIT 132 96 8 34 8
MERG 2
OMIT  -3.00  50.02
L.S. 10
ACTA
BOND   $H
FMAP 2
abin
PLAN 20
HTAB C65 O12_$1
HTAB C65 O12_$1
EQIV $1 -x+2, -y-1, -z+2
CONF
size 0.26 0.22 0.16
htab
HTAB C65 O12_$1
TEMP     20.0
WGHT    0.166200   13.032800
FVAR       1.43263
CO1   5    0.850161    0.161705    0.811440    11.00000    0.02580    0.01665 =
         0.01801    0.00838    0.00993    0.00499
CO2   5    1.078189    0.111291    0.889582    11.00000    0.02510    0.01548 =
         0.01516    0.00687    0.00770    0.00545
CO3   5    1.268454    0.250225    0.882134    11.00000    0.02534    0.02402 =
         0.01893    0.01096    0.01035    0.00708
CO4   5    1.032745    0.155190    0.734429    11.00000    0.02814    0.01613 =
         0.01819    0.00953    0.01122    0.00889
N1    3    1.177884    0.052807    0.929645    11.00000    0.03088    0.02344 =
         0.01951    0.01084    0.00686    0.00842
N2    3    1.273505    0.006975    1.003776    11.00000    0.04729    0.04653 =
         0.02345    0.02377    0.01559    0.02617
AFIX  43
H2A   2    1.302773   -0.001161    1.046917    11.00000   -1.20000
AFIX   0
N3    3    1.511863   -0.144437    1.074993    11.00000    0.05202    0.06295 =
         0.04398    0.04029    0.03177    0.03704
AFIX  43
H3    2    1.472189   -0.117344    1.093987    11.00000   -1.20000
AFIX   0
N4    3    1.622784   -0.210693    1.073473    11.00000    0.02899    0.03534 =
         0.02364    0.01596    0.01083    0.01395

O1    4    0.930041    0.323168    0.962651    11.00000    0.18861    0.06435 =
         0.07550    0.04265    0.09656    0.04688
O2    4    0.814807    0.206097    0.923526    11.00000    0.06041    0.06753 =
         0.02627    0.00836    0.02301    0.01020
O3    4    0.980466    1.008788    1.662429    11.00000    0.03075    0.01604 =
         0.02295    0.00895    0.00791    0.00916
O4    4    1.004380    0.985283    1.782982    11.00000    0.03879    0.01632 =
         0.01724    0.00832    0.00838    0.00741
O5    4    0.904096    0.154723    1.663659    11.00000    0.03848    0.02460 =
         0.02731    0.01469    0.00648    0.01478
O6    4    0.823142    0.231677    1.743369    11.00000    0.03767    0.03123 =
         0.03078    0.02246    0.01784    0.01455
O7    4    0.760138    0.038580    0.727777    11.00000    0.07817    0.03317 =
         0.02685    0.00448    0.02322    0.00470
O8    4    0.808205    0.006438    0.838035    11.00000    0.04820    0.04627 =
         0.05592    0.01830   -0.00673    0.00077
O9    4    0.257063   -0.671312   -0.001949    11.00000    0.04472    0.02417 =
         0.01641    0.00578    0.01411    0.00741
O10   4    0.140310   -0.766700    0.007335    11.00000    0.03746    0.02419 =
         0.01946    0.00462    0.00752    0.00227
O11   4    0.288724   -0.666523    0.829933    11.00000    0.04308    0.04466 =
         0.03813    0.03315    0.02129    0.01305
O12   4    0.325400   -0.782727    0.738127    11.00000    0.06755    0.04105 =
         0.03969    0.02882    0.01735    0.00903
O13   4    0.988360    0.175837    0.844766    11.00000    0.02514    0.01640 =
         0.01464    0.00629    0.00746    0.00641
AFIX  13
H13A  2    1.019104    0.241054    0.886302    11.00000   -1.20000
AFIX   0
O15   4    1.088113    0.302160    0.786188    11.00000    0.04014    0.02355 =
         0.04813    0.01332    0.01900    0.01009
AFIX   3
H15A  2    1.076673    0.329210    0.834708    11.00000   -1.50000
H15B  2    1.148023    0.317510    0.796008    11.00000   -1.50000

AFIX   0
O16   4    1.153384    0.146200    0.809282    11.00000    0.02745    0.01823 =
         0.01941    0.00966    0.01171    0.01040
AFIX  13
H16A  2    1.170064    0.093395    0.771733    11.00000   -1.20000
AFIX   0
O17   4    0.984327    0.077867    0.955830    11.00000    0.03200    0.03625 =
         0.02972    0.01715    0.00726    0.00059
AFIX   3
H17A  2    1.015477    0.071137    0.998520    11.00000   -1.50000

H17C  2    0.939988    0.028427    0.918840    11.00000   -1.50000
AFIX   0
C1    1    0.871944    0.280011    0.981731    11.00000    0.05193    0.05331 =
         0.02839    0.01265    0.02210    0.01904
C2    1    0.868311    0.317037    1.075421    11.00000    0.04889    0.03655 =
         0.02023    0.01081    0.02053    0.01679
C3    1    0.933485    0.400260    1.141469    11.00000    0.07085    0.02791 =
         0.03539    0.00959    0.03470    0.00246
AFIX  43
H3A   2    0.979011    0.432273    1.127297    11.00000   -1.20000
AFIX   0
C4    1    0.931047    0.435820    1.228283    11.00000    0.05531    0.02355 =
         0.03426    0.00630    0.02301    0.00247
AFIX  43
H4    2    0.975801    0.491157    1.271893    11.00000   -1.20000
AFIX   0
C5    1    0.863127    0.390556    1.251626    11.00000    0.03696    0.01708 =
         0.01873    0.00901    0.01112    0.00801
C6    1    0.798695    0.308532    1.184903    11.00000    0.05761    0.03126 =
         0.03128    0.00089    0.02645   -0.01081
AFIX  43
H6    2    0.753089    0.275932    1.198521    11.00000   -1.20000
AFIX   0
C7    1    0.800616    0.273663    1.097708    11.00000    0.06386    0.04088 =
         0.02407   -0.00147    0.01398   -0.01846
AFIX  43
H7    2    0.754553    0.219424    1.053582    11.00000   -1.20000
AFIX   0
C8    1    0.863236    0.430242    1.346463    11.00000    0.03196    0.01451 =
         0.01478    0.00316    0.00720    0.00754
C9    1    0.885423    0.525364    1.397213    11.00000    0.03078    0.01943 =
         0.02566    0.01295    0.01435    0.00947
AFIX  43
H9    2    0.896010    0.562531    1.370547    11.00000   -1.20000
AFIX   0
C10   1    0.891737    0.564723    1.487708    11.00000    0.02913    0.01408 =
         0.02018    0.00674    0.00882    0.01047
C11   1    0.878516    0.507373    1.526318    11.00000    0.03339    0.01918 =
         0.02081    0.01097    0.01448    0.01005
AFIX  43
H11   2    0.886116    0.533198    1.587049    11.00000   -1.20000
AFIX   0
C12   1    0.854226    0.412366    1.477078    11.00000    0.02728    0.01938 =
         0.02666    0.01442    0.01324    0.01019
C13   1    0.844986    0.374496    1.386295    11.00000    0.03348    0.01253 =
         0.02411    0.00682    0.00985    0.00642
AFIX  43
H13   2    0.826449    0.311367    1.351902    11.00000   -1.20000
AFIX   0
C14   1    0.913334    0.665123    1.540709    11.00000    0.02377    0.01528 =
         0.01878    0.00699    0.00904    0.00552
C15   1    0.882311    0.717338    1.502315    11.00000    0.03116    0.01803 =
         0.01258    0.00554    0.00860    0.00616
AFIX  43
H15D  2    0.846993    0.688648    1.441858    11.00000   -1.20000
AFIX   0
C16   1    0.902903    0.811360    1.552252    11.00000    0.03094    0.01727 =
         0.02100    0.01064    0.00890    0.00845
AFIX  43
H16   2    0.880609    0.844534    1.525266    11.00000   -1.20000
AFIX   0
C17   1    0.956688    0.855655    1.642303    11.00000    0.02772    0.01617 =
         0.01755    0.00558    0.01065    0.00886
C18   1    0.989137    0.804349    1.681078    11.00000    0.03355    0.01982 =
         0.01484    0.00576    0.00634    0.01162
AFIX  43
H18   2    1.026430    0.833553    1.741015    11.00000   -1.20000
AFIX   0
C19   1    0.966802    0.710753    1.631913    11.00000    0.03590    0.01977 =
         0.01826    0.00990    0.00990    0.01310
AFIX  43
H19   2    0.987487    0.677605    1.659656    11.00000   -1.20000
AFIX   0
C20   1    0.981770    0.957377    1.698828    11.00000    0.02568    0.01550 =
         0.01867    0.00607    0.01140    0.00762
C21   1    0.846507    0.355571    1.523982    11.00000    0.02781    0.01696 =
         0.02581    0.01232    0.00902    0.00731
C22   1    0.819688    0.384961    1.601436    11.00000    0.04156    0.02394 =
         0.03669    0.01880    0.02319    0.02116
AFIX  43
H22   2    0.800409    0.437011    1.619932    11.00000   -1.20000
AFIX   0
C23   1    0.821381    0.338037    1.650739    11.00000    0.04276    0.02862 =
         0.02344    0.01464    0.02175    0.02027
AFIX  43
H23   2    0.804214    0.359278    1.702277    11.00000   -1.20000
AFIX   0
C24   1    0.848779    0.258785    1.623500    11.00000    0.02693    0.01832 =
         0.02553    0.01386    0.01168    0.00864
C25   1    0.871821    0.227116    1.544940    11.00000    0.04258    0.01716 =
         0.03147    0.01346    0.01930    0.01480
AFIX  43
H25   2    0.889033    0.173922    1.525376    11.00000   -1.20000
AFIX   0
C26   1    0.869329    0.274108    1.495728    11.00000    0.03926    0.01559 =
         0.02741    0.00944    0.01723    0.01270
AFIX  43
H26   2    0.883194    0.250876    1.442522    11.00000   -1.20000
AFIX   0
C27   1    0.858882    0.213089    1.680827    11.00000    0.02557    0.01545 =
         0.02870    0.01030    0.00688    0.00444
C28   1    0.754775   -0.013982    0.761015    11.00000    0.04810    0.02680 =
         0.03769    0.00641    0.01940    0.01100
C29   1    0.677959   -0.105308    0.706062    11.00000    0.03070    0.03894 =
         0.04295    0.00086    0.02020   -0.00322
C30   1    0.598208   -0.122187    0.637324    11.00000    0.06666    0.02496 =
         0.04357    0.01463    0.03294    0.00727
AFIX  43
H30   2    0.592918   -0.076303    0.621779    11.00000   -1.20000
AFIX   0
C31   1    0.526065   -0.205537    0.591054    11.00000    0.04308    0.02625 =
         0.02335    0.00589    0.01428    0.00193
AFIX  43
H31   2    0.473307   -0.215408    0.545173    11.00000   -1.20000
AFIX   0
C32   1    0.534214   -0.274096    0.614666    11.00000    0.03028    0.01904 =
         0.01991    0.00095    0.01220    0.00284
C33   1    0.614955   -0.256525    0.684572    11.00000    0.02711    0.02680 =
         0.03500    0.00366    0.00575    0.00743
AFIX  43
H33   2    0.621167   -0.302054    0.700418    11.00000   -1.20000
AFIX   0
C34   1    0.685531   -0.172268    0.730296    11.00000    0.03447    0.02594 =
         0.04208    0.00304    0.01021    0.00905
AFIX  43
H34   2    0.737816   -0.161206    0.777230    11.00000   -1.20000
AFIX   0
C35   1    0.462128   -0.366663    0.566270    11.00000    0.02352    0.01847 =
         0.02081    0.00428    0.00708    0.00387
C36   1    0.419133   -0.408759    0.473588    11.00000    0.02751    0.01575 =
         0.01996    0.00917    0.00946    0.00382
AFIX  43
H36   2    0.431047   -0.376529    0.442473    11.00000   -1.20000
AFIX   0
C37   1    0.358540   -0.498598    0.427230    11.00000    0.02354    0.01489 =
         0.02054    0.00444    0.00743    0.00340
C38   1    0.340834   -0.545011    0.475615    11.00000    0.02102    0.01878 =
         0.02741    0.01354    0.00835    0.00177
AFIX  43
H38   2    0.300930   -0.605106    0.444996    11.00000   -1.20000
AFIX   0
C39   1    0.380537   -0.504766    0.567427    11.00000    0.02998    0.02189 =
         0.01938    0.00748    0.01121    0.00714
C40   1    0.441702   -0.414672    0.612846    11.00000    0.02899    0.02346 =
         0.01854    0.00772    0.00635    0.00737
AFIX  43
H40   2    0.469024   -0.386492    0.674694    11.00000   -1.20000
AFIX   0
C41   1    0.317872   -0.545418    0.327932    11.00000    0.02470    0.01510 =
         0.01326    0.00251    0.00671    0.00397
C42   1    0.368803   -0.524973    0.276514    11.00000    0.02971    0.01581 =
         0.02221    0.00903    0.00934    0.00106
AFIX  43
H42   2    0.427195   -0.478938    0.304758    11.00000   -1.20000
AFIX   0
C43   1    0.333534   -0.572334    0.183985    11.00000    0.03010    0.02345 =
         0.02105    0.01068    0.01090    0.00166
AFIX  43
H43   2    0.368625   -0.558226    0.150717    11.00000   -1.20000
AFIX   0
C44   1    0.245688   -0.641067    0.140406    11.00000    0.02210    0.02030 =
         0.02124    0.00732    0.00890    0.00723
C45   1    0.192858   -0.659920    0.191115    11.00000    0.02266    0.02240 =
         0.02272    0.00525    0.00861   -0.00061
AFIX  43
H45   2    0.133434   -0.704468    0.162796    11.00000   -1.20000
AFIX   0
C46   1    0.228553   -0.612607    0.283280    11.00000    0.02704    0.01592 =
         0.01931    0.00602    0.01099    0.00395
AFIX  43
H46   2    0.192519   -0.625638    0.316389    11.00000   -1.20000
AFIX   0
C47   1    0.210548   -0.697341    0.040945    11.00000    0.02458    0.02231 =
         0.02186    0.01033    0.00771    0.00828
C48   1    0.362597   -0.556973    0.616376    11.00000    0.02436    0.03052 =
         0.02482    0.01276    0.01031    0.00934
C49   1    0.361445   -0.647406    0.582224    11.00000    0.02763    0.02932 =
         0.02606    0.01273    0.01145    0.00553
AFIX  43
H49   2    0.370387   -0.676149    0.527150    11.00000   -1.20000
AFIX   0
C50   1    0.347068   -0.695429    0.629479    11.00000    0.03023    0.02908 =
         0.03325    0.01721    0.00906    0.00792
AFIX  43
H50   2    0.347091   -0.755807    0.606141    11.00000   -1.20000
AFIX   0
C51   1    0.332644   -0.653650    0.711510    11.00000    0.02430    0.03998 =
         0.03041    0.02507    0.00790    0.00669
C52   1    0.331477   -0.563253    0.745244    11.00000    0.03710    0.04116 =
         0.02525    0.01586    0.01527    0.01212
AFIX  43
H52   2    0.319341   -0.535554    0.798874    11.00000   -1.20000
AFIX   0
C53   1    0.348282   -0.514836    0.699241    11.00000    0.03995    0.03190 =
         0.02949    0.01743    0.01498    0.01375
AFIX  43
H53   2    0.350110   -0.453929    0.723391    11.00000   -1.20000
AFIX   0
C54   1    0.315005   -0.705351    0.762014    11.00000    0.02973    0.04492 =
         0.03686    0.02933    0.00868    0.00597
C55   1    1.209263    0.052172    1.006205    11.00000    0.04534    0.03358 =
         0.03092    0.02139    0.01947    0.02090
AFIX  43
H55   2    1.189500    0.079423    1.055346    11.00000   -1.20000
AFIX   0
C56   1    1.224785    0.004279    0.876042    11.00000    0.03445    0.03064 =
         0.02206    0.01612    0.01485    0.01490
AFIX  43
H56   2    1.215994   -0.007030    0.817291    11.00000   -1.20000
AFIX   0
C57   1    1.285043   -0.024575    0.920106    11.00000    0.03304    0.02558 =
         0.02267    0.01446    0.01521    0.00924
C58   1    1.350285   -0.076420    0.892433    11.00000    0.03124    0.02411 =
         0.03282    0.01713    0.01209    0.01026
C59   1    1.406643   -0.096516    0.951209    11.00000    0.03350    0.02868 =
         0.02795    0.01279    0.01415    0.01280
AFIX  43
H59   2    1.403959   -0.074785    1.009115    11.00000   -1.20000
AFIX   0
C60   1    1.467410   -0.148058    0.927283    11.00000    0.03169    0.03017 =
         0.03415    0.01658    0.01343    0.01060
C61   1    1.472579   -0.178964    0.841134    11.00000    0.06106    0.07132 =
         0.04899    0.03689    0.03942    0.04723
AFIX  43
H61   2    1.511569   -0.214667    0.823060    11.00000   -1.20000
AFIX   0
C62   1    1.419054   -0.156110    0.782235    11.00000    0.08674    0.08672 =
         0.04324    0.04370    0.04460    0.06328
AFIX  43
H62   2    1.424908   -0.174305    0.725638    11.00000   -1.20000
AFIX   0
C63   1    1.356612   -0.106253    0.806683    11.00000    0.06770    0.07044 =
         0.04106    0.03933    0.03333    0.04648
AFIX  43
H63   2    1.319607   -0.093118    0.766024    11.00000   -1.20000
AFIX   0
C64   1    1.523139   -0.168441    0.992618    11.00000    0.02874    0.03393 =
         0.03959    0.01693    0.01665    0.01077
C65   1    1.572044   -0.169880    1.120086    11.00000    0.04579    0.05652 =
         0.03726    0.03237    0.02672    0.02937
AFIX  43
H65   2    1.577804   -0.160045    1.178031    11.00000   -1.20000
AFIX   0
C66   1    1.590960   -0.211569    0.991974    11.00000    0.03360    0.02973 =
         0.02802    0.01512    0.01360    0.01290
AFIX  43
H66   2    1.612664   -0.237716    0.943936    11.00000   -1.20000
AFIX   0
O14   4    1.087781    0.153128    0.632298    11.00000    0.05828    0.03942 =
         0.03875    0.02243    0.02987    0.01967
AFIX   3
H14A  2    1.077331    0.098068    0.594108    11.00000   -1.50000

H14C  2    1.147561    0.180318    0.654628    11.00000   -1.50000
AFIX   0
HKLF      4

REM   SIR97 run in space group P -1
REM R1 =  0.0818 for   10608 Fo > 4sig(Fo)  and  0.0907 for all   12806 data
REM    820 parameters refined using      0 restraints

END

WGHT      0.1641      8.5273

REM Instructions for potential hydrogen bonds
HTAB O13 O1
EQIV $2 x+1, y+1, z
HTAB O15 O11_$2
HTAB O17 O8
HTAB C65 O12_$1
HTAB O14 O12_$2

REM Highest difference peak  2.239,  deepest hole -1.651,  1-sigma level  0.161
Q1    1   1.0784  0.1576  0.8684  11.00000  0.05    2.24
Q2    1   0.8170  0.0185  0.7485  11.00000  0.05    2.18
Q3    1   0.7821  0.1465  0.7873  11.00000  0.05    2.05
Q4    1   0.8430  0.2070  1.7830  11.00000  0.05    1.97
Q5    1   1.0387  0.2036  0.7151  11.00000  0.05    1.93
Q6    1   1.2701  0.2916  0.8633  11.00000  0.05    1.91
Q7    1   0.9629  0.1362  0.7086  11.00000  0.05    1.86
Q8    1   0.9217  0.1698  0.8302  11.00000  0.05    1.83
Q9    1   1.1423  0.1176  0.9130  11.00000  0.05    1.74
Q10   1   1.0124  0.0974  0.8720  11.00000  0.05    1.73
Q11   1   1.2010  0.2273  0.8614  11.00000  0.05    1.71
Q12   1   1.3333  0.2542  0.9086  11.00000  0.05    1.61
Q13   1   1.1031  0.1668  0.7619  11.00000  0.05    1.61
Q14   1   1.0847  0.0626  0.9168  11.00000  0.05    1.57
Q15   1   0.8354  0.1629  0.9386  11.00000  0.05    1.52
Q16   1   0.8587  0.1186  0.8378  11.00000  0.05    1.51
Q17   1   1.0799  0.1342  0.7747  11.00000  0.05    1.45
Q18   1   1.0318  0.1097  0.7622  11.00000  0.05    1.38
Q19   1   0.6954  0.0687  0.7525  11.00000  0.05    1.37
Q20   1   1.2724  0.1955  0.9127  11.00000  0.05    1.32
;
_shelx_res_checksum              6157
_shelx_fab_file
;
    2    0    0      6.30      0.00
    3    0    0      6.58      0.00
    4    0    0    -14.43      0.00
    5    0    0      2.31      0.00
    6    0    0      5.70      0.00
    7    0    0      0.49      0.00
    8    0    0      0.16      0.00
    9    0    0      0.30      0.00
   10    0    0     -0.32      0.00
   11    0    0     -0.05      0.00
   12    0    0     -0.74      0.00
   13    0    0      0.29      0.00
   14    0    0      1.36      0.00
   15    0    0     -0.52      0.00
   16    0    0      0.95      0.00
   17    0    0      0.11      0.00
   18    0    0      0.10      0.00
  -18    1    0     -0.50      0.00
  -17    1    0     -0.03      0.00
  -16    1    0      0.52      0.00
  -15    1    0      0.41      0.00
  -13    1    0      0.00      0.00
  -12    1    0     -0.48      0.00
  -11    1    0      0.34      0.00
  -10    1    0      0.98      0.00
   -9    1    0      0.42      0.00
   -8    1    0      2.23      0.00
   -6    1    0     -1.76      0.00
   -3    1    0    -11.07      0.00
   -2    1    0     28.87      0.00
    1    1    0     12.58      0.00
    3    1    0     10.48      0.00
    4    1    0     -2.50      0.00
    5    1    0     -1.60      0.00
    6    1    0      1.34      0.00
    7    1    0     -0.60      0.00
    8    1    0      1.02      0.00
    9    1    0     -0.42      0.00
   10    1    0      1.29      0.00
   11    1    0      0.29      0.00
   12    1    0      0.31      0.00
   13    1    0     -1.02      0.00
   14    1    0     -0.28      0.00
   15    1    0      0.33      0.00
   16    1    0     -0.27      0.00
   17    1    0      1.30      0.00
  -18    2    0      0.84      0.00
  -17    2    0     -0.90      0.00
  -16    2    0      0.21      0.00
  -15    2    0      1.21      0.00
  -14    2    0      0.11      0.00
  -13    2    0     -0.07      0.00
  -12    2    0      0.21      0.00
  -11    2    0      0.19      0.00
  -10    2    0      0.57      0.00
   -8    2    0      1.06      0.00
   -7    2    0      2.65      0.00
   -6    2    0     -0.47      0.00
   -5    2    0     -2.07      0.00
   -4    2    0      1.31      0.00
   -2    2    0     -4.30      0.00
   -1    2    0      8.03      0.00
    0    2    0     31.87      0.00
    1    2    0     -4.59      0.00
    3    2    0     -3.68      0.00
    4    2    0     -2.35      0.00
    5    2    0     -1.21      0.00
    6    2    0      2.41      0.00
    7    2    0      0.90      0.00
    8    2    0      0.04      0.00
    9    2    0      0.21      0.00
   10    2    0      0.08      0.00
   11    2    0     -1.11      0.00
   12    2    0      0.11      0.00
   13    2    0     -0.01      0.00
   14    2    0      0.11      0.00
   15    2    0     -0.13      0.00
   16    2    0      0.77      0.00
   17    2    0      1.02      0.00
  -19    3    0     -1.19      0.00
  -18    3    0      0.83      0.00
  -17    3    0      0.19      0.00
  -16    3    0     -0.79      0.00
  -15    3    0      1.48      0.00
  -14    3    0     -1.09      0.00
  -12    3    0     -2.23      0.00
  -10    3    0      1.04      0.00
   -9    3    0     -0.17      0.00
   -8    3    0     -0.20      0.00
   -7    3    0     -0.85      0.00
   -6    3    0      1.07      0.00
   -5    3    0      0.62      0.00
   -3    3    0     -0.97      0.00
   -2    3    0      0.07      0.00
   -1    3    0    -15.40      0.00
    0    3    0      6.85      0.00
    1    3    0      6.22      0.00
    3    3    0      2.93      0.00
    4    3    0     -3.25      0.00
    5    3    0     -2.27      0.00
    6    3    0      0.09      0.00
    7    3    0      0.24      0.00
    8    3    0     -0.55      0.00
    9    3    0      0.30      0.00
   10    3    0      0.43      0.00
   11    3    0     -0.15      0.00
   12    3    0     -0.22      0.00
   13    3    0     -0.08      0.00
   14    3    0      0.12      0.00
   15    3    0     -0.52      0.00
   16    3    0      0.87      0.00
   17    3    0      0.14      0.00
  -19    4    0      0.06      0.00
  -18    4    0     -0.02      0.00
  -17    4    0      0.38      0.00
  -16    4    0     -0.38      0.00
  -15    4    0      0.23      0.00
  -14    4    0     -0.99      0.00
  -12    4    0      0.42      0.00
  -11    4    0      0.01      0.00
  -10    4    0      0.38      0.00
   -9    4    0      0.24      0.00
   -8    4    0      0.16      0.00
   -7    4    0      1.92      0.00
   -6    4    0     -1.18      0.00
   -5    4    0     -0.60      0.00
   -4    4    0     -2.81      0.00
   -3    4    0    -13.35      0.00
   -2    4    0     -1.48      0.00
   -1    4    0      6.40      0.00
    0    4    0     -3.81      0.00
    1    4    0      8.00      0.00
    3    4    0     -1.67      0.00
    4    4    0      1.37      0.00
    5    4    0     -0.67      0.00
    6    4    0      1.60      0.00
    7    4    0      1.30      0.00
    8    4    0     -0.54      0.00
    9    4    0      0.34      0.00
   10    4    0      0.19      0.00
   11    4    0     -0.49      0.00
   12    4    0     -0.05      0.00
   13    4    0     -0.12      0.00
   14    4    0      0.14      0.00
   15    4    0     -0.56      0.00
   16    4    0      0.02      0.00
  -19    5    0     -0.09      0.00
  -18    5    0      0.65      0.00
  -17    5    0     -0.29      0.00
  -16    5    0     -0.07      0.00
  -15    5    0      0.70      0.00
  -13    5    0     -0.61      0.00
  -12    5    0     -0.91      0.00
  -11    5    0      0.33      0.00
  -10    5    0      0.44      0.00
   -9    5    0     -0.59      0.00
   -8    5    0      0.08      0.00
   -7    5    0      0.45      0.00
   -6    5    0     -1.37      0.00
   -5    5    0      0.49      0.00
   -4    5    0      6.46      0.00
   -3    5    0     -4.04      0.00
   -2    5    0     -2.58      0.00
   -1    5    0      5.00      0.00
    0    5    0      2.48      0.00
    1    5    0      3.82      0.00
    2    5    0     -3.69      0.00
    3    5    0      0.00      0.00
    4    5    0      1.15      0.00
    5    5    0     -1.45      0.00
    6    5    0      0.64      0.00
    7    5    0      0.17      0.00
    8    5    0      0.08      0.00
    9    5    0     -0.15      0.00
   12    5    0     -0.51      0.00
   13    5    0     -0.51      0.00
   14    5    0     -0.46      0.00
   15    5    0      0.50      0.00
   16    5    0     -0.34      0.00
  -19    6    0     -0.91      0.00
  -18    6    0      0.65      0.00
  -17    6    0      0.39      0.00
  -15    6    0     -0.59      0.00
  -14    6    0     -0.22      0.00
  -13    6    0     -0.35      0.00
  -12    6    0      0.13      0.00
  -11    6    0     -0.19      0.00
  -10    6    0      0.80      0.00
   -9    6    0      0.23      0.00
   -8    6    0     -0.20      0.00
   -7    6    0      1.54      0.00
   -6    6    0     -0.91      0.00
   -5    6    0     -0.46      0.00
   -4    6    0     -1.07      0.00
   -3    6    0     -2.59      0.00
   -2    6    0     -0.94      0.00
   -1    6    0      1.65      0.00
    0    6    0     -0.04      0.00
    2    6    0     -1.93      0.00
    3    6    0     -3.57      0.00
    4    6    0      1.17      0.00
    5    6    0      0.42      0.00
    6    6    0      0.84      0.00
    7    6    0      0.28      0.00
    8    6    0      0.12      0.00
    9    6    0     -0.44      0.00
   10    6    0      0.00      0.00
   11    6    0     -0.35      0.00
   12    6    0      0.88      0.00
   13    6    0     -0.31      0.00
   14    6    0     -0.91      0.00
   15    6    0      0.07      0.00
  -19    7    0     -0.57      0.00
  -18    7    0      0.83      0.00
  -17    7    0      0.65      0.00
  -16    7    0      0.13      0.00
  -15    7    0      0.31      0.00
  -14    7    0      0.88      0.00
  -13    7    0     -0.77      0.00
  -12    7    0     -0.18      0.00
  -11    7    0      0.46      0.00
  -10    7    0     -0.26      0.00
   -9    7    0      0.43      0.00
   -8    7    0     -0.70      0.00
   -7    7    0      0.50      0.00
   -6    7    0     -2.19      0.00
   -5    7    0      1.86      0.00
   -4    7    0     -0.37      0.00
   -3    7    0     -1.54      0.00
   -2    7    0      0.72      0.00
   -1    7    0      2.55      0.00
    0    7    0      2.50      0.00
    1    7    0     -0.18      0.00
    2    7    0      0.44      0.00
    3    7    0     -0.26      0.00
    4    7    0     -0.14      0.00
    5    7    0      0.10      0.00
    6    7    0     -0.05      0.00
    7    7    0      0.07      0.00
    8    7    0      0.93      0.00
    9    7    0      0.05      0.00
   10    7    0     -0.63      0.00
   11    7    0     -0.06      0.00
   12    7    0     -0.18      0.00
   13    7    0     -0.53      0.00
   14    7    0     -0.82      0.00
   15    7    0      0.07      0.00
  -19    8    0     -0.85      0.00
  -17    8    0      1.38      0.00
  -16    8    0     -1.43      0.00
  -15    8    0     -0.33      0.00
  -14    8    0      0.09      0.00
  -13    8    0     -0.22      0.00
  -12    8    0     -0.75      0.00
  -11    8    0      0.17      0.00
  -10    8    0      0.06      0.00
   -9    8    0     -0.26      0.00
   -8    8    0     -0.40      0.00
   -7    8    0      1.59      0.00
   -6    8    0     -0.90      0.00
   -5    8    0      0.62      0.00
   -4    8    0      1.51      0.00
   -3    8    0     -1.50      0.00
   -2    8    0      0.99      0.00
   -1    8    0      1.20      0.00
    0    8    0      1.75      0.00
    1    8    0     -0.49      0.00
    2    8    0     -1.27      0.00
    3    8    0     -1.86      0.00
    4    8    0     -0.38      0.00
    5    8    0      1.72      0.00
    6    8    0     -0.64      0.00
    7    8    0      0.67      0.00
    8    8    0     -0.66      0.00
    9    8    0      0.03      0.00
   10    8    0     -0.44      0.00
   11    8    0      0.05      0.00
   12    8    0      0.40      0.00
   13    8    0     -0.16      0.00
   14    8    0     -0.99      0.00
  -18    9    0     -0.44      0.00
  -17    9    0      0.99      0.00
  -16    9    0      0.99      0.00
  -15    9    0     -0.42      0.00
  -14    9    0      0.43      0.00
  -13    9    0     -0.23      0.00
  -12    9    0     -0.25      0.00
  -11    9    0     -0.45      0.00
  -10    9    0      1.31      0.00
   -9    9    0     -0.01      0.00
   -8    9    0     -0.68      0.00
   -7    9    0      0.40      0.00
   -6    9    0      0.41      0.00
   -5    9    0     -1.44      0.00
   -4    9    0      1.16      0.00
   -3    9    0     -0.64      0.00
   -2    9    0     -0.28      0.00
   -1    9    0      1.35      0.00
    0    9    0     -0.54      0.00
    1    9    0      0.64      0.00
    2    9    0     -0.75      0.00
    3    9    0      0.34      0.00
    4    9    0     -1.11      0.00
    5    9    0      0.20      0.00
    6    9    0     -0.78      0.00
    7    9    0      0.40      0.00
    8    9    0      1.02      0.00
    9    9    0     -0.47      0.00
   10    9    0     -0.11      0.00
   11    9    0     -0.20      0.00
   12    9    0      0.37      0.00
   13    9    0     -0.31      0.00
  -18   10    0      0.32      0.00
  -17   10    0      0.15      0.00
  -16   10    0      0.29      0.00
  -15   10    0     -0.54      0.00
  -14   10    0      0.04      0.00
  -13   10    0      0.04      0.00
  -12   10    0     -0.15      0.00
  -11   10    0     -0.25      0.00
  -10   10    0      0.44      0.00
   -9   10    0     -0.78      0.00
   -8   10    0      0.04      0.00
   -7   10    0     -0.33      0.00
   -6   10    0     -0.01      0.00
   -5   10    0      0.25      0.00
   -4   10    0     -0.54      0.00
   -3   10    0     -0.13      0.00
   -2   10    0     -0.06      0.00
   -1   10    0      0.33      0.00
    0   10    0      0.14      0.00
    1   10    0      0.74      0.00
    2   10    0     -1.16      0.00
    3   10    0     -0.48      0.00
    4   10    0      0.60      0.00
    5   10    0      0.52      0.00
    6   10    0      0.06      0.00
    7   10    0     -0.25      0.00
    8   10    0      0.64      0.00
    9   10    0     -0.50      0.00
   10   10    0      0.52      0.00
   11   10    0     -0.03      0.00
   12   10    0      1.33      0.00
  -18   11    0     -0.85      0.00
  -17   11    0      1.07      0.00
  -16   11    0      0.86      0.00
  -15   11    0     -0.39      0.00
  -14   11    0      0.01      0.00
  -13   11    0      0.16      0.00
  -12   11    0      0.07      0.00
  -11   11    0     -0.69      0.00
  -10   11    0      1.43      0.00
   -9   11    0     -1.35      0.00
   -8   11    0      0.22      0.00
   -7   11    0      0.35      0.00
   -6   11    0      0.07      0.00
   -5   11    0      0.07      0.00
   -4   11    0      0.73      0.00
   -3   11    0     -1.19      0.00
   -2   11    0      0.73      0.00
   -1   11    0      0.14      0.00
    0   11    0     -0.67      0.00
    1   11    0      0.47      0.00
    2   11    0     -0.49      0.00
    3   11    0     -0.70      0.00
    4   11    0     -0.40      0.00
    5   11    0     -0.11      0.00
    6   11    0     -0.40      0.00
    7   11    0      0.01      0.00
    8   11    0      0.83      0.00
    9   11    0     -0.42      0.00
   10   11    0     -0.13      0.00
   11   11    0      0.22      0.00
   12   11    0      0.39      0.00
  -18   12    0     -0.66      0.00
  -17   12    0     -0.24      0.00
  -16   12    0      0.17      0.00
  -15   12    0     -0.50      0.00
  -14   12    0     -0.17      0.00
  -13   12    0     -0.05      0.00
  -12   12    0     -0.13      0.00
  -11   12    0      0.35      0.00
  -10   12    0      0.39      0.00
   -9   12    0     -0.85      0.00
   -8   12    0      0.22      0.00
   -7   12    0      0.10      0.00
   -6   12    0      0.14      0.00
   -5   12    0      0.28      0.00
   -4   12    0     -0.36      0.00
   -3   12    0     -0.73      0.00
   -2   12    0     -0.04      0.00
   -1   12    0     -0.59      0.00
    0   12    0      0.27      0.00
    1   12    0     -0.44      0.00
    2   12    0     -0.44      0.00
    3   12    0      0.15      0.00
    4   12    0     -1.01      0.00
    5   12    0      0.45      0.00
    6   12    0     -0.29      0.00
    7   12    0     -0.63      0.00
    8   12    0      0.36      0.00
    9   12    0      0.06      0.00
   10   12    0     -0.38      0.00
   11   12    0      0.23      0.00
  -17   13    0      0.03      0.00
  -16   13    0      0.34      0.00
  -15   13    0     -0.23      0.00
  -14   13    0     -0.35      0.00
  -13   13    0      0.74      0.00
  -12   13    0     -0.60      0.00
  -11   13    0      0.28      0.00
  -10   13    0      0.35      0.00
   -9   13    0     -0.22      0.00
   -8   13    0     -0.70      0.00
   -7   13    0      0.17      0.00
   -6   13    0      0.72      0.00
   -5   13    0      0.29      0.00
   -4   13    0     -0.24      0.00
   -3   13    0     -0.83      0.00
   -2   13    0     -0.70      0.00
   -1   13    0      0.10      0.00
    0   13    0      0.71      0.00
    1   13    0     -0.88      0.00
    2   13    0      0.02      0.00
    3   13    0     -0.33      0.00
    4   13    0     -0.90      0.00
    5   13    0      0.69      0.00
    6   13    0     -0.12      0.00
    7   13    0      0.46      0.00
    8   13    0     -0.56      0.00
    9   13    0      0.63      0.00
   10   13    0     -1.10      0.00
  -17   14    0     -0.95      0.00
  -16   14    0      0.46      0.00
  -15   14    0      0.30      0.00
  -14   14    0     -0.84      0.00
  -13   14    0     -0.05      0.00
  -12   14    0     -0.13      0.00
  -11   14    0      0.40      0.00
  -10   14    0      0.29      0.00
   -9   14    0      0.89      0.00
   -8   14    0      0.10      0.00
   -7   14    0      0.09      0.00
   -6   14    0      0.43      0.00
   -5   14    0      0.77      0.00
   -3   14    0      0.87      0.00
   -2   14    0     -0.38      0.00
   -1   14    0     -0.81      0.00
    0   14    0      1.51      0.00
    1   14    0      0.59      0.00
    2   14    0      0.20      0.00
    3   14    0      0.75      0.00
    4   14    0     -0.67      0.00
    5   14    0      0.24      0.00
    6   14    0      0.37      0.00
    7   14    0     -0.02      0.00
    8   14    0      0.02      0.00
  -16   15    0      0.24      0.00
  -15   15    0      0.68      0.00
  -14   15    0     -0.29      0.00
  -13   15    0     -0.25      0.00
  -12   15    0      0.40      0.00
  -11   15    0      0.10      0.00
  -10   15    0      0.72      0.00
   -9   15    0      0.47      0.00
   -8   15    0     -0.62      0.00
   -7   15    0     -1.12      0.00
   -6   15    0      0.83      0.00
   -5   15    0     -0.18      0.00
   -4   15    0     -0.88      0.00
   -3   15    0     -0.61      0.00
   -2   15    0      0.59      0.00
   -1   15    0      0.18      0.00
    0   15    0     -0.63      0.00
    1   15    0      0.90      0.00
    2   15    0     -1.00      0.00
    3   15    0      0.21      0.00
    4   15    0      0.02      0.00
    5   15    0      1.56      0.00
    6   15    0     -0.21      0.00
    7   15    0      1.14      0.00
  -15   16    0      0.76      0.00
  -14   16    0     -0.68      0.00
  -13   16    0     -1.32      0.00
  -12   16    0      0.31      0.00
  -11   16    0     -0.36      0.00
  -10   16    0      0.28      0.00
   -9   16    0      1.03      0.00
   -8   16    0     -0.67      0.00
   -7   16    0     -0.46      0.00
   -6   16    0     -0.70      0.00
   -4   16    0     -0.20      0.00
   -3   16    0     -0.07      0.00
   -2   16    0     -0.16      0.00
   -1   16    0     -0.46      0.00
    0   16    0      0.33      0.00
    1   16    0      1.57      0.00
    2   16    0      0.05      0.00
    5   16    0      0.58      0.00
    6   16    0      0.34      0.00
  -14   17    0      0.51      0.00
  -13   17    0     -1.12      0.00
  -12   17    0      0.09      0.00
  -11   17    0      0.55      0.00
  -10   17    0      0.14      0.00
   -9   17    0      0.78      0.00
   -8   17    0     -0.55      0.00
   -7   17    0     -0.58      0.00
   -6   17    0     -0.54      0.00
   -5   17    0     -0.54      0.00
   -4   17    0     -0.53      0.00
   -3   17    0      0.18      0.00
   -2   17    0      0.84      0.00
   -1   17    0     -0.13      0.00
    0   17    0     -0.84      0.00
    1   17    0      0.61      0.00
    2   17    0     -1.89      0.00
    3   17    0      0.52      0.00
    4   17    0      0.90      0.00
  -13   18    0     -0.28      0.00
  -12   18    0     -0.47      0.00
  -11   18    0     -0.21      0.00
  -10   18    0      0.45      0.00
   -9   18    0      0.40      0.00
   -8   18    0     -0.84      0.00
   -7   18    0     -0.06      0.00
   -6   18    0     -0.63      0.00
   -5   18    0      0.66      0.00
   -4   18    0     -0.13      0.00
   -3   18    0     -1.08      0.00
   -2   18    0     -0.02      0.00
   -1   18    0     -0.67      0.00
    0   18    0      0.29      0.00
    1   18    0      0.79      0.00
    2   18    0     -0.18      0.00
  -11   19    0      0.08      0.00
  -10   19    0      0.80      0.00
   -9   19    0      1.07      0.00
   -8   19    0      0.21      0.00
   -7   19    0     -0.92      0.00
   -6   19    0     -0.34      0.00
   -5   19    0      0.30      0.00
   -4   19    0     -0.13      0.00
   -3   19    0      0.70      0.00
   -2   19    0      0.65      0.00
   -1   19    0      0.72      0.00
    0   19    0     -0.35      0.00
   -7   20    0     -0.05      0.00
   -6   20    0     -0.26      0.00
   -5   20    0      0.22      0.00
   -4   20    0      0.96      0.00
    2  -20    1      0.01      0.00
    3  -20    1     -0.67      0.00
    4  -20    1      0.74      0.00
    5  -20    1     -0.33      0.00
    6  -20    1      0.10      0.00
    7  -20    1      1.30      0.00
    8  -20    1      0.01      0.00
    9  -20    1     -0.45      0.00
   -1  -19    1      0.60      0.00
    0  -19    1     -1.15      0.00
    1  -19    1      0.40      0.00
    2  -19    1     -0.40      0.00
    3  -19    1      0.15      0.00
    4  -19    1     -0.22      0.00
    5  -19    1      0.13      0.00
    6  -19    1      0.24      0.00
    7  -19    1      0.32      0.00
    8  -19    1     -0.06      0.00
    9  -19    1     -0.12      0.00
   10  -19    1     -0.62      0.00
   11  -19    1      1.15      0.00
   12  -19    1     -0.17      0.00
   -3  -18    1     -1.20      0.00
   -2  -18    1      1.07      0.00
   -1  -18    1      0.68      0.00
    0  -18    1     -0.81      0.00
    1  -18    1     -0.50      0.00
    2  -18    1     -0.11      0.00
    3  -18    1     -0.53      0.00
    4  -18    1      0.55      0.00
    5  -18    1     -0.15      0.00
    6  -18    1     -0.11      0.00
    7  -18    1      0.38      0.00
    8  -18    1     -0.85      0.00
    9  -18    1     -0.73      0.00
   10  -18    1     -0.66      0.00
   11  -18    1      0.04      0.00
   12  -18    1     -0.27      0.00
   13  -18    1      0.13      0.00
   -5  -17    1     -1.45      0.00
   -3  -17    1     -0.54      0.00
   -2  -17    1     -0.43      0.00
    0  -17    1     -0.39      0.00
    1  -17    1     -0.89      0.00
    2  -17    1      0.40      0.00
    3  -17    1     -0.26      0.00
    4  -17    1     -0.05      0.00
    5  -17    1     -1.27      0.00
    6  -17    1      0.22      0.00
    7  -17    1      0.13      0.00
    8  -17    1     -1.07      0.00
    9  -17    1     -0.47      0.00
   10  -17    1     -1.04      0.00
   11  -17    1      1.17      0.00
   12  -17    1     -0.48      0.00
   13  -17    1      0.76      0.00
   14  -17    1      0.27      0.00
   -7  -16    1     -0.71      0.00
   -6  -16    1      1.33      0.00
   -4  -16    1     -0.04      0.00
   -3  -16    1      0.68      0.00
   -2  -16    1      0.41      0.00
   -1  -16    1      0.10      0.00
    1  -16    1     -0.47      0.00
    2  -16    1      0.45      0.00
    3  -16    1      0.08      0.00
    5  -16    1     -0.93      0.00
    6  -16    1     -0.55      0.00
    7  -16    1      1.63      0.00
    8  -16    1     -0.53      0.00
    9  -16    1     -0.01      0.00
   10  -16    1     -0.47      0.00
   11  -16    1      0.32      0.00
   12  -16    1      0.00      0.00
   13  -16    1     -0.39      0.00
   14  -16    1     -0.11      0.00
   15  -16    1     -0.30      0.00
   -8  -15    1      0.53      0.00
   -7  -15    1      0.09      0.00
   -6  -15    1     -0.04      0.00
   -5  -15    1      0.56      0.00
   -4  -15    1      0.46      0.00
   -3  -15    1     -0.21      0.00
   -2  -15    1     -0.45      0.00
   -1  -15    1     -0.08      0.00
    0  -15    1     -0.35      0.00
    1  -15    1     -0.16      0.00
    2  -15    1      1.18      0.00
    3  -15    1     -2.01      0.00
    5  -15    1     -0.78      0.00
    6  -15    1     -0.45      0.00
    7  -15    1      0.92      0.00
    8  -15    1     -0.46      0.00
    9  -15    1     -0.74      0.00
   10  -15    1     -0.26      0.00
   11  -15    1      0.06      0.00
   12  -15    1      0.51      0.00
   13  -15    1     -0.31      0.00
   14  -15    1      0.82      0.00
   15  -15    1      0.35      0.00
   16  -15    1     -0.09      0.00
   -9  -14    1     -0.63      0.00
   -8  -14    1      0.21      0.00
   -7  -14    1     -0.56      0.00
   -6  -14    1      0.19      0.00
   -5  -14    1     -0.76      0.00
   -4  -14    1      0.47      0.00
   -3  -14    1      0.11      0.00
   -2  -14    1     -0.51      0.00
   -1  -14    1      0.45      0.00
    0  -14    1     -0.12      0.00
    1  -14    1     -0.82      0.00
    2  -14    1      0.96      0.00
    3  -14    1      0.56      0.00
    4  -14    1      0.14      0.00
    5  -14    1     -0.15      0.00
    6  -14    1     -0.80      0.00
    8  -14    1      0.73      0.00
    9  -14    1      0.10      0.00
   10  -14    1     -0.21      0.00
   11  -14    1     -0.21      0.00
   12  -14    1      1.07      0.00
   13  -14    1     -0.73      0.00
   14  -14    1     -0.33      0.00
   15  -14    1      0.24      0.00
   16  -14    1     -0.12      0.00
   17  -14    1     -0.32      0.00
  -10  -13    1      0.59      0.00
   -9  -13    1     -0.21      0.00
   -8  -13    1     -0.64      0.00
   -7  -13    1     -0.30      0.00
   -6  -13    1     -0.41      0.00
   -5  -13    1     -0.58      0.00
   -4  -13    1      0.42      0.00
   -3  -13    1     -0.77      0.00
   -2  -13    1     -0.39      0.00
   -1  -13    1     -0.07      0.00
    0  -13    1     -0.48      0.00
    1  -13    1     -0.12      0.00
    2  -13    1      0.41      0.00
    3  -13    1      0.16      0.00
    5  -13    1      0.64      0.00
    6  -13    1     -0.30      0.00
    7  -13    1      0.46      0.00
    8  -13    1      0.01      0.00
    9  -13    1      0.31      0.00
   10  -13    1     -0.36      0.00
   11  -13    1     -0.55      0.00
   12  -13    1      0.38      0.00
   13  -13    1     -0.05      0.00
   14  -13    1      0.01      0.00
   15  -13    1      0.68      0.00
   16  -13    1      0.00      0.00
   17  -13    1     -0.15      0.00
  -11  -12    1      0.08      0.00
  -10  -12    1      0.83      0.00
   -9  -12    1      0.27      0.00
   -8  -12    1     -0.78      0.00
   -7  -12    1      0.09      0.00
   -6  -12    1     -0.29      0.00
   -5  -12    1      0.27      0.00
   -4  -12    1     -0.15      0.00
   -3  -12    1      0.90      0.00
   -2  -12    1     -0.88      0.00
   -1  -12    1     -0.40      0.00
    0  -12    1      0.16      0.00
    1  -12    1     -0.59      0.00
    2  -12    1     -0.61      0.00
    3  -12    1      2.72      0.00
    4  -12    1     -1.62      0.00
    5  -12    1     -0.04      0.00
    6  -12    1     -0.20      0.00
    7  -12    1     -0.56      0.00
    8  -12    1     -0.01      0.00
    9  -12    1      1.22      0.00
   10  -12    1     -1.30      0.00
   11  -12    1      0.66      0.00
   12  -12    1     -0.13      0.00
   13  -12    1      0.38      0.00
   14  -12    1     -1.17      0.00
   15  -12    1      0.69      0.00
   16  -12    1     -0.12      0.00
   17  -12    1     -0.47      0.00
   18  -12    1     -0.26      0.00
  -12  -11    1     -0.57      0.00
  -11  -11    1      0.52      0.00
  -10  -11    1      0.12      0.00
   -9  -11    1      0.68      0.00
   -8  -11    1     -0.94      0.00
   -7  -11    1      0.37      0.00
   -6  -11    1     -0.03      0.00
   -5  -11    1     -0.12      0.00
   -4  -11    1     -0.87      0.00
   -3  -11    1      0.74      0.00
   -2  -11    1      0.23      0.00
   -1  -11    1     -1.21      0.00
    0  -11    1      0.21      0.00
    1  -11    1      0.73      0.00
    2  -11    1     -1.02      0.00
    3  -11    1      1.39      0.00
    4  -11    1      0.33      0.00
    5  -11    1     -1.20      0.00
    6  -11    1      0.20      0.00
    7  -11    1     -0.15      0.00
    8  -11    1      0.00      0.00
    9  -11    1      1.34      0.00
   10  -11    1     -0.57      0.00
   11  -11    1      0.47      0.00
   12  -11    1     -0.69      0.00
   13  -11    1      0.66      0.00
   14  -11    1      0.38      0.00
   15  -11    1      0.25      0.00
   16  -11    1      0.28      0.00
   17  -11    1      0.57      0.00
   18  -11    1     -0.62      0.00
  -13  -10    1      0.20      0.00
  -12  -10    1     -0.07      0.00
  -11  -10    1      0.29      0.00
  -10  -10    1      0.18      0.00
   -9  -10    1      0.52      0.00
   -8  -10    1     -0.80      0.00
   -7  -10    1     -0.58      0.00
   -6  -10    1      1.10      0.00
   -5  -10    1      0.57      0.00
   -4  -10    1      0.66      0.00
   -3  -10    1      0.53      0.00
   -2  -10    1      0.25      0.00
   -1  -10    1     -0.36      0.00
    0  -10    1      0.96      0.00
    1  -10    1      0.50      0.00
    2  -10    1     -0.21      0.00
    3  -10    1      0.89      0.00
    4  -10    1     -0.30      0.00
    5  -10    1     -0.24      0.00
    6  -10    1     -0.16      0.00
    7  -10    1     -0.16      0.00
    8  -10    1      0.18      0.00
    9  -10    1      0.94      0.00
   10  -10    1     -1.57      0.00
   11  -10    1      0.54      0.00
   12  -10    1      0.12      0.00
   13  -10    1     -0.53      0.00
   14  -10    1      0.13      0.00
   15  -10    1      0.20      0.00
   16  -10    1     -0.67      0.00
   17  -10    1     -0.17      0.00
   18  -10    1     -0.41      0.00
  -14   -9    1      0.64      0.00
  -13   -9    1     -0.32      0.00
  -12   -9    1     -0.45      0.00
  -11   -9    1     -0.13      0.00
  -10   -9    1      0.31      0.00
   -9   -9    1     -0.28      0.00
   -8   -9    1      0.34      0.00
   -7   -9    1     -0.53      0.00
   -6   -9    1      0.60      0.00
   -5   -9    1     -0.44      0.00
   -4   -9    1     -0.10      0.00
   -3   -9    1      2.89      0.00
   -2   -9    1      0.01      0.00
   -1   -9    1     -0.10      0.00
    0   -9    1     -1.06      0.00
    1   -9    1      0.76      0.00
    2   -9    1     -0.21      0.00
    3   -9    1      1.15      0.00
    4   -9    1      0.25      0.00
    5   -9    1     -1.19      0.00
    6   -9    1      0.21      0.00
    7   -9    1     -0.38      0.00
    8   -9    1      0.32      0.00
    9   -9    1      0.16      0.00
   10   -9    1      0.59      0.00
   11   -9    1     -0.93      0.00
   12   -9    1      0.63      0.00
   13   -9    1      0.19      0.00
   14   -9    1      0.22      0.00
   15   -9    1     -0.05      0.00
   16   -9    1      0.67      0.00
   17   -9    1     -0.66      0.00
  -14   -8    1     -0.44      0.00
  -13   -8    1      0.31      0.00
  -12   -8    1     -0.40      0.00
  -11   -8    1      0.27      0.00
  -10   -8    1      0.11      0.00
   -9   -8    1      0.32      0.00
   -8   -8    1     -1.40      0.00
   -7   -8    1      0.17      0.00
   -6   -8    1      0.31      0.00
   -5   -8    1      0.47      0.00
   -4   -8    1      0.71      0.00
   -3   -8    1      0.23      0.00
   -2   -8    1     -0.16      0.00
   -1   -8    1      1.17      0.00
    0   -8    1     -1.12      0.00
    1   -8    1      0.64      0.00
    2   -8    1     -0.44      0.00
    3   -8    1      0.84      0.00
    4   -8    1      0.45      0.00
    5   -8    1     -0.81      0.00
    6   -8    1      0.95      0.00
    7   -8    1      0.33      0.00
    8   -8    1      0.92      0.00
    9   -8    1     -1.28      0.00
   10   -8    1      0.48      0.00
   11   -8    1     -0.28      0.00
   12   -8    1     -0.02      0.00
   13   -8    1      0.34      0.00
   14   -8    1     -0.29      0.00
   15   -8    1     -0.42      0.00
   16   -8    1      0.02      0.00
   17   -8    1     -0.89      0.00
   18   -8    1     -0.77      0.00
   19   -8    1      0.67      0.00
  -15   -7    1      0.09      0.00
  -14   -7    1      0.67      0.00
  -13   -7    1     -0.43      0.00
  -12   -7    1     -0.53      0.00
  -11   -7    1      0.22      0.00
  -10   -7    1     -0.09      0.00
   -9   -7    1      0.07      0.00
   -8   -7    1      0.08      0.00
   -7   -7    1     -0.59      0.00
   -6   -7    1     -0.22      0.00
   -5   -7    1     -0.07      0.00
   -4   -7    1     -0.05      0.00
   -3   -7    1      5.69      0.00
   -2   -7    1     -0.17      0.00
   -1   -7    1      1.17      0.00
    0   -7    1     -2.13      0.00
    1   -7    1      1.30      0.00
    2   -7    1      0.24      0.00
    3   -7    1      0.87      0.00
    4   -7    1      0.80      0.00
    5   -7    1     -0.28      0.00
    6   -7    1      0.56      0.00
    7   -7    1     -1.34      0.00
    8   -7    1      0.97      0.00
    9   -7    1     -0.93      0.00
   10   -7    1     -0.03      0.00
   11   -7    1      0.16      0.00
   12   -7    1      0.19      0.00
   13   -7    1      0.30      0.00
   14   -7    1      0.45      0.00
   15   -7    1     -0.53      0.00
   16   -7    1      1.11      0.00
   17   -7    1      0.01      0.00
   18   -7    1     -1.20      0.00
   19   -7    1      0.88      0.00
  -16   -6    1     -0.12      0.00
  -15   -6    1     -0.13      0.00
  -14   -6    1      0.44      0.00
  -13   -6    1      0.43      0.00
  -12   -6    1      0.08      0.00
  -11   -6    1     -0.15      0.00
  -10   -6    1      0.31      0.00
   -9   -6    1     -0.33      0.00
   -8   -6    1     -0.36      0.00
   -7   -6    1      0.45      0.00
   -6   -6    1     -1.62      0.00
   -5   -6    1      2.64      0.00
   -4   -6    1     -1.17      0.00
   -3   -6    1      1.05      0.00
   -2   -6    1      2.72      0.00
   -1   -6    1     -0.24      0.00
    0   -6    1     -2.90      0.00
    1   -6    1     -3.20      0.00
    2   -6    1      0.94      0.00
    3   -6    1      0.34      0.00
    4   -6    1     -4.42      0.00
    5   -6    1     -0.24      0.00
    6   -6    1      0.66      0.00
    7   -6    1      0.11      0.00
    8   -6    1     -0.17      0.00
    9   -6    1      0.16      0.00
   10   -6    1      0.03      0.00
   11   -6    1      0.48      0.00
   12   -6    1      0.15      0.00
   13   -6    1      0.20      0.00
   14   -6    1      0.15      0.00
   16   -6    1     -0.36      0.00
   17   -6    1      0.97      0.00
   18   -6    1     -0.89      0.00
   19   -6    1     -0.60      0.00
  -16   -5    1     -0.77      0.00
  -15   -5    1      1.19      0.00
  -14   -5    1     -0.50      0.00
  -13   -5    1      0.32      0.00
  -12   -5    1     -0.29      0.00
  -11   -5    1      0.30      0.00
  -10   -5    1     -0.34      0.00
   -9   -5    1     -0.45      0.00
   -8   -5    1      0.23      0.00
   -7   -5    1     -0.50      0.00
   -6   -5    1     -2.50      0.00
   -5   -5    1      0.08      0.00
   -4   -5    1      1.48      0.00
   -3   -5    1      1.20      0.00
   -2   -5    1      1.60      0.00
   -1   -5    1     -5.36      0.00
    0   -5    1     -0.55      0.00
    1   -5    1     -3.67      0.00
    2   -5    1     -0.38      0.00
    3   -5    1      5.63      0.00
    4   -5    1      2.01      0.00
    5   -5    1      1.29      0.00
    6   -5    1      0.32      0.00
    7   -5    1     -1.09      0.00
    8   -5    1      0.36      0.00
    9   -5    1     -0.71      0.00
   10   -5    1     -0.63      0.00
   11   -5    1      0.62      0.00
   12   -5    1     -0.27      0.00
   15   -5    1     -0.34      0.00
   16   -5    1     -0.21      0.00
   17   -5    1     -0.10      0.00
   18   -5    1      0.06      0.00
  -17   -4    1      0.75      0.00
  -16   -4    1     -1.60      0.00
  -15   -4    1      1.37      0.00
  -14   -4    1      0.11      0.00
  -13   -4    1      0.11      0.00
  -12   -4    1      0.33      0.00
  -10   -4    1     -0.10      0.00
   -9   -4    1     -0.63      0.00
   -8   -4    1      0.83      0.00
   -7   -4    1     -0.43      0.00
   -6   -4    1      0.09      0.00
   -5   -4    1     -0.83      0.00
   -4   -4    1      2.90      0.00
   -3   -4    1     -2.69      0.00
   -2   -4    1      6.24      0.00
    0   -4    1     -9.34      0.00
    1   -4    1      6.70      0.00
    2   -4    1      2.00      0.00
    4   -4    1     -7.25      0.00
    5   -4    1      2.40      0.00
    6   -4    1     -1.19      0.00
    7   -4    1      0.13      0.00
    8   -4    1      0.17      0.00
    9   -4    1     -0.13      0.00
   10   -4    1     -1.04      0.00
   11   -4    1      0.18      0.00
   13   -4    1     -1.25      0.00
   14   -4    1      0.99      0.00
   15   -4    1     -0.91      0.00
   16   -4    1      0.69      0.00
   17   -4    1      0.28      0.00
   18   -4    1      0.02      0.00
  -17   -3    1      0.45      0.00
  -16   -3    1     -1.08      0.00
  -15   -3    1      0.15      0.00
  -14   -3    1      0.20      0.00
  -13   -3    1     -0.05      0.00
  -12   -3    1     -0.02      0.00
  -11   -3    1      1.23      0.00
  -10   -3    1      0.04      0.00
   -9   -3    1     -0.55      0.00
   -8   -3    1      0.26      0.00
   -7   -3    1     -2.00      0.00
   -6   -3    1     -1.65      0.00
   -5   -3    1     -0.89      0.00
   -4   -3    1     -0.62      0.00
   -3   -3    1      4.79      0.00
   -1   -3    1     -2.93      0.00
    0   -3    1    -15.37      0.00
    1   -3    1    -12.51      0.00
    2   -3    1      7.05      0.00
    3   -3    1     14.60      0.00
    4   -3    1     -3.77      0.00
    5   -3    1      3.11      0.00
    6   -3    1     -0.03      0.00
    7   -3    1     -2.65      0.00
    8   -3    1     -0.38      0.00
    9   -3    1      1.10      0.00
   12   -3    1      0.05      0.00
   13   -3    1     -0.25      0.00
   14   -3    1      0.57      0.00
   15   -3    1     -1.14      0.00
   16   -3    1     -0.51      0.00
   17   -3    1      0.91      0.00
   18   -3    1     -0.15      0.00
  -17   -2    1      0.06      0.00
  -16   -2    1      0.13      0.00
  -15   -2    1     -0.22      0.00
  -14   -2    1      0.59      0.00
  -13   -2    1      0.86      0.00
  -12   -2    1     -0.24      0.00
  -11   -2    1      0.02      0.00
  -10   -2    1     -1.52      0.00
   -9   -2    1      0.32      0.00
   -8   -2    1     -0.66      0.00
   -7   -2    1      0.25      0.00
   -6   -2    1     -1.61      0.00
   -5   -2    1      3.54      0.00
   -4   -2    1     -1.58      0.00
   -3   -2    1     -4.77      0.00
    2   -2    1    -19.70      0.00
    4   -2    1     -2.95      0.00
    5   -2    1     -3.67      0.00
    6   -2    1      2.11      0.00
    7   -2    1      1.23      0.00
    9   -2    1      0.24      0.00
   10   -2    1     -1.49      0.00
   11   -2    1      0.62      0.00
   12   -2    1      1.33      0.00
   13   -2    1     -0.46      0.00
   14   -2    1      0.98      0.00
   15   -2    1      0.04      0.00
   16   -2    1     -0.66      0.00
   17   -2    1      0.14      0.00
   18   -2    1      0.92      0.00
  -18   -1    1     -1.01      0.00
  -17   -1    1      0.19      0.00
  -16   -1    1     -0.41      0.00
  -15   -1    1     -0.42      0.00
  -14   -1    1     -0.70      0.00
  -13   -1    1     -0.02      0.00
  -12   -1    1      0.26      0.00
  -11   -1    1      0.79      0.00
  -10   -1    1      0.52      0.00
   -9   -1    1     -0.30      0.00
   -8   -1    1      0.56      0.00
   -7   -1    1     -0.61      0.00
   -6   -1    1     -3.63      0.00
   -5   -1    1      1.85      0.00
   -4   -1    1     16.10      0.00
   -3   -1    1     -3.45      0.00
   -2   -1    1     -5.58      0.00
    2   -1    1      2.59      0.00
    3   -1    1      0.76      0.00
    4   -1    1      7.20      0.00
    5   -1    1     -0.52      0.00
    6   -1    1     -2.64      0.00
    7   -1    1     -1.31      0.00
    8   -1    1      0.83      0.00
    9   -1    1      0.49      0.00
   10   -1    1     -0.30      0.00
   11   -1    1     -0.17      0.00
   12   -1    1      1.51      0.00
   13   -1    1      0.17      0.00
   14   -1    1     -1.44      0.00
   15   -1    1      0.07      0.00
   16   -1    1     -0.76      0.00
   17   -1    1     -0.07      0.00
   18   -1    1      0.25      0.00
  -18    0    1     -1.05      0.00
  -17    0    1     -0.14      0.00
  -16    0    1      0.14      0.00
  -15    0    1     -0.50      0.00
  -14    0    1      0.74      0.00
  -13    0    1      1.34      0.00
  -12    0    1      0.32      0.00
  -11    0    1     -0.84      0.00
  -10    0    1     -0.43      0.00
   -9    0    1     -0.57      0.00
   -8    0    1     -1.05      0.00
   -7    0    1      0.62      0.00
   -6    0    1      1.88      0.00
   -5    0    1     -4.86      0.00
   -4    0    1     -0.80      0.00
   -3    0    1     14.36      0.00
   -2    0    1    -14.07      0.00
    1    0    1     -3.59      0.00
    2    0    1     22.03      0.00
    3    0    1     -8.03      0.00
    5    0    1     -0.69      0.00
    6    0    1      1.55      0.00
    7    0    1     -0.43      0.00
    8    0    1     -1.15      0.00
    9    0    1      1.09      0.00
   10    0    1     -1.23      0.00
   11    0    1     -0.47      0.00
   12    0    1      0.44      0.00
   13    0    1      0.29      0.00
   14    0    1      0.11      0.00
   15    0    1     -0.69      0.00
   16    0    1      0.24      0.00
   17    0    1     -1.09      0.00
  -18    1    1     -1.25      0.00
  -17    1    1      0.06      0.00
  -16    1    1      0.86      0.00
  -15    1    1     -0.93      0.00
  -14    1    1     -0.70      0.00
  -13    1    1      0.08      0.00
  -12    1    1     -0.02      0.00
  -11    1    1     -0.47      0.00
  -10    1    1     -0.27      0.00
   -9    1    1      1.21      0.00
   -8    1    1     -0.07      0.00
   -6    1    1     -1.62      0.00
   -5    1    1      8.22      0.00
   -3    1    1     12.78      0.00
   -2    1    1      9.99      0.00
    1    1    1      7.57      0.00
    2    1    1      3.96      0.00
    3    1    1     -2.10      0.00
    4    1    1     -0.36      0.00
    5    1    1     -0.92      0.00
    6    1    1     -2.60      0.00
    7    1    1     -0.84      0.00
    8    1    1     -0.91      0.00
    9    1    1      0.58      0.00
   10    1    1     -0.24      0.00
   11    1    1     -0.06      0.00
   12    1    1      0.80      0.00
   13    1    1      0.17      0.00
   14    1    1     -0.63      0.00
   15    1    1      0.39      0.00
   16    1    1     -0.54      0.00
   17    1    1     -1.00      0.00
  -19    2    1      1.66      0.00
  -18    2    1     -0.98      0.00
  -17    2    1     -0.79      0.00
  -16    2    1      1.09      0.00
  -15    2    1     -0.92      0.00
  -14    2    1      0.26      0.00
  -13    2    1      0.11      0.00
  -12    2    1      1.70      0.00
  -11    2    1     -0.65      0.00
   -9    2    1     -0.81      0.00
   -8    2    1      0.08      0.00
   -7    2    1      0.67      0.00
   -6    2    1     -4.65      0.00
   -5    2    1     -0.33      0.00
   -3    2    1     -4.64      0.00
   -2    2    1      4.03      0.00
    0    2    1     -5.80      0.00
    3    2    1     -4.35      0.00
    4    2    1      0.25      0.00
    5    2    1      1.33      0.00
    6    2    1     -0.76      0.00
    7    2    1     -0.85      0.00
    8    2    1     -0.58      0.00
    9    2    1      0.66      0.00
   10    2    1      0.02      0.00
   11    2    1     -0.34      0.00
   12    2    1      0.09      0.00
   13    2    1      0.18      0.00
   14    2    1     -0.45      0.00
   15    2    1      0.13      0.00
   16    2    1     -0.38      0.00
   17    2    1     -0.39      0.00
  -19    3    1      0.48      0.00
  -18    3    1      0.05      0.00
  -17    3    1     -0.50      0.00
  -16    3    1      0.68      0.00
  -15    3    1      0.66      0.00
  -14    3    1     -0.26      0.00
  -13    3    1     -0.13      0.00
  -11    3    1     -0.80      0.00
  -10    3    1     -0.32      0.00
   -9    3    1     -0.14      0.00
   -8    3    1     -0.41      0.00
   -7    3    1     -2.21      0.00
   -6    3    1     -0.24      0.00
   -5    3    1      1.48      0.00
   -4    3    1      7.43      0.00
   -3    3    1      6.28      0.00
   -2    3    1      5.39      0.00
   -1    3    1    -19.08      0.00
    0    3    1      1.10      0.00
    1    3    1     -5.52      0.00
    2    3    1      3.78      0.00
    3    3    1      1.68      0.00
    4    3    1     -2.65      0.00
    5    3    1     -0.13      0.00
    6    3    1     -0.73      0.00
    7    3    1     -1.18      0.00
    8    3    1      0.00      0.00
    9    3    1     -0.24      0.00
   10    3    1     -0.04      0.00
   12    3    1      0.37      0.00
   13    3    1     -0.05      0.00
   14    3    1      0.25      0.00
   15    3    1      0.09      0.00
   16    3    1      0.03      0.00
  -19    4    1      0.03      0.00
  -18    4    1      0.01      0.00
  -17    4    1     -0.69      0.00
  -16    4    1     -0.09      0.00
  -15    4    1     -0.32      0.00
  -14    4    1     -1.07      0.00
  -12    4    1      1.51      0.00
  -11    4    1     -0.43      0.00
  -10    4    1     -0.30      0.00
   -9    4    1      0.52      0.00
   -8    4    1      0.27      0.00
   -7    4    1     -0.15      0.00
   -6    4    1     -0.39      0.00
   -5    4    1     -1.74      0.00
   -4    4    1     -3.95      0.00
   -3    4    1      0.48      0.00
   -2    4    1      4.70      0.00
   -1    4    1     -9.81      0.00
    0    4    1     -3.94      0.00
    1    4    1     -3.32      0.00
    2    4    1      4.90      0.00
    3    4    1      1.03      0.00
    4    4    1      1.21      0.00
    5    4    1      0.68      0.00
    6    4    1     -0.29      0.00
    7    4    1     -0.27      0.00
    8    4    1     -0.27      0.00
    9    4    1      0.25      0.00
   10    4    1      0.60      0.00
   11    4    1     -0.44      0.00
   12    4    1      0.52      0.00
   13    4    1      0.09      0.00
   14    4    1      0.07      0.00
   15    4    1     -0.80      0.00
   16    4    1     -0.09      0.00
  -19    5    1     -0.03      0.00
  -18    5    1      0.08      0.00
  -17    5    1     -0.30      0.00
  -16    5    1      0.04      0.00
  -14    5    1     -0.10      0.00
  -13    5    1      0.11      0.00
  -12    5    1     -0.14      0.00
  -11    5    1      0.32      0.00
  -10    5    1     -1.46      0.00
   -9    5    1      0.71      0.00
   -8    5    1     -1.22      0.00
   -7    5    1     -0.65      0.00
   -6    5    1     -0.11      0.00
   -5    5    1     -0.02      0.00
   -4    5    1      3.29      0.00
   -3    5    1      0.42      0.00
   -2    5    1      3.37      0.00
   -1    5    1     -3.08      0.00
    0    5    1      3.21      0.00
    2    5    1      3.21      0.00
    3    5    1      2.31      0.00
    4    5    1     -0.76      0.00
    5    5    1      0.12      0.00
    6    5    1     -1.11      0.00
    7    5    1      0.44      0.00
    8    5    1     -0.55      0.00
    9    5    1      0.17      0.00
   10    5    1     -0.14      0.00
   11    5    1      0.05      0.00
   12    5    1     -0.61      0.00
   13    5    1      0.19      0.00
   14    5    1      0.37      0.00
   15    5    1     -0.28      0.00
  -19    6    1     -0.39      0.00
  -18    6    1     -0.36      0.00
  -17    6    1     -0.29      0.00
  -15    6    1      0.25      0.00
  -14    6    1     -0.48      0.00
  -13    6    1      0.32      0.00
  -12    6    1      0.38      0.00
  -10    6    1     -0.59      0.00
   -9    6    1      0.43      0.00
   -8    6    1      0.57      0.00
   -7    6    1     -0.83      0.00
   -6    6    1      2.71      0.00
   -5    6    1     -3.39      0.00
   -4    6    1      3.19      0.00
   -3    6    1      0.44      0.00
   -2    6    1      1.89      0.00
   -1    6    1     -3.49      0.00
    0    6    1     -2.82      0.00
    1    6    1      2.38      0.00
    2    6    1     -0.88      0.00
    3    6    1      0.51      0.00
    4    6    1      0.87      0.00
    5    6    1      0.05      0.00
    6    6    1     -0.56      0.00
    7    6    1      0.09      0.00
    8    6    1     -0.26      0.00
    9    6    1     -0.56      0.00
   10    6    1      1.06      0.00
   11    6    1     -0.63      0.00
   12    6    1      0.79      0.00
   13    6    1     -0.05      0.00
   14    6    1      0.42      0.00
   15    6    1     -0.32      0.00
  -19    7    1     -0.02      0.00
  -18    7    1      0.41      0.00
  -17    7    1     -0.67      0.00
  -16    7    1      0.73      0.00
  -15    7    1      0.75      0.00
  -14    7    1      0.52      0.00
  -13    7    1     -0.01      0.00
  -12    7    1     -0.01      0.00
  -11    7    1      0.62      0.00
  -10    7    1     -0.97      0.00
   -9    7    1      0.06      0.00
   -8    7    1      0.50      0.00
   -7    7    1     -1.27      0.00
   -6    7    1      1.09      0.00
   -5    7    1     -0.64      0.00
   -4    7    1     -0.24      0.00
   -3    7    1      1.22      0.00
   -2    7    1     -0.54      0.00
   -1    7    1      0.93      0.00
    0    7    1     -1.88      0.00
    1    7    1      3.75      0.00
    2    7    1      2.32      0.00
    3    7    1      0.10      0.00
    4    7    1      0.76      0.00
    5    7    1     -1.18      0.00
    6    7    1      0.05      0.00
    7    7    1     -0.43      0.00
    8    7    1      0.68      0.00
    9    7    1     -0.31      0.00
   10    7    1      0.45      0.00
   11    7    1     -0.56      0.00
   12    7    1     -0.41      0.00
   13    7    1      0.39      0.00
   14    7    1      0.09      0.00
  -19    8    1     -0.95      0.00
  -18    8    1      0.01      0.00
  -17    8    1     -0.80      0.00
  -16    8    1     -0.59      0.00
  -15    8    1      0.11      0.00
  -14    8    1      0.16      0.00
  -13    8    1      0.65      0.00
  -12    8    1     -0.46      0.00
  -11    8    1      0.18      0.00
  -10    8    1     -0.50      0.00
   -9    8    1     -0.71      0.00
   -8    8    1      1.47      0.00
   -7    8    1     -0.21      0.00
   -6    8    1      0.00      0.00
   -5    8    1      1.22      0.00
   -4    8    1     -0.32      0.00
   -3    8    1      1.54      0.00
   -2    8    1      0.07      0.00
   -1    8    1     -0.86      0.00
    0    8    1      0.06      0.00
    1    8    1      0.25      0.00
    2    8    1      0.97      0.00
    3    8    1      0.00      0.00
    4    8    1      0.83      0.00
    5    8    1      0.11      0.00
    6    8    1      0.08      0.00
    7    8    1     -0.20      0.00
    8    8    1     -0.60      0.00
    9    8    1     -0.22      0.00
   10    8    1      0.46      0.00
   11    8    1     -0.25      0.00
   12    8    1     -0.14      0.00
   13    8    1      0.76      0.00
  -19    9    1      1.59      0.00
  -18    9    1     -0.32      0.00
  -17    9    1     -0.19      0.00
  -16    9    1      0.20      0.00
  -15    9    1      0.62      0.00
  -14    9    1     -0.09      0.00
  -13    9    1     -0.12      0.00
  -12    9    1      0.46      0.00
  -11    9    1      0.04      0.00
  -10    9    1      0.34      0.00
   -9    9    1     -0.47      0.00
   -8    9    1      0.50      0.00
   -7    9    1      0.30      0.00
   -6    9    1     -0.27      0.00
   -5    9    1     -0.10      0.00
   -4    9    1      0.22      0.00
   -3    9    1     -0.11      0.00
   -2    9    1      0.45      0.00
   -1    9    1     -1.17      0.00
    0    9    1     -0.30      0.00
    2    9    1      1.15      0.00
    3    9    1      0.08      0.00
    4    9    1     -0.27      0.00
    5    9    1     -0.56      0.00
    6    9    1      0.10      0.00
    7    9    1      0.15      0.00
    8    9    1      0.32      0.00
    9    9    1      0.17      0.00
   10    9    1     -0.08      0.00
   11    9    1      0.47      0.00
   12    9    1     -0.47      0.00
   13    9    1      1.12      0.00
  -18   10    1      0.99      0.00
  -17   10    1     -1.02      0.00
  -16   10    1     -0.67      0.00
  -15   10    1      0.25      0.00
  -14   10    1      0.92      0.00
  -13   10    1     -0.24      0.00
  -12   10    1      0.08      0.00
  -11   10    1      0.30      0.00
  -10   10    1     -0.63      0.00
   -9   10    1      0.25      0.00
   -8   10    1     -0.44      0.00
   -7   10    1      0.02      0.00
   -6   10    1     -0.23      0.00
   -5   10    1      0.03      0.00
   -4   10    1     -0.28      0.00
   -3   10    1      0.28      0.00
   -2   10    1     -0.93      0.00
   -1   10    1     -0.24      0.00
    0   10    1      0.34      0.00
    1   10    1     -0.96      0.00
    2   10    1      0.87      0.00
    3   10    1      0.00      0.00
    4   10    1      0.04      0.00
    5   10    1      0.21      0.00
    6   10    1      0.41      0.00
    7   10    1     -0.03      0.00
    8   10    1     -0.36      0.00
    9   10    1      0.72      0.00
   10   10    1      0.13      0.00
   11   10    1      0.56      0.00
   12   10    1      0.00      0.00
  -18   11    1      0.56      0.00
  -17   11    1     -0.13      0.00
  -16   11    1     -0.31      0.00
  -15   11    1     -0.03      0.00
  -14   11    1      0.01      0.00
  -13   11    1      0.04      0.00
  -12   11    1      0.52      0.00
  -11   11    1     -0.34      0.00
  -10   11    1     -0.16      0.00
   -9   11    1      0.16      0.00
   -8   11    1     -0.58      0.00
   -7   11    1      0.14      0.00
   -6   11    1      0.29      0.00
   -5   11    1     -0.39      0.00
   -4   11    1      0.73      0.00
   -3   11    1      0.59      0.00
   -2   11    1     -0.91      0.00
   -1   11    1      0.11      0.00
    0   11    1     -0.52      0.00
    1   11    1      0.14      0.00
    2   11    1     -0.04      0.00
    3   11    1     -0.25      0.00
    4   11    1     -0.43      0.00
    5   11    1     -0.91      0.00
    6   11    1      0.41      0.00
    7   11    1      0.19      0.00
    8   11    1     -0.11      0.00
    9   11    1     -0.29      0.00
   10   11    1      0.06      0.00
   11   11    1      0.00      0.00
  -18   12    1      0.00      0.00
  -17   12    1     -0.37      0.00
  -16   12    1     -0.97      0.00
  -15   12    1      0.25      0.00
  -14   12    1      0.98      0.00
  -13   12    1     -0.98      0.00
  -12   12    1      0.43      0.00
  -11   12    1     -0.28      0.00
  -10   12    1      0.09      0.00
   -9   12    1      0.06      0.00
   -8   12    1      0.27      0.00
   -7   12    1     -0.08      0.00
   -6   12    1      0.39      0.00
   -5   12    1     -0.23      0.00
   -4   12    1      0.18      0.00
   -3   12    1      0.00      0.00
   -2   12    1     -0.39      0.00
   -1   12    1     -0.15      0.00
    0   12    1     -0.61      0.00
    1   12    1      0.48      0.00
    2   12    1     -0.25      0.00
    3   12    1      0.01      0.00
    4   12    1     -0.20      0.00
    5   12    1     -1.02      0.00
    6   12    1      0.24      0.00
    7   12    1     -0.71      0.00
    8   12    1      0.56      0.00
    9   12    1     -0.56      0.00
   10   12    1      0.45      0.00
  -17   13    1      0.66      0.00
  -16   13    1     -0.44      0.00
  -15   13    1     -0.70      0.00
  -14   13    1      1.14      0.00
  -13   13    1      0.08      0.00
  -12   13    1      0.15      0.00
  -11   13    1     -0.46      0.00
  -10   13    1      0.38      0.00
   -9   13    1     -0.12      0.00
   -8   13    1      0.12      0.00
   -7   13    1     -0.41      0.00
   -6   13    1      0.23      0.00
   -5   13    1     -0.62      0.00
   -4   13    1      1.14      0.00
   -3   13    1     -0.34      0.00
   -2   13    1     -0.44      0.00
   -1   13    1      0.74      0.00
    0   13    1     -1.47      0.00
    1   13    1      0.43      0.00
    2   13    1     -0.14      0.00
    3   13    1      0.04      0.00
    4   13    1      0.27      0.00
    5   13    1     -0.36      0.00
    6   13    1      0.74      0.00
    7   13    1      0.56      0.00
    8   13    1     -0.17      0.00
    9   13    1     -0.24      0.00
  -17   14    1      0.70      0.00
  -16   14    1     -0.03      0.00
  -15   14    1     -0.33      0.00
  -14   14    1      0.97      0.00
  -13   14    1      0.21      0.00
  -12   14    1     -0.88      0.00
  -11   14    1     -0.10      0.00
  -10   14    1     -0.04      0.00
   -9   14    1     -0.19      0.00
   -8   14    1      0.96      0.00
   -7   14    1      0.22      0.00
   -6   14    1     -0.68      0.00
   -5   14    1      0.54      0.00
   -3   14    1      0.82      0.00
   -2   14    1     -0.28      0.00
   -1   14    1      0.11      0.00
    0   14    1      0.59      0.00
    1   14    1      0.04      0.00
    2   14    1      1.37      0.00
    3   14    1      0.29      0.00
    4   14    1      0.79      0.00
    5   14    1     -1.37      0.00
    6   14    1      0.79      0.00
    7   14    1     -0.36      0.00
    8   14    1      0.44      0.00
  -16   15    1      0.02      0.00
  -15   15    1     -0.64      0.00
  -14   15    1      0.55      0.00
  -13   15    1      0.97      0.00
  -12   15    1     -0.52      0.00
  -11   15    1     -0.83      0.00
  -10   15    1      0.74      0.00
   -9   15    1     -1.17      0.00
   -8   15    1      1.20      0.00
   -7   15    1     -1.20      0.00
   -6   15    1      0.93      0.00
   -4   15    1      0.52      0.00
   -3   15    1      0.57      0.00
   -2   15    1      0.68      0.00
   -1   15    1      0.36      0.00
    0   15    1     -0.94      0.00
    1   15    1     -1.26      0.00
    2   15    1      0.20      0.00
    3   15    1      0.31      0.00
    4   15    1      0.39      0.00
    5   15    1      0.38      0.00
    6   15    1     -0.05      0.00
    7   15    1      1.30      0.00
  -15   16    1      0.38      0.00
  -14   16    1     -0.14      0.00
  -13   16    1      0.73      0.00
  -12   16    1     -0.49      0.00
  -11   16    1     -1.31      0.00
  -10   16    1     -0.44      0.00
   -9   16    1     -1.10      0.00
   -8   16    1      0.81      0.00
   -7   16    1     -0.81      0.00
   -6   16    1      0.06      0.00
   -5   16    1      1.09      0.00
   -4   16    1     -0.39      0.00
   -3   16    1     -0.46      0.00
   -2   16    1     -0.65      0.00
   -1   16    1     -0.06      0.00
    0   16    1      0.59      0.00
    1   16    1     -0.92      0.00
    2   16    1      1.72      0.00
    3   16    1     -0.11      0.00
    4   16    1     -1.04      0.00
    5   16    1     -0.05      0.00
  -14   17    1      0.99      0.00
  -13   17    1     -0.41      0.00
  -12   17    1      0.33      0.00
  -11   17    1     -0.82      0.00
  -10   17    1     -0.46      0.00
   -9   17    1     -0.69      0.00
   -8   17    1      1.13      0.00
   -6   17    1      0.46      0.00
   -5   17    1     -1.01      0.00
   -4   17    1      0.38      0.00
   -3   17    1      0.85      0.00
   -2   17    1      0.51      0.00
   -1   17    1      0.34      0.00
    0   17    1     -0.64      0.00
    1   17    1     -1.64      0.00
    2   17    1      0.05      0.00
    3   17    1      1.00      0.00
  -12   18    1     -0.55      0.00
  -11   18    1     -0.09      0.00
  -10   18    1     -0.80      0.00
   -9   18    1     -0.71      0.00
   -8   18    1      0.17      0.00
   -7   18    1      0.85      0.00
   -6   18    1      0.66      0.00
   -5   18    1      0.54      0.00
   -4   18    1     -0.60      0.00
   -3   18    1     -0.98      0.00
   -2   18    1     -0.38      0.00
   -1   18    1     -0.46      0.00
    0   18    1      0.76      0.00
    1   18    1      0.13      0.00
  -10   19    1     -0.13      0.00
   -9   19    1      0.82      0.00
   -8   19    1     -0.45      0.00
   -7   19    1      0.39      0.00
   -6   19    1     -0.32      0.00
   -5   19    1      0.74      0.00
   -4   19    1     -0.78      0.00
   -3   19    1      1.80      0.00
   -2   19    1      0.35      0.00
    1  -20    2      0.15      0.00
    2  -20    2      0.18      0.00
    3  -20    2      0.15      0.00
    4  -20    2      0.92      0.00
    5  -20    2     -1.84      0.00
    6  -20    2      0.06      0.00
    7  -20    2      0.68      0.00
    8  -20    2     -0.43      0.00
    9  -20    2      0.30      0.00
   10  -20    2      0.14      0.00
   -2  -19    2     -0.04      0.00
   -1  -19    2     -1.47      0.00
    0  -19    2      1.15      0.00
    1  -19    2      0.10      0.00
    2  -19    2     -0.86      0.00
    3  -19    2     -0.51      0.00
    4  -19    2      0.43      0.00
    5  -19    2     -0.55      0.00
    6  -19    2     -0.92      0.00
    7  -19    2      0.22      0.00
    8  -19    2     -0.14      0.00
    9  -19    2     -0.14      0.00
   10  -19    2      0.45      0.00
   11  -19    2      0.07      0.00
   12  -19    2     -0.26      0.00
   -3  -18    2     -0.43      0.00
   -2  -18    2      0.02      0.00
   -1  -18    2     -0.87      0.00
    0  -18    2      0.55      0.00
    1  -18    2      1.91      0.00
    2  -18    2     -0.33      0.00
    3  -18    2     -0.61      0.00
    4  -18    2      0.00      0.00
    5  -18    2      1.05      0.00
    6  -18    2     -1.86      0.00
    7  -18    2      0.93      0.00
    8  -18    2      0.20      0.00
    9  -18    2     -0.60      0.00
   10  -18    2     -0.05      0.00
   11  -18    2     -0.54      0.00
   12  -18    2      0.11      0.00
   13  -18    2     -0.46      0.00
   14  -18    2     -0.32      0.00
   -6  -17    2     -0.29      0.00
   -2  -17    2     -0.20      0.00
   -1  -17    2     -0.35      0.00
    1  -17    2      0.94      0.00
    2  -17    2     -0.51      0.00
    3  -17    2      0.04      0.00
    4  -17    2     -2.04      0.00
    5  -17    2      1.30      0.00
    6  -17    2     -1.48      0.00
    7  -17    2     -0.70      0.00
    8  -17    2      0.43      0.00
    9  -17    2     -0.18      0.00
   10  -17    2     -0.41      0.00
   11  -17    2     -0.03      0.00
   12  -17    2     -0.20      0.00
   13  -17    2      0.75      0.00
   14  -17    2      0.09      0.00
   15  -17    2      0.00      0.00
   -7  -16    2      0.68      0.00
   -6  -16    2      0.99      0.00
   -4  -16    2      0.79      0.00
   -3  -16    2     -0.43      0.00
   -2  -16    2      0.78      0.00
   -1  -16    2      0.07      0.00
    0  -16    2      0.61      0.00
    1  -16    2      1.59      0.00
    2  -16    2     -0.60      0.00
    3  -16    2      0.65      0.00
    4  -16    2     -1.08      0.00
    5  -16    2      1.45      0.00
    6  -16    2     -0.74      0.00
    7  -16    2      1.03      0.00
    8  -16    2      0.90      0.00
    9  -16    2      0.61      0.00
   10  -16    2     -0.29      0.00
   11  -16    2      0.24      0.00
   12  -16    2     -0.26      0.00
   13  -16    2      0.43      0.00
   14  -16    2     -0.72      0.00
   15  -16    2     -0.17      0.00
   -9  -15    2      0.60      0.00
   -8  -15    2      0.08      0.00
   -7  -15    2      0.39      0.00
   -6  -15    2     -0.63      0.00
   -5  -15    2      0.61      0.00
   -4  -15    2      0.12      0.00
   -3  -15    2     -0.28      0.00
   -2  -15    2      0.00      0.00
   -1  -15    2      0.63      0.00
    0  -15    2     -1.32      0.00
    1  -15    2      0.21      0.00
    2  -15    2     -0.30      0.00
    3  -15    2     -0.55      0.00
    5  -15    2      1.91      0.00
    6  -15    2      0.05      0.00
    7  -15    2     -0.80      0.00
    8  -15    2      0.40      0.00
    9  -15    2      0.41      0.00
   10  -15    2     -0.59      0.00
   11  -15    2      0.35      0.00
   12  -15    2     -0.67      0.00
   13  -15    2      1.11      0.00
   14  -15    2     -0.33      0.00
   15  -15    2     -0.09      0.00
   16  -15    2      0.10      0.00
  -10  -14    2     -0.55      0.00
   -9  -14    2      0.12      0.00
   -8  -14    2      0.20      0.00
   -7  -14    2      0.47      0.00
   -6  -14    2     -0.36      0.00
   -5  -14    2     -0.71      0.00
   -4  -14    2     -0.26      0.00
   -3  -14    2      0.31      0.00
   -2  -14    2     -0.58      0.00
   -1  -14    2      0.37      0.00
    0  -14    2      0.32      0.00
    1  -14    2     -0.80      0.00
    2  -14    2     -0.38      0.00
    4  -14    2     -0.06      0.00
    5  -14    2     -0.18      0.00
    6  -14    2      1.24      0.00
    7  -14    2     -0.25      0.00
    8  -14    2      0.37      0.00
    9  -14    2      0.21      0.00
   10  -14    2     -0.09      0.00
   11  -14    2      0.70      0.00
   12  -14    2     -0.52      0.00
   13  -14    2      0.76      0.00
   14  -14    2     -0.54      0.00
   15  -14    2     -1.11      0.00
   16  -14    2     -0.08      0.00
   17  -14    2      0.09      0.00
  -11  -13    2      0.24      0.00
  -10  -13    2     -0.87      0.00
   -9  -13    2      0.25      0.00
   -8  -13    2      0.12      0.00
   -7  -13    2     -0.56      0.00
   -6  -13    2      0.18      0.00
   -5  -13    2     -0.93      0.00
   -4  -13    2     -0.20      0.00
   -3  -13    2     -0.59      0.00
   -2  -13    2      0.42      0.00
   -1  -13    2     -0.08      0.00
    0  -13    2     -0.16      0.00
    1  -13    2     -0.18      0.00
    2  -13    2      0.53      0.00
    3  -13    2     -2.11      0.00
    4  -13    2      2.25      0.00
    5  -13    2      0.61      0.00
    6  -13    2      0.25      0.00
    7  -13    2      0.17      0.00
    8  -13    2     -0.27      0.00
    9  -13    2     -0.24      0.00
   10  -13    2      0.23      0.00
   11  -13    2      0.20      0.00
   12  -13    2      0.01      0.00
   13  -13    2     -0.33      0.00
   14  -13    2      1.41      0.00
   15  -13    2     -1.27      0.00
   16  -13    2      0.03      0.00
   17  -13    2      0.28      0.00
  -12  -12    2      0.56      0.00
  -11  -12    2      0.17      0.00
  -10  -12    2     -0.21      0.00
   -9  -12    2      0.19      0.00
   -8  -12    2      0.90      0.00
   -7  -12    2      0.17      0.00
   -6  -12    2      0.02      0.00
   -5  -12    2      0.02      0.00
   -4  -12    2      0.83      0.00
   -3  -12    2     -0.58      0.00
   -2  -12    2      0.10      0.00
   -1  -12    2      0.55      0.00
    0  -12    2     -0.30      0.00
    1  -12    2     -0.85      0.00
    2  -12    2      1.35      0.00
    3  -12    2     -1.04      0.00
    4  -12    2     -0.07      0.00
    5  -12    2      1.06      0.00
    6  -12    2     -0.70      0.00
    7  -12    2      0.09      0.00
    8  -12    2     -0.83      0.00
    9  -12    2     -0.39      0.00
   10  -12    2      0.16      0.00
   11  -12    2     -0.29      0.00
   12  -12    2      1.05      0.00
   13  -12    2     -1.03      0.00
   14  -12    2     -0.06      0.00
   15  -12    2     -0.03      0.00
   16  -12    2     -0.26      0.00
   17  -12    2     -0.19      0.00
   18  -12    2      0.68      0.00
  -13  -11    2      0.38      0.00
  -12  -11    2     -0.05      0.00
  -11  -11    2      0.01      0.00
  -10  -11    2     -0.30      0.00
   -9  -11    2     -0.04      0.00
   -8  -11    2      0.14      0.00
   -7  -11    2      0.59      0.00
   -6  -11    2     -0.26      0.00
   -5  -11    2     -1.27      0.00
   -4  -11    2      0.62      0.00
   -3  -11    2     -0.77      0.00
   -2  -11    2      0.16      0.00
   -1  -11    2      0.23      0.00
    0  -11    2     -0.61      0.00
    1  -11    2     -0.54      0.00
    2  -11    2      0.79      0.00
    3  -11    2     -1.01      0.00
    4  -11    2      0.01      0.00
    5  -11    2      0.91      0.00
    6  -11    2     -0.97      0.00
    7  -11    2      0.08      0.00
    8  -11    2     -0.35      0.00
    9  -11    2     -0.94      0.00
   10  -11    2      1.40      0.00
   11  -11    2     -0.66      0.00
   12  -11    2      0.31      0.00
   13  -11    2      0.71      0.00
   14  -11    2     -0.33      0.00
   15  -11    2     -0.01      0.00
   16  -11    2      0.30      0.00
   17  -11    2      0.02      0.00
   18  -11    2      1.24      0.00
  -13  -10    2     -0.19      0.00
  -12  -10    2     -0.26      0.00
  -11  -10    2      0.10      0.00
  -10  -10    2     -0.56      0.00
   -9  -10    2      0.60      0.00
   -8  -10    2     -0.36      0.00
   -7  -10    2      0.24      0.00
   -6  -10    2      0.06      0.00
   -5  -10    2     -0.05      0.00
   -4  -10    2      0.92      0.00
   -3  -10    2     -1.17      0.00
   -2  -10    2      0.89      0.00
   -1  -10    2      0.50      0.00
    0  -10    2      1.12      0.00
    1  -10    2     -0.41      0.00
    2  -10    2      0.78      0.00
    3  -10    2     -0.21      0.00
    4  -10    2     -1.20      0.00
    5  -10    2      1.85      0.00
    6  -10    2      0.32      0.00
    7  -10    2     -0.30      0.00
    8  -10    2     -0.20      0.00
    9  -10    2     -0.36      0.00
   10  -10    2     -0.90      0.00
   11  -10    2      0.71      0.00
   12  -10    2     -0.41      0.00
   13  -10    2     -0.32      0.00
   14  -10    2     -0.20      0.00
   15  -10    2     -0.20      0.00
   16  -10    2      0.16      0.00
   17  -10    2     -0.24      0.00
   18  -10    2     -0.52      0.00
  -14   -9    2      0.81      0.00
  -13   -9    2     -0.47      0.00
  -12   -9    2     -0.24      0.00
  -11   -9    2     -0.16      0.00
  -10   -9    2     -0.03      0.00
   -9   -9    2     -0.29      0.00
   -8   -9    2      1.17      0.00
   -7   -9    2     -0.19      0.00
   -6   -9    2      0.01      0.00
   -5   -9    2     -0.44      0.00
   -4   -9    2     -0.56      0.00
   -3   -9    2      1.07      0.00
   -2   -9    2      0.67      0.00
   -1   -9    2     -1.16      0.00
    0   -9    2      0.78      0.00
    1   -9    2     -0.52      0.00
    2   -9    2      0.31      0.00
    3   -9    2      1.13      0.00
    4   -9    2     -0.79      0.00
    5   -9    2      0.54      0.00
    6   -9    2      0.30      0.00
    7   -9    2     -1.11      0.00
    8   -9    2     -0.81      0.00
    9   -9    2      0.89      0.00
   10   -9    2     -0.38      0.00
   11   -9    2     -0.06      0.00
   12   -9    2      0.42      0.00
   13   -9    2     -0.26      0.00
   14   -9    2     -0.17      0.00
   15   -9    2     -0.23      0.00
   16   -9    2     -0.17      0.00
   17   -9    2      1.14      0.00
  -15   -8    2     -0.33      0.00
  -14   -8    2     -1.18      0.00
  -13   -8    2      0.84      0.00
  -12   -8    2     -0.68      0.00
  -11   -8    2      0.17      0.00
  -10   -8    2     -0.07      0.00
   -9   -8    2      0.10      0.00
   -8   -8    2      0.01      0.00
   -7   -8    2      0.29      0.00
   -6   -8    2     -0.17      0.00
   -5   -8    2      0.04      0.00
   -4   -8    2     -0.86      0.00
   -3   -8    2     -3.60      0.00
   -2   -8    2      2.52      0.00
   -1   -8    2     -1.53      0.00
    0   -8    2      2.78      0.00
    1   -8    2     -1.12      0.00
    2   -8    2     -1.51      0.00
    3   -8    2      0.52      0.00
    4   -8    2     -0.86      0.00
    5   -8    2     -0.53      0.00
    6   -8    2      1.17      0.00
    7   -8    2      0.13      0.00
    8   -8    2     -1.03      0.00
    9   -8    2      0.76      0.00
   10   -8    2     -0.07      0.00
   11   -8    2      0.08      0.00
   12   -8    2      0.22      0.00
   13   -8    2     -0.53      0.00
   14   -8    2     -0.25      0.00
   15   -8    2      0.55      0.00
   16   -8    2     -0.61      0.00
   18   -8    2      1.01      0.00
  -15   -7    2      0.15      0.00
  -14   -7    2     -0.76      0.00
  -13   -7    2      0.19      0.00
  -12   -7    2     -0.60      0.00
  -11   -7    2     -0.04      0.00
  -10   -7    2     -0.46      0.00
   -9   -7    2     -0.02      0.00
   -8   -7    2      0.86      0.00
   -7   -7    2     -1.02      0.00
   -6   -7    2      1.71      0.00
   -5   -7    2     -2.07      0.00
   -4   -7    2      0.38      0.00
   -3   -7    2      0.00      0.00
   -2   -7    2      0.11      0.00
   -1   -7    2     -1.58      0.00
    0   -7    2      1.36      0.00
    1   -7    2      3.07      0.00
    2   -7    2     -3.35      0.00
    3   -7    2      0.59      0.00
    4   -7    2      2.31      0.00
    5   -7    2     -1.43      0.00
    6   -7    2      0.49      0.00
    7   -7    2     -0.51      0.00
    8   -7    2     -0.06      0.00
    9   -7    2      0.35      0.00
   10   -7    2      0.03      0.00
   11   -7    2     -0.38      0.00
   12   -7    2      0.45      0.00
   13   -7    2     -0.39      0.00
   14   -7    2     -0.56      0.00
   15   -7    2     -0.06      0.00
   16   -7    2      0.83      0.00
   17   -7    2     -0.63      0.00
   18   -7    2      0.44      0.00
  -16   -6    2      0.60      0.00
  -15   -6    2     -0.45      0.00
  -14   -6    2     -0.06      0.00
  -13   -6    2      0.09      0.00
  -12   -6    2     -0.04      0.00
  -11   -6    2     -0.28      0.00
  -10   -6    2      0.17      0.00
   -9   -6    2     -0.03      0.00
   -8   -6    2      0.34      0.00
   -7   -6    2     -0.11      0.00
   -6   -6    2      1.32      0.00
   -5   -6    2      0.54      0.00
   -4   -6    2     -2.97      0.00
   -3   -6    2     -1.61      0.00
   -2   -6    2      1.19      0.00
   -1   -6    2      1.26      0.00
    0   -6    2     -1.73      0.00
    1   -6    2      2.55      0.00
    2   -6    2     -2.70      0.00
    3   -6    2     -2.18      0.00
    4   -6    2     -1.30      0.00
    5   -6    2     -2.45      0.00
    6   -6    2      0.45      0.00
    7   -6    2      0.33      0.00
    8   -6    2     -0.74      0.00
    9   -6    2      1.05      0.00
   10   -6    2      0.57      0.00
   11   -6    2     -0.76      0.00
   12   -6    2      0.52      0.00
   13   -6    2      0.08      0.00
   14   -6    2     -0.18      0.00
   16   -6    2      0.43      0.00
   17   -6    2      0.07      0.00
   18   -6    2      0.06      0.00
  -16   -5    2      1.18      0.00
  -15   -5    2     -0.81      0.00
  -14   -5    2     -0.17      0.00
  -13   -5    2     -0.18      0.00
  -12   -5    2     -0.22      0.00
  -11   -5    2      0.14      0.00
  -10   -5    2     -0.16      0.00
   -9   -5    2      0.49      0.00
   -8   -5    2     -0.94      0.00
   -7   -5    2      1.01      0.00
   -6   -5    2     -1.37      0.00
   -5   -5    2      1.01      0.00
   -4   -5    2     -3.81      0.00
   -3   -5    2     -1.36      0.00
   -2   -5    2     -3.65      0.00
   -1   -5    2     -4.82      0.00
    0   -5    2      1.06      0.00
    1   -5    2      1.17      0.00
    2   -5    2     -6.92      0.00
    3   -5    2      5.36      0.00
    4   -5    2      4.09      0.00
    5   -5    2     -3.42      0.00
    6   -5    2      1.46      0.00
    7   -5    2      0.79      0.00
    8   -5    2     -1.37      0.00
    9   -5    2      0.71      0.00
   10   -5    2      0.31      0.00
   11   -5    2     -0.89      0.00
   12   -5    2     -0.86      0.00
   14   -5    2     -0.61      0.00
   15   -5    2      0.20      0.00
   16   -5    2     -0.66      0.00
   17   -5    2      0.22      0.00
   18   -5    2     -0.32      0.00
  -17   -4    2     -0.66      0.00
  -16   -4    2      0.73      0.00
  -15   -4    2      0.19      0.00
  -14   -4    2     -0.35      0.00
  -13   -4    2      0.15      0.00
  -12   -4    2     -0.13      0.00
  -11   -4    2     -0.33      0.00
  -10   -4    2      0.46      0.00
   -9   -4    2      0.46      0.00
   -8   -4    2     -0.90      0.00
   -7   -4    2      1.85      0.00
   -6   -4    2     -0.04      0.00
   -5   -4    2     -0.59      0.00
   -4   -4    2     -0.59      0.00
   -3   -4    2     -7.34      0.00
   -2   -4    2      9.64      0.00
   -1   -4    2      1.39      0.00
    0   -4    2     -3.47      0.00
    4   -4    2      3.25      0.00
    5   -4    2     -4.05      0.00
    6   -4    2     -0.12      0.00
    7   -4    2      3.02      0.00
    8   -4    2     -1.25      0.00
    9   -4    2     -0.65      0.00
   10   -4    2      1.47      0.00
   11   -4    2     -0.94      0.00
   13   -4    2      0.56      0.00
   14   -4    2     -0.07      0.00
   15   -4    2      0.76      0.00
   16   -4    2      0.15      0.00
   17   -4    2     -0.32      0.00
   18   -4    2      0.56      0.00
  -17   -3    2     -0.28      0.00
  -16   -3    2     -0.04      0.00
  -15   -3    2      0.19      0.00
  -14   -3    2     -0.91      0.00
  -13   -3    2     -0.23      0.00
  -12   -3    2      0.34      0.00
  -11   -3    2     -0.07      0.00
  -10   -3    2      1.47      0.00
   -9   -3    2     -0.46      0.00
   -8   -3    2      0.21      0.00
   -7   -3    2      0.23      0.00
   -6   -3    2      1.23      0.00
   -5   -3    2     -5.00      0.00
   -4   -3    2      2.25      0.00
   -1   -3    2     13.44      0.00
    0   -3    2    -12.78      0.00
    1   -3    2    -11.01      0.00
    2   -3    2     11.82      0.00
    3   -3    2     -3.14      0.00
    4   -3    2      4.41      0.00
    5   -3    2     -0.71      0.00
    6   -3    2     -1.41      0.00
    7   -3    2      0.90      0.00
    8   -3    2      0.37      0.00
    9   -3    2     -0.31      0.00
   11   -3    2     -0.83      0.00
   12   -3    2     -0.55      0.00
   13   -3    2      0.23      0.00
   14   -3    2      0.44      0.00
   15   -3    2     -0.52      0.00
   16   -3    2      0.07      0.00
   17   -3    2     -0.42      0.00
   18   -3    2      0.14      0.00
  -18   -2    2      0.89      0.00
  -17   -2    2      0.01      0.00
  -16   -2    2     -0.23      0.00
  -15   -2    2      1.16      0.00
  -14   -2    2     -0.03      0.00
  -13   -2    2     -0.20      0.00
  -12   -2    2      0.20      0.00
  -11   -2    2     -0.88      0.00
   -9   -2    2      0.07      0.00
   -8   -2    2     -0.35      0.00
   -7   -2    2      1.47      0.00
   -6   -2    2      2.42      0.00
   -5   -2    2     -2.59      0.00
   -4   -2    2     -9.21      0.00
   -3   -2    2      9.20      0.00
   -2   -2    2      7.00      0.00
   -1   -2    2     -2.52      0.00
    0   -2    2     42.88      0.00
    1   -2    2    -13.20      0.00
    2   -2    2      3.57      0.00
    3   -2    2     -3.40      0.00
    4   -2    2      0.84      0.00
    5   -2    2      0.50      0.00
    6   -2    2      0.85      0.00
    8   -2    2     -1.24      0.00
    9   -2    2     -0.19      0.00
   10   -2    2      0.93      0.00
   11   -2    2     -0.02      0.00
   12   -2    2     -0.76      0.00
   13   -2    2     -0.32      0.00
   14   -2    2      1.19      0.00
   15   -2    2      0.53      0.00
   16   -2    2     -0.23      0.00
   17   -2    2     -0.32      0.00
   18   -2    2      0.16      0.00
  -18   -1    2      1.05      0.00
  -17   -1    2      0.07      0.00
  -16   -1    2     -0.45      0.00
  -15   -1    2      0.10      0.00
  -14   -1    2     -0.06      0.00
  -13   -1    2     -1.42      0.00
  -12   -1    2     -0.05      0.00
  -11   -1    2      0.74      0.00
  -10   -1    2      0.76      0.00
   -9   -1    2      1.00      0.00
   -8   -1    2      0.67      0.00
   -7   -1    2      2.13      0.00
   -6   -1    2     -0.20      0.00
   -5   -1    2      2.00      0.00
   -4   -1    2      4.26      0.00
   -3   -1    2     -0.92      0.00
   -2   -1    2      4.66      0.00
    1   -1    2      2.54      0.00
    2   -1    2     -3.49      0.00
    3   -1    2      2.21      0.00
    4   -1    2     -2.54      0.00
    5   -1    2      2.51      0.00
    6   -1    2     -2.89      0.00
    8   -1    2      1.21      0.00
    9   -1    2     -1.12      0.00
   10   -1    2      1.00      0.00
   11   -1    2      0.10      0.00
   12   -1    2     -0.83      0.00
   13   -1    2      0.18      0.00
   14   -1    2      0.11      0.00
   15   -1    2      0.42      0.00
   16   -1    2     -0.22      0.00
   17   -1    2      0.01      0.00
  -18    0    2      0.14      0.00
  -17    0    2      0.43      0.00
  -16    0    2     -1.03      0.00
  -14    0    2      0.46      0.00
  -13    0    2      0.17      0.00
  -12    0    2     -0.06      0.00
  -11    0    2     -0.01      0.00
  -10    0    2      0.27      0.00
   -9    0    2     -0.46      0.00
   -8    0    2     -0.82      0.00
   -7    0    2      3.31      0.00
   -6    0    2      2.18      0.00
   -4    0    2     -5.26      0.00
   -2    0    2    -12.51      0.00
    0    0    2     15.03      0.00
    1    0    2    -12.22      0.00
    2    0    2     -1.30      0.00
    3    0    2      0.11      0.00
    4    0    2     -1.54      0.00
    5    0    2      2.10      0.00
    6    0    2      0.84      0.00
    7    0    2      0.20      0.00
    8    0    2      0.96      0.00
    9    0    2     -0.73      0.00
   10    0    2      0.23      0.00
   11    0    2      0.47      0.00
   13    0    2     -0.77      0.00
   14    0    2      1.00      0.00
   15    0    2     -0.35      0.00
   16    0    2      0.73      0.00
   17    0    2      0.07      0.00
  -19    1    2     -0.48      0.00
  -18    1    2      0.58      0.00
  -17    1    2      0.64      0.00
  -16    1    2     -0.28      0.00
  -15    1    2      0.28      0.00
  -14    1    2      0.24      0.00
  -13    1    2     -0.95      0.00
  -12    1    2     -1.32      0.00
  -11    1    2      0.19      0.00
  -10    1    2      0.42      0.00
   -9    1    2      1.03      0.00
   -7    1    2     -0.57      0.00
   -6    1    2      5.18      0.00
   -5    1    2     -2.59      0.00
   -4    1    2     -1.62      0.00
   -3    1    2     11.85      0.00
   -2    1    2    -13.90      0.00
   -1    1    2      7.50      0.00
    0    1    2     -4.33      0.00
    1    1    2      1.40      0.00
    2    1    2    -11.22      0.00
    3    1    2     -1.03      0.00
    5    1    2     -0.62      0.00
    6    1    2      0.36      0.00
    7    1    2     -0.10      0.00
    8    1    2      1.14      0.00
    9    1    2     -0.88      0.00
   10    1    2     -0.27      0.00
   11    1    2      0.16      0.00
   12    1    2      0.16      0.00
   13    1    2     -0.22      0.00
   14    1    2      1.11      0.00
   15    1    2     -0.19      0.00
   16    1    2      0.81      0.00
   17    1    2     -0.19      0.00
  -19    2    2      0.37      0.00
  -18    2    2      0.02      0.00
  -17    2    2      0.08      0.00
  -16    2    2     -0.23      0.00
  -15    2    2     -0.82      0.00
  -14    2    2      0.16      0.00
  -13    2    2      0.50      0.00
  -12    2    2      0.11      0.00
  -10    2    2      0.14      0.00
   -9    2    2      0.55      0.00
   -8    2    2     -0.40      0.00
   -7    2    2      1.73      0.00
   -6    2    2      0.21      0.00
   -5    2    2     -4.39      0.00
   -3    2    2      2.97      0.00
   -2    2    2    -11.30      0.00
    0    2    2     -1.07      0.00
    1    2    2     -6.65      0.00
    2    2    2     -2.09      0.00
    3    2    2     -0.12      0.00
    4    2    2      0.13      0.00
    5    2    2      0.36      0.00
    6    2    2      0.86      0.00
    7    2    2      0.08      0.00
    8    2    2      0.28      0.00
    9    2    2      0.54      0.00
   10    2    2      0.19      0.00
   11    2    2      0.14      0.00
   12    2    2     -0.52      0.00
   13    2    2     -0.31      0.00
   14    2    2      0.19      0.00
   15    2    2     -0.27      0.00
   16    2    2      0.21      0.00
  -19    3    2      0.46      0.00
  -18    3    2     -0.10      0.00
  -17    3    2      0.34      0.00
  -16    3    2      0.07      0.00
  -15    3    2      0.33      0.00
  -14    3    2      0.54      0.00
  -13    3    2     -0.12      0.00
  -11    3    2      0.21      0.00
  -10    3    2     -0.23      0.00
   -9    3    2      0.46      0.00
   -8    3    2      0.08      0.00
   -7    3    2     -0.06      0.00
   -6    3    2      1.05      0.00
   -5    3    2      1.72      0.00
   -4    3    2     -3.11      0.00
   -3    3    2      1.15      0.00
   -2    3    2     -2.52      0.00
   -1    3    2      6.20      0.00
    0    3    2      7.93      0.00
    1    3    2      1.95      0.00
    2    3    2     -4.08      0.00
    3    3    2      0.17      0.00
    4    3    2     -1.76      0.00
    5    3    2     -0.20      0.00
    6    3    2      1.25      0.00
    7    3    2      0.20      0.00
    8    3    2      0.05      0.00
    9    3    2     -0.66      0.00
   10    3    2     -0.55      0.00
   11    3    2     -0.08      0.00
   12    3    2      0.07      0.00
   13    3    2     -0.10      0.00
   14    3    2      0.26      0.00
   15    3    2      0.19      0.00
   16    3    2      0.11      0.00
  -19    4    2      0.38      0.00
  -18    4    2      0.01      0.00
  -17    4    2     -0.46      0.00
  -16    4    2      0.05      0.00
  -15    4    2     -2.25      0.00
  -13    4    2      0.32      0.00
  -12    4    2      0.03      0.00
  -11    4    2      0.28      0.00
  -10    4    2      1.69      0.00
   -9    4    2     -0.68      0.00
   -8    4    2      2.24      0.00
   -7    4    2      0.52      0.00
   -6    4    2     -0.43      0.00
   -5    4    2      0.10      0.00
   -4    4    2     -5.94      0.00
   -3    4    2      0.35      0.00
   -2    4    2      0.57      0.00
   -1    4    2      0.33      0.00
    0    4    2     -0.27      0.00
    1    4    2     -1.18      0.00
    2    4    2     -1.39      0.00
    3    4    2      0.38      0.00
    4    4    2      0.85      0.00
    5    4    2     -0.21      0.00
    6    4    2      1.47      0.00
    7    4    2     -0.69      0.00
    8    4    2      0.30      0.00
    9    4    2      0.14      0.00
   10    4    2      0.06      0.00
   11    4    2     -0.36      0.00
   12    4    2      0.39      0.00
   13    4    2     -0.30      0.00
   14    4    2     -0.15      0.00
   15    4    2     -0.23      0.00
  -19    5    2      0.75      0.00
  -18    5    2     -0.05      0.00
  -17    5    2     -0.17      0.00
  -16    5    2      0.85      0.00
  -14    5    2      0.17      0.00
  -13    5    2      0.70      0.00
  -12    5    2     -0.27      0.00
  -11    5    2     -0.55      0.00
  -10    5    2      0.80      0.00
   -9    5    2     -0.63      0.00
   -8    5    2     -0.36      0.00
   -7    5    2      1.20      0.00
   -6    5    2     -2.72      0.00
   -5    5    2      3.66      0.00
   -4    5    2     -4.68      0.00
   -3    5    2     -0.19      0.00
   -2    5    2      1.76      0.00
    0    5    2      5.00      0.00
    1    5    2      0.09      0.00
    2    5    2      1.41      0.00
    3    5    2     -0.03      0.00
    4    5    2     -0.82      0.00
    5    5    2     -0.13      0.00
    6    5    2      1.34      0.00
    7    5    2     -0.24      0.00
    8    5    2     -0.67      0.00
    9    5    2      0.36      0.00
   10    5    2     -0.69      0.00
   11    5    2      0.16      0.00
   12    5    2     -0.74      0.00
   13    5    2      0.06      0.00
   14    5    2     -0.34      0.00
   15    5    2      0.09      0.00
  -19    6    2      0.74      0.00
  -18    6    2      0.29      0.00
  -17    6    2     -0.56      0.00
  -16    6    2     -0.10      0.00
  -15    6    2     -0.67      0.00
  -14    6    2     -0.44      0.00
  -13    6    2      0.13      0.00
  -12    6    2      0.56      0.00
  -11    6    2     -0.88      0.00
  -10    6    2      1.06      0.00
   -9    6    2      0.50      0.00
   -8    6    2      0.04      0.00
   -7    6    2      0.73      0.00
   -6    6    2     -0.31      0.00
   -5    6    2      1.20      0.00
   -4    6    2      0.51      0.00
   -3    6    2     -0.05      0.00
   -2    6    2      3.22      0.00
   -1    6    2     -2.25      0.00
    0    6    2      2.73      0.00
    1    6    2     -4.23      0.00
    2    6    2     -0.84      0.00
    3    6    2      0.85      0.00
    4    6    2     -0.03      0.00
    5    6    2      0.30      0.00
    6    6    2      0.41      0.00
    7    6    2      0.01      0.00
    8    6    2     -0.62      0.00
    9    6    2      0.10      0.00
   10    6    2     -0.30      0.00
   11    6    2      0.07      0.00
   12    6    2     -0.30      0.00
   13    6    2     -0.31      0.00
   14    6    2      0.30      0.00
  -19    7    2      0.53      0.00
  -18    7    2      0.75      0.00
  -17    7    2      0.24      0.00
  -16    7    2     -0.18      0.00
  -15    7    2      0.38      0.00
  -14    7    2     -0.56      0.00
  -13    7    2     -0.32      0.00
  -12    7    2      0.60      0.00
  -11    7    2      0.16      0.00
  -10    7    2     -0.29      0.00
   -9    7    2      1.21      0.00
   -8    7    2     -1.24      0.00
   -7    7    2      0.07      0.00
   -6    7    2      0.13      0.00
   -5    7    2     -0.27      0.00
   -4    7    2     -0.02      0.00
   -3    7    2     -1.74      0.00
   -2    7    2      2.02      0.00
   -1    7    2      0.21      0.00
    0    7    2      0.92      0.00
    1    7    2     -0.81      0.00
    2    7    2      0.05      0.00
    3    7    2     -0.17      0.00
    4    7    2     -0.29      0.00
    5    7    2     -0.08      0.00
    6    7    2      0.38      0.00
    7    7    2     -0.13      0.00
    8    7    2     -0.17      0.00
    9    7    2      0.52      0.00
   10    7    2     -0.65      0.00
   11    7    2      0.41      0.00
   12    7    2     -0.46      0.00
   13    7    2     -0.25      0.00
   14    7    2     -0.19      0.00
  -19    8    2     -0.91      0.00
  -18    8    2      0.99      0.00
  -17    8    2      0.28      0.00
  -16    8    2     -0.52      0.00
  -15    8    2     -0.15      0.00
  -14    8    2     -0.06      0.00
  -13    8    2     -0.26      0.00
  -12    8    2     -0.02      0.00
  -11    8    2      0.28      0.00
  -10    8    2     -0.39      0.00
   -9    8    2      1.18      0.00
   -8    8    2     -0.60      0.00
   -7    8    2     -0.79      0.00
   -6    8    2      0.59      0.00
   -5    8    2      0.32      0.00
   -4    8    2      0.21      0.00
   -3    8    2     -0.05      0.00
   -2    8    2      0.38      0.00
   -1    8    2      0.52      0.00
    0    8    2      0.05      0.00
    2    8    2     -0.56      0.00
    3    8    2      0.37      0.00
    4    8    2      0.35      0.00
    5    8    2      0.26      0.00
    6    8    2      0.08      0.00
    7    8    2      0.06      0.00
    8    8    2     -0.32      0.00
    9    8    2      0.24      0.00
   10    8    2      0.33      0.00
   11    8    2     -0.07      0.00
   12    8    2      0.09      0.00
   13    8    2     -0.13      0.00
  -19    9    2     -0.25      0.00
  -18    9    2      0.51      0.00
  -17    9    2      0.99      0.00
  -16    9    2     -0.10      0.00
  -15    9    2     -0.02      0.00
  -14    9    2     -0.98      0.00
  -13    9    2     -0.36      0.00
  -12    9    2      0.45      0.00
  -11    9    2      0.28      0.00
  -10    9    2      0.10      0.00
   -9    9    2     -0.07      0.00
   -8    9    2     -0.11      0.00
   -7    9    2     -0.76      0.00
   -6    9    2     -0.04      0.00
   -5    9    2      0.46      0.00
   -4    9    2      0.12      0.00
   -3    9    2     -1.03      0.00
   -2    9    2      1.32      0.00
   -1    9    2     -0.42      0.00
    0    9    2     -0.82      0.00
    1    9    2      0.29      0.00
    2    9    2     -1.03      0.00
    3    9    2     -0.71      0.00
    4    9    2      0.07      0.00
    5    9    2     -0.36      0.00
    6    9    2     -0.04      0.00
    7    9    2      0.03      0.00
    8    9    2      0.70      0.00
    9    9    2     -0.11      0.00
   10    9    2      0.58      0.00
   11    9    2      0.37      0.00
   12    9    2      0.40      0.00
  -18   10    2      0.23      0.00
  -17   10    2      0.64      0.00
  -16   10    2     -0.40      0.00
  -15   10    2     -0.04      0.00
  -14   10    2      0.38      0.00
  -13   10    2     -0.77      0.00
  -12   10    2     -0.40      0.00
  -11   10    2      0.52      0.00
  -10   10    2      0.05      0.00
   -9   10    2     -0.02      0.00
   -8   10    2     -0.31      0.00
   -7   10    2     -0.50      0.00
   -6   10    2     -0.33      0.00
   -5   10    2      0.56      0.00
   -4   10    2     -0.29      0.00
   -3   10    2     -1.32      0.00
   -2   10    2      0.52      0.00
   -1   10    2     -0.08      0.00
    0   10    2     -0.71      0.00
    1   10    2     -1.13      0.00
    2   10    2      0.22      0.00
    3   10    2     -0.60      0.00
    4   10    2      0.15      0.00
    5   10    2      0.43      0.00
    6   10    2     -0.59      0.00
    7   10    2      0.02      0.00
    8   10    2      0.13      0.00
    9   10    2      0.81      0.00
   10   10    2      0.28      0.00
   11   10    2     -0.06      0.00
  -18   11    2      0.28      0.00
  -17   11    2      0.43      0.00
  -16   11    2      0.46      0.00
  -15   11    2     -1.07      0.00
  -14   11    2     -0.37      0.00
  -13   11    2      0.44      0.00
  -12   11    2     -0.22      0.00
  -11   11    2      0.22      0.00
  -10   11    2     -0.14      0.00
   -9   11    2     -0.07      0.00
   -8   11    2      0.25      0.00
   -7   11    2     -0.59      0.00
   -6   11    2      0.14      0.00
   -5   11    2     -0.04      0.00
   -4   11    2      0.00      0.00
   -3   11    2     -0.21      0.00
   -2   11    2     -0.07      0.00
   -1   11    2     -0.37      0.00
    0   11    2     -0.06      0.00
    1   11    2     -0.69      0.00
    2   11    2      0.05      0.00
    3   11    2     -0.41      0.00
    4   11    2     -0.25      0.00
    5   11    2     -0.01      0.00
    6   11    2     -0.49      0.00
    7   11    2      0.29      0.00
    8   11    2     -0.43      0.00
    9   11    2     -0.05      0.00
   10   11    2     -0.04      0.00
  -18   12    2     -0.62      0.00
  -17   12    2      0.35      0.00
  -16   12    2      0.22      0.00
  -15   12    2      0.39      0.00
  -14   12    2     -0.49      0.00
  -13   12    2     -0.15      0.00
  -12   12    2     -0.34      0.00
  -11   12    2      0.43      0.00
  -10   12    2      0.09      0.00
   -9   12    2     -0.13      0.00
   -8   12    2      0.84      0.00
   -7   12    2     -0.14      0.00
   -6   12    2      0.18      0.00
   -5   12    2      0.22      0.00
   -4   12    2     -1.42      0.00
   -3   12    2      0.46      0.00
   -2   12    2      0.36      0.00
   -1   12    2     -0.46      0.00
    0   12    2      1.06      0.00
    1   12    2     -1.24      0.00
    2   12    2      0.64      0.00
    3   12    2     -0.12      0.00
    4   12    2      0.30      0.00
    5   12    2      0.19      0.00
    6   12    2     -0.87      0.00
    7   12    2     -0.18      0.00
    8   12    2      0.28      0.00
    9   12    2      0.17      0.00
  -17   13    2      0.13      0.00
  -16   13    2      0.29      0.00
  -15   13    2     -0.18      0.00
  -14   13    2     -0.34      0.00
  -13   13    2     -0.01      0.00
  -12   13    2      0.92      0.00
  -11   13    2     -0.21      0.00
  -10   13    2      0.32      0.00
   -9   13    2      0.27      0.00
   -8   13    2      0.33      0.00
   -7   13    2     -0.36      0.00
   -6   13    2      0.60      0.00
   -5   13    2     -0.69      0.00
   -4   13    2     -0.28      0.00
   -3   13    2     -0.16      0.00
   -2   13    2      0.41      0.00
   -1   13    2     -0.09      0.00
    0   13    2      0.34      0.00
    1   13    2     -0.44      0.00
    2   13    2     -0.04      0.00
    3   13    2      0.45      0.00
    4   13    2      0.20      0.00
    5   13    2      1.53      0.00
    6   13    2     -0.32      0.00
    7   13    2      0.83      0.00
    8   13    2     -0.23      0.00
  -17   14    2      0.19      0.00
  -16   14    2      0.58      0.00
  -15   14    2     -0.41      0.00
  -14   14    2      0.19      0.00
  -13   14    2     -0.78      0.00
  -12   14    2      0.45      0.00
  -11   14    2      0.77      0.00
  -10   14    2     -1.02      0.00
   -9   14    2      0.47      0.00
   -8   14    2     -0.48      0.00
   -7   14    2      1.02      0.00
   -6   14    2     -1.39      0.00
   -5   14    2      0.87      0.00
   -4   14    2     -0.91      0.00
   -3   14    2      0.13      0.00
   -2   14    2     -0.02      0.00
   -1   14    2      0.28      0.00
    0   14    2      1.43      0.00
    1   14    2     -0.11      0.00
    2   14    2      0.71      0.00
    3   14    2     -0.10      0.00
    4   14    2      0.78      0.00
    5   14    2     -0.06      0.00
    6   14    2     -0.11      0.00
    7   14    2     -1.11      0.00
  -16   15    2      0.89      0.00
  -15   15    2     -1.61      0.00
  -14   15    2      0.06      0.00
  -13   15    2     -0.70      0.00
  -12   15    2      0.51      0.00
  -11   15    2      0.29      0.00
  -10   15    2      0.19      0.00
   -9   15    2     -0.12      0.00
   -8   15    2     -0.49      0.00
   -7   15    2      0.81      0.00
   -6   15    2     -0.11      0.00
   -5   15    2     -1.28      0.00
   -4   15    2      0.50      0.00
   -3   15    2      0.70      0.00
   -2   15    2      0.31      0.00
   -1   15    2      0.00      0.00
    1   15    2     -0.14      0.00
    2   15    2     -1.05      0.00
    3   15    2      0.39      0.00
    4   15    2      0.33      0.00
    5   15    2      0.60      0.00
    6   15    2      0.16      0.00
  -15   16    2     -0.97      0.00
  -14   16    2     -0.75      0.00
  -13   16    2      0.72      0.00
  -12   16    2     -0.13      0.00
  -11   16    2      0.39      0.00
  -10   16    2     -0.14      0.00
   -9   16    2     -0.40      0.00
   -8   16    2     -0.98      0.00
   -7   16    2      0.75      0.00
   -6   16    2     -0.96      0.00
   -5   16    2      0.93      0.00
   -4   16    2     -1.21      0.00
   -3   16    2     -0.68      0.00
   -2   16    2     -0.51      0.00
   -1   16    2     -0.18      0.00
    0   16    2      0.91      0.00
    1   16    2      1.12      0.00
    2   16    2     -0.86      0.00
    3   16    2     -0.57      0.00
    4   16    2      0.27      0.00
  -13   17    2      0.01      0.00
  -12   17    2      1.02      0.00
  -11   17    2     -0.37      0.00
  -10   17    2      0.80      0.00
   -9   17    2     -0.02      0.00
   -8   17    2      0.09      0.00
   -7   17    2     -0.49      0.00
   -6   17    2     -0.75      0.00
   -5   17    2     -0.87      0.00
   -4   17    2      0.92      0.00
   -3   17    2      0.75      0.00
   -2   17    2      0.25      0.00
   -1   17    2      0.12      0.00
    0   17    2     -0.43      0.00
    1   17    2      0.05      0.00
    2   17    2     -0.31      0.00
  -12   18    2      0.91      0.00
  -11   18    2      0.55      0.00
  -10   18    2      0.62      0.00
   -9   18    2     -0.93      0.00
   -8   18    2      1.33      0.00
   -6   18    2      0.66      0.00
   -5   18    2     -0.89      0.00
   -4   18    2      0.56      0.00
   -3   18    2     -1.45      0.00
   -2   18    2     -0.13      0.00
   -1   18    2      0.20      0.00
    0   18    2      1.50      0.00
   -9   19    2     -0.26      0.00
   -8   19    2      0.42      0.00
   -7   19    2     -1.39      0.00
   -6   19    2      0.44      0.00
   -5   19    2     -0.92      0.00
   -4   19    2      0.94      0.00
    4  -21    3     -1.01      0.00
    5  -21    3      2.60      0.00
    6  -21    3      0.40      0.00
    7  -21    3     -1.13      0.00
    0  -20    3     -0.98      0.00
    1  -20    3      0.42      0.00
    2  -20    3     -0.75      0.00
    3  -20    3      0.79      0.00
    4  -20    3     -1.16      0.00
    5  -20    3      0.39      0.00
    6  -20    3      1.29      0.00
    7  -20    3     -0.88      0.00
    8  -20    3     -0.03      0.00
    9  -20    3      0.36      0.00
   10  -20    3     -0.67      0.00
   -3  -19    3      0.74      0.00
   -2  -19    3      0.79      0.00
   -1  -19    3     -0.65      0.00
    0  -19    3     -1.63      0.00
    1  -19    3     -1.36      0.00
    2  -19    3     -0.69      0.00
    3  -19    3      0.47      0.00
    4  -19    3      0.16      0.00
    5  -19    3     -1.92      0.00
    6  -19    3      0.99      0.00
    7  -19    3     -2.16      0.00
    8  -19    3     -0.14      0.00
    9  -19    3      0.37      0.00
   10  -19    3      0.70      0.00
   11  -19    3     -0.86      0.00
   12  -19    3     -0.06      0.00
   -5  -18    3      1.32      0.00
   -3  -18    3      0.27      0.00
    0  -18    3     -0.09      0.00
    1  -18    3      0.51      0.00
    2  -18    3      0.13      0.00
    3  -18    3     -0.66      0.00
    4  -18    3      1.14      0.00
    5  -18    3     -1.04      0.00
    6  -18    3      1.16      0.00
    7  -18    3     -0.28      0.00
    8  -18    3     -0.15      0.00
    9  -18    3     -0.03      0.00
   10  -18    3      0.62      0.00
   11  -18    3     -0.77      0.00
   12  -18    3      0.03      0.00
   13  -18    3     -0.37      0.00
   14  -18    3     -0.25      0.00
   -6  -17    3     -0.96      0.00
   -5  -17    3      0.94      0.00
   -4  -17    3     -0.42      0.00
   -3  -17    3      1.09      0.00
   -2  -17    3     -0.18      0.00
   -1  -17    3      0.53      0.00
    2  -17    3      0.22      0.00
    3  -17    3      0.91      0.00
    4  -17    3      0.16      0.00
    5  -17    3     -1.89      0.00
    6  -17    3      0.77      0.00
    8  -17    3      0.33      0.00
    9  -17    3      0.05      0.00
   10  -17    3      0.89      0.00
   11  -17    3     -0.96      0.00
   12  -17    3     -0.46      0.00
   13  -17    3      0.60      0.00
   14  -17    3      0.33      0.00
   15  -17    3      0.02      0.00
   -8  -16    3      0.19      0.00
   -7  -16    3      0.52      0.00
   -6  -16    3      0.09      0.00
   -5  -16    3     -0.73      0.00
   -4  -16    3     -0.06      0.00
   -3  -16    3      0.07      0.00
   -2  -16    3      1.08      0.00
   -1  -16    3     -0.23      0.00
    0  -16    3      1.47      0.00
    1  -16    3      0.29      0.00
    2  -16    3     -0.80      0.00
    3  -16    3     -0.47      0.00
    5  -16    3     -1.46      0.00
    6  -16    3      0.97      0.00
    7  -16    3      0.92      0.00
    8  -16    3      0.15      0.00
    9  -16    3     -0.09      0.00
   10  -16    3      1.04      0.00
   11  -16    3     -0.28      0.00
   12  -16    3     -0.11      0.00
   13  -16    3     -0.37      0.00
   14  -16    3      1.29      0.00
   15  -16    3     -0.36      0.00
   -9  -15    3     -0.18      0.00
   -8  -15    3     -0.25      0.00
   -7  -15    3     -1.10      0.00
   -6  -15    3      0.05      0.00
   -5  -15    3     -0.09      0.00
   -4  -15    3      0.13      0.00
   -3  -15    3     -0.31      0.00
   -2  -15    3      0.74      0.00
   -1  -15    3     -0.70      0.00
    0  -15    3     -1.28      0.00
    1  -15    3      0.48      0.00
    2  -15    3     -0.02      0.00
    4  -15    3      0.16      0.00
    5  -15    3      1.59      0.00
    6  -15    3     -1.01      0.00
    7  -15    3      0.15      0.00
    8  -15    3      0.03      0.00
    9  -15    3      0.42      0.00
   10  -15    3      0.24      0.00
   11  -15    3     -0.46      0.00
   12  -15    3      0.18      0.00
   13  -15    3     -0.48      0.00
   14  -15    3      0.66      0.00
   15  -15    3      0.59      0.00
   16  -15    3     -0.21      0.00
  -10  -14    3      0.94      0.00
   -9  -14    3     -0.83      0.00
   -8  -14    3      0.34      0.00
   -7  -14    3      0.00      0.00
   -6  -14    3     -0.57      0.00
   -5  -14    3     -0.26      0.00
   -4  -14    3     -0.09      0.00
   -3  -14    3     -0.46      0.00
   -2  -14    3     -0.09      0.00
   -1  -14    3     -0.47      0.00
    0  -14    3      0.14      0.00
    1  -14    3      1.11      0.00
    2  -14    3     -1.10      0.00
    3  -14    3      1.63      0.00
    4  -14    3     -0.33      0.00
    5  -14    3     -0.29      0.00
    6  -14    3      0.46      0.00
    7  -14    3      0.11      0.00
    8  -14    3      0.15      0.00
    9  -14    3     -0.36      0.00
   10  -14    3      0.89      0.00
   11  -14    3     -0.74      0.00
   12  -14    3     -0.15      0.00
   13  -14    3      0.36      0.00
   14  -14    3     -0.44      0.00
   15  -14    3      0.73      0.00
   16  -14    3     -0.25      0.00
   17  -14    3     -0.54      0.00
  -11  -13    3     -0.10      0.00
  -10  -13    3      0.52      0.00
   -9  -13    3     -0.64      0.00
   -8  -13    3     -0.73      0.00
   -7  -13    3     -0.43      0.00
   -6  -13    3     -0.20      0.00
   -5  -13    3      0.18      0.00
   -4  -13    3     -0.38      0.00
   -3  -13    3     -0.13      0.00
   -2  -13    3     -0.14      0.00
   -1  -13    3     -0.24      0.00
    0  -13    3     -0.65      0.00
    1  -13    3      1.36      0.00
    2  -13    3      0.08      0.00
    4  -13    3      0.78      0.00
    5  -13    3     -0.23      0.00
    6  -13    3     -0.19      0.00
    7  -13    3     -0.34      0.00
    8  -13    3      1.02      0.00
    9  -13    3     -0.37      0.00
   10  -13    3      0.32      0.00
   11  -13    3      0.28      0.00
   12  -13    3     -0.99      0.00
   13  -13    3      0.91      0.00
   14  -13    3      0.11      0.00
   15  -13    3      0.21      0.00
   16  -13    3      0.33      0.00
   17  -13    3     -0.28      0.00
  -12  -12    3      0.38      0.00
  -11  -12    3      0.03      0.00
  -10  -12    3      0.42      0.00
   -9  -12    3     -0.04      0.00
   -8  -12    3      0.17      0.00
   -7  -12    3      0.13      0.00
   -6  -12    3     -0.33      0.00
   -5  -12    3      1.61      0.00
   -4  -12    3     -0.37      0.00
   -3  -12    3      0.67      0.00
   -2  -12    3     -0.42      0.00
   -1  -12    3      0.43      0.00
    0  -12    3      0.40      0.00
    1  -12    3      0.05      0.00
    2  -12    3      0.47      0.00
    3  -12    3      0.22      0.00
    4  -12    3     -1.21      0.00
    5  -12    3     -0.93      0.00
    6  -12    3      0.77      0.00
    7  -12    3     -0.82      0.00
    8  -12    3      0.39      0.00
    9  -12    3      0.50      0.00
   10  -12    3     -0.93      0.00
   11  -12    3      0.22      0.00
   12  -12    3     -0.72      0.00
   13  -12    3     -0.25      0.00
   14  -12    3      0.61      0.00
   15  -12    3      0.38      0.00
   16  -12    3      0.42      0.00
   17  -12    3     -0.56      0.00
  -13  -11    3      0.39      0.00
  -12  -11    3      0.31      0.00
  -11  -11    3     -0.23      0.00
  -10  -11    3      0.12      0.00
   -8  -11    3      0.13      0.00
   -7  -11    3     -0.18      0.00
   -6  -11    3      0.05      0.00
   -5  -11    3      0.13      0.00
   -4  -11    3     -0.28      0.00
   -3  -11    3      0.30      0.00
   -2  -11    3     -0.31      0.00
   -1  -11    3      0.32      0.00
    0  -11    3      0.29      0.00
    1  -11    3     -0.28      0.00
    2  -11    3     -0.27      0.00
    3  -11    3      0.23      0.00
    4  -11    3     -0.04      0.00
    5  -11    3     -2.04      0.00
    6  -11    3     -0.33      0.00
    7  -11    3      0.17      0.00
    8  -11    3     -0.10      0.00
    9  -11    3      0.21      0.00
   10  -11    3      0.54      0.00
   11  -11    3     -0.54      0.00
   12  -11    3     -0.05      0.00
   13  -11    3      0.60      0.00
   14  -11    3     -0.22      0.00
   15  -11    3      0.19      0.00
   16  -11    3      0.08      0.00
   17  -11    3      0.04      0.00
   18  -11    3      0.47      0.00
  -14  -10    3     -1.11      0.00
  -13  -10    3     -0.13      0.00
  -12  -10    3     -0.09      0.00
  -11  -10    3      0.21      0.00
  -10  -10    3     -0.39      0.00
   -9  -10    3      0.13      0.00
   -8  -10    3     -0.25      0.00
   -7  -10    3     -0.03      0.00
   -6  -10    3      0.28      0.00
   -5  -10    3      0.62      0.00
   -4  -10    3      0.63      0.00
   -3  -10    3     -0.70      0.00
   -2  -10    3      0.70      0.00
   -1  -10    3      1.59      0.00
    0  -10    3      0.75      0.00
    1  -10    3      0.38      0.00
    2  -10    3     -0.24      0.00
    3  -10    3     -0.96      0.00
    4  -10    3      0.42      0.00
    5  -10    3     -0.28      0.00
    6  -10    3      0.13      0.00
    7  -10    3      1.25      0.00
    8  -10    3      0.41      0.00
    9  -10    3     -0.57      0.00
   10  -10    3     -0.25      0.00
   11  -10    3      0.20      0.00
   12  -10    3     -1.08      0.00
   13  -10    3      0.68      0.00
   14  -10    3      0.36      0.00
   15  -10    3     -0.21      0.00
   16  -10    3      0.79      0.00
   17  -10    3     -1.45      0.00
  -14   -9    3      1.04      0.00
  -13   -9    3     -0.67      0.00
  -12   -9    3      0.72      0.00
  -11   -9    3     -0.46      0.00
  -10   -9    3      0.03      0.00
   -9   -9    3      0.05      0.00
   -8   -9    3      0.26      0.00
   -7   -9    3      0.23      0.00
   -6   -9    3      0.75      0.00
   -5   -9    3     -0.10      0.00
   -4   -9    3      1.34      0.00
   -3   -9    3      0.64      0.00
   -2   -9    3     -0.69      0.00
   -1   -9    3      1.63      0.00
    0   -9    3     -1.27      0.00
    1   -9    3      0.26      0.00
    2   -9    3      1.06      0.00
    3   -9    3     -0.19      0.00
    4   -9    3      0.06      0.00
    5   -9    3      0.74      0.00
    6   -9    3     -1.61      0.00
    7   -9    3      0.39      0.00
    8   -9    3      0.43      0.00
    9   -9    3      0.34      0.00
   10   -9    3     -0.37      0.00
   11   -9    3      0.33      0.00
   12   -9    3     -0.57      0.00
   13   -9    3      0.51      0.00
   14   -9    3      0.12      0.00
   15   -9    3     -0.95      0.00
   16   -9    3      0.48      0.00
   18   -9    3     -1.14      0.00
  -15   -8    3     -0.61      0.00
  -14   -8    3      0.69      0.00
  -13   -8    3     -0.53      0.00
  -12   -8    3      0.66      0.00
  -11   -8    3     -0.10      0.00
  -10   -8    3     -0.14      0.00
   -9   -8    3      0.06      0.00
   -8   -8    3     -0.80      0.00
   -7   -8    3      0.74      0.00
   -6   -8    3     -1.04      0.00
   -5   -8    3      0.88      0.00
   -4   -8    3      0.32      0.00
   -3   -8    3     -1.28      0.00
   -2   -8    3      0.03      0.00
   -1   -8    3      2.07      0.00
    0   -8    3     -0.74      0.00
    1   -8    3     -2.71      0.00
    2   -8    3      1.16      0.00
    3   -8    3     -0.87      0.00
    4   -8    3     -1.97      0.00
    5   -8    3      0.97      0.00
    6   -8    3     -0.30      0.00
    7   -8    3      0.89      0.00
    8   -8    3     -0.58      0.00
    9   -8    3      0.40      0.00
   10   -8    3      0.10      0.00
   11   -8    3      0.17      0.00
   12   -8    3     -0.38      0.00
   13   -8    3      0.88      0.00
   14   -8    3      0.81      0.00
   15   -8    3      0.02      0.00
   17   -8    3      0.31      0.00
   18   -8    3     -0.79      0.00
  -16   -7    3     -0.20      0.00
  -15   -7    3     -0.64      0.00
  -14   -7    3      1.00      0.00
  -13   -7    3     -0.24      0.00
  -12   -7    3     -0.22      0.00
  -11   -7    3     -0.31      0.00
  -10   -7    3     -0.26      0.00
   -9   -7    3     -0.15      0.00
   -8   -7    3     -0.44      0.00
   -7   -7    3     -0.02      0.00
   -6   -7    3     -0.10      0.00
   -5   -7    3     -0.47      0.00
   -4   -7    3      3.01      0.00
   -3   -7    3     -0.28      0.00
   -2   -7    3     -0.59      0.00
   -1   -7    3     -1.08      0.00
    0   -7    3      0.76      0.00
    1   -7    3     -2.31      0.00
    2   -7    3      0.51      0.00
    3   -7    3      0.73      0.00
    4   -7    3      0.17      0.00
    5   -7    3      1.65      0.00
    6   -7    3     -1.15      0.00
    7   -7    3      0.92      0.00
    8   -7    3      0.36      0.00
    9   -7    3     -0.77      0.00
   10   -7    3     -0.14      0.00
   11   -7    3      0.58      0.00
   12   -7    3     -1.28      0.00
   13   -7    3      0.69      0.00
   14   -7    3     -0.11      0.00
   15   -7    3      0.11      0.00
   16   -7    3     -0.33      0.00
   17   -7    3      0.08      0.00
   18   -7    3     -0.67      0.00
  -16   -6    3      0.03      0.00
  -15   -6    3     -0.06      0.00
  -14   -6    3      0.08      0.00
  -13   -6    3      0.72      0.00
  -12   -6    3      0.08      0.00
  -11   -6    3     -0.01      0.00
  -10   -6    3      0.42      0.00
   -9   -6    3     -0.45      0.00
   -8   -6    3      0.54      0.00
   -7   -6    3     -1.47      0.00
   -6   -6    3      0.75      0.00
   -5   -6    3     -1.19      0.00
   -4   -6    3      3.51      0.00
   -3   -6    3     -1.51      0.00
   -2   -6    3      1.77      0.00
   -1   -6    3      1.93      0.00
    0   -6    3     -2.78      0.00
    1   -6    3     -3.11      0.00
    2   -6    3      4.42      0.00
    3   -6    3     -2.99      0.00
    4   -6    3     -1.47      0.00
    5   -6    3      1.79      0.00
    6   -6    3     -0.79      0.00
    7   -6    3     -1.41      0.00
    8   -6    3      1.85      0.00
    9   -6    3     -1.22      0.00
   10   -6    3     -0.22      0.00
   11   -6    3      0.52      0.00
   12   -6    3      0.12      0.00
   13   -6    3      0.21      0.00
   15   -6    3     -0.26      0.00
   16   -6    3      0.26      0.00
   17   -6    3     -0.65      0.00
   18   -6    3      0.01      0.00
  -17   -5    3     -0.35      0.00
  -16   -5    3      0.38      0.00
  -15   -5    3     -0.25      0.00
  -14   -5    3      0.19      0.00
  -13   -5    3      0.31      0.00
  -12   -5    3      0.06      0.00
  -10   -5    3     -0.29      0.00
   -9   -5    3     -0.44      0.00
   -8   -5    3      0.52      0.00
   -7   -5    3     -1.30      0.00
   -6   -5    3     -0.84      0.00
   -5   -5    3     -0.27      0.00
   -4   -5    3     -0.30      0.00
   -3   -5    3      0.95      0.00
   -2   -5    3     -7.37      0.00
   -1   -5    3     -1.50      0.00
    0   -5    3      2.00      0.00
    1   -5    3    -12.15      0.00
    2   -5    3      5.02      0.00
    3   -5    3      2.30      0.00
    4   -5    3      0.13      0.00
    5   -5    3      1.34      0.00
    6   -5    3      1.38      0.00
    7   -5    3     -2.42      0.00
    8   -5    3      0.98      0.00
    9   -5    3      0.01      0.00
   10   -5    3     -1.12      0.00
   11   -5    3      0.34      0.00
   13   -5    3     -0.16      0.00
   14   -5    3      0.22      0.00
   15   -5    3     -0.30      0.00
   16   -5    3      0.09      0.00
   17   -5    3      0.26      0.00
   18   -5    3     -1.10      0.00
  -17   -4    3     -0.17      0.00
  -16   -4    3      0.13      0.00
  -15   -4    3      0.35      0.00
  -14   -4    3      0.08      0.00
  -13   -4    3      0.60      0.00
  -12   -4    3     -0.39      0.00
  -11   -4    3      0.41      0.00
  -10   -4    3     -0.35      0.00
   -9   -4    3      0.27      0.00
   -8   -4    3     -0.46      0.00
   -7   -4    3     -0.37      0.00
   -6   -4    3     -1.86      0.00
   -5   -4    3      2.06      0.00
   -4   -4    3     -0.08      0.00
   -3   -4    3     -1.33      0.00
   -2   -4    3      9.32      0.00
   -1   -4    3     -4.25      0.00
    0   -4    3      7.94      0.00
    1   -4    3      1.93      0.00
    2   -4    3     -2.75      0.00
    3   -4    3      1.76      0.00
    4   -4    3      0.43      0.00
    5   -4    3      0.19      0.00
    6   -4    3      0.39      0.00
    7   -4    3     -0.14      0.00
    8   -4    3      0.15      0.00
    9   -4    3     -0.36      0.00
   10   -4    3     -0.36      0.00
   12   -4    3     -0.08      0.00
   13   -4    3      0.50      0.00
   14   -4    3      0.09      0.00
   15   -4    3      0.67      0.00
   16   -4    3     -0.05      0.00
   17   -4    3      0.40      0.00
   18   -4    3     -0.92      0.00
  -18   -3    3      0.63      0.00
  -17   -3    3     -0.27      0.00
  -16   -3    3      0.18      0.00
  -15   -3    3     -0.44      0.00
  -14   -3    3      0.11      0.00
  -12   -3    3     -0.07      0.00
  -11   -3    3      0.57      0.00
  -10   -3    3     -0.72      0.00
   -9   -3    3      0.64      0.00
   -8   -3    3     -0.07      0.00
   -7   -3    3      0.27      0.00
   -5   -3    3      0.96      0.00
   -4   -3    3      7.59      0.00
   -3   -3    3     -7.75      0.00
   -2   -3    3     -0.69      0.00
   -1   -3    3      4.14      0.00
    0   -3    3    -14.31      0.00
    1   -3    3      3.16      0.00
    2   -3    3     -0.80      0.00
    3   -3    3      3.47      0.00
    4   -3    3      1.32      0.00
    5   -3    3     -0.04      0.00
    6   -3    3     -0.64      0.00
    7   -3    3     -1.79      0.00
    8   -3    3      1.87      0.00
   10   -3    3     -0.72      0.00
   11   -3    3      0.91      0.00
   12   -3    3      0.22      0.00
   13   -3    3     -0.13      0.00
   14   -3    3     -0.44      0.00
   15   -3    3     -0.30      0.00
   16   -3    3      0.55      0.00
   17   -3    3     -0.02      0.00
   18   -3    3     -0.25      0.00
  -18   -2    3     -0.01      0.00
  -17   -2    3     -0.15      0.00
  -16   -2    3     -0.30      0.00
  -14   -2    3     -0.28      0.00
  -13   -2    3      0.94      0.00
  -12   -2    3     -0.30      0.00
  -11   -2    3     -0.24      0.00
  -10   -2    3     -0.45      0.00
   -9   -2    3     -0.33      0.00
   -8   -2    3     -0.44      0.00
   -7   -2    3     -1.08      0.00
   -6   -2    3      2.04      0.00
   -5   -2    3     -1.33      0.00
   -4   -2    3      2.79      0.00
   -3   -2    3     -0.01      0.00
   -1   -2    3      6.28      0.00
    0   -2    3     11.58      0.00
    1   -2    3     -0.85      0.00
    2   -2    3      0.27      0.00
    3   -2    3      0.86      0.00
    4   -2    3      4.28      0.00
    5   -2    3     -1.08      0.00
    6   -2    3      1.31      0.00
    7   -2    3     -0.88      0.00
    8   -2    3     -0.26      0.00
    9   -2    3      0.55      0.00
   10   -2    3     -0.34      0.00
   11   -2    3      0.33      0.00
   12   -2    3      0.48      0.00
   13   -2    3     -0.67      0.00
   14   -2    3     -0.55      0.00
   15   -2    3      0.05      0.00
   16   -2    3      0.31      0.00
   17   -2    3     -0.01      0.00
  -18   -1    3      0.55      0.00
  -17   -1    3     -0.32      0.00
  -16   -1    3     -0.26      0.00
  -15   -1    3     -0.21      0.00
  -14   -1    3      0.04      0.00
  -13   -1    3     -0.30      0.00
  -12   -1    3     -0.09      0.00
  -11   -1    3      0.01      0.00
  -10   -1    3     -0.48      0.00
   -9   -1    3      0.96      0.00
   -8   -1    3     -0.04      0.00
   -7   -1    3     -1.45      0.00
   -6   -1    3      2.30      0.00
   -5   -1    3      7.07      0.00
   -4   -1    3      6.83      0.00
   -3   -1    3     -4.70      0.00
   -1   -1    3    -10.26      0.00
    0   -1    3     -5.28      0.00
    1   -1    3      2.85      0.00
    2   -1    3     -2.15      0.00
    3   -1    3     -0.57      0.00
    4   -1    3      1.10      0.00
    5   -1    3     -1.75      0.00
    6   -1    3     -1.71      0.00
    7   -1    3      0.12      0.00
    8   -1    3     -0.27      0.00
    9   -1    3     -0.01      0.00
   10   -1    3     -0.24      0.00
   11   -1    3     -0.10      0.00
   12   -1    3      0.69      0.00
   13   -1    3      0.33      0.00
   14   -1    3     -0.89      0.00
   15   -1    3      0.14      0.00
   16   -1    3     -0.21      0.00
   17   -1    3      0.30      0.00
  -19    0    3     -0.45      0.00
  -18    0    3     -0.44      0.00
  -17    0    3      0.42      0.00
  -16    0    3     -0.91      0.00
  -15    0    3      0.55      0.00
  -14    0    3     -0.15      0.00
  -13    0    3      0.52      0.00
  -12    0    3      0.48      0.00
  -11    0    3      0.14      0.00
  -10    0    3     -1.09      0.00
   -9    0    3     -1.00      0.00
   -8    0    3     -0.22      0.00
   -7    0    3     -2.06      0.00
   -6    0    3     -1.14      0.00
   -5    0    3      1.74      0.00
   -4    0    3     -1.79      0.00
   -3    0    3     -9.87      0.00
   -2    0    3      3.07      0.00
    0    0    3      0.08      0.00
    1    0    3     -4.85      0.00
    2    0    3      0.90      0.00
    3    0    3      1.17      0.00
    4    0    3      2.32      0.00
    5    0    3     -0.56      0.00
    6    0    3     -2.17      0.00
    7    0    3     -0.10      0.00
    8    0    3     -0.72      0.00
    9    0    3      0.39      0.00
   10    0    3      0.00      0.00
   11    0    3      0.60      0.00
   12    0    3     -0.56      0.00
   13    0    3     -0.34      0.00
   14    0    3     -0.89      0.00
   15    0    3      0.41      0.00
   16    0    3     -0.47      0.00
   17    0    3      0.48      0.00
  -19    1    3     -0.85      0.00
  -18    1    3      0.08      0.00
  -17    1    3      0.59      0.00
  -16    1    3     -0.22      0.00
  -15    1    3      0.20      0.00
  -14    1    3      0.42      0.00
  -13    1    3     -0.78      0.00
  -12    1    3     -0.58      0.00
  -11    1    3     -0.13      0.00
  -10    1    3     -0.39      0.00
   -8    1    3      0.72      0.00
   -7    1    3     -2.99      0.00
   -6    1    3      1.77      0.00
   -5    1    3      4.46      0.00
   -4    1    3      7.32      0.00
   -3    1    3     -6.57      0.00
   -2    1    3     -1.52      0.00
   -1    1    3     -5.15      0.00
    0    1    3     -2.36      0.00
    1    1    3      2.32      0.00
    2    1    3     -1.51      0.00
    3    1    3     -1.27      0.00
    4    1    3     -0.12      0.00
    5    1    3     -0.61      0.00
    6    1    3     -1.51      0.00
    7    1    3     -0.49      0.00
    8    1    3      0.06      0.00
    9    1    3     -0.46      0.00
   10    1    3     -0.84      0.00
   11    1    3      0.51      0.00
   12    1    3      0.74      0.00
   13    1    3      0.30      0.00
   14    1    3     -0.02      0.00
   15    1    3      0.17      0.00
   16    1    3     -0.22      0.00
  -19    2    3     -0.21      0.00
  -18    2    3     -0.36      0.00
  -17    2    3      0.31      0.00
  -16    2    3     -0.32      0.00
  -15    2    3     -0.54      0.00
  -14    2    3     -0.66      0.00
  -13    2    3      0.76      0.00
  -12    2    3      0.56      0.00
  -10    2    3      0.79      0.00
   -9    2    3     -1.27      0.00
   -8    2    3      0.32      0.00
   -7    2    3     -1.34      0.00
   -6    2    3      0.21      0.00
   -5    2    3      0.83      0.00
   -4    2    3     -3.09      0.00
   -3    2    3      0.59      0.00
   -2    2    3     -8.50      0.00
   -1    2    3     -2.14      0.00
    0    2    3     -7.70      0.00
    1    2    3     -2.11      0.00
    2    2    3      3.36      0.00
    3    2    3      1.89      0.00
    4    2    3      1.66      0.00
    5    2    3     -0.29      0.00
    6    2    3     -1.01      0.00
    8    2    3     -0.17      0.00
    9    2    3      1.13      0.00
   10    2    3     -0.31      0.00
   11    2    3      0.41      0.00
   12    2    3     -0.33      0.00
   13    2    3     -0.25      0.00
   14    2    3     -0.34      0.00
   15    2    3     -0.19      0.00
   16    2    3     -0.46      0.00
  -19    3    3     -0.15      0.00
  -18    3    3     -0.58      0.00
  -17    3    3      0.38      0.00
  -16    3    3     -0.33      0.00
  -15    3    3      1.56      0.00
  -14    3    3     -0.48      0.00
  -12    3    3      0.73      0.00
  -11    3    3     -1.05      0.00
  -10    3    3     -0.94      0.00
   -9    3    3     -0.18      0.00
   -8    3    3     -0.77      0.00
   -7    3    3     -1.04      0.00
   -6    3    3      0.88      0.00
   -5    3    3      3.05      0.00
   -4    3    3      0.35      0.00
   -3    3    3      2.03      0.00
   -2    3    3     -4.61      0.00
   -1    3    3      6.47      0.00
    0    3    3      2.21      0.00
    1    3    3      1.17      0.00
    2    3    3      3.00      0.00
    3    3    3      0.14      0.00
    4    3    3      0.78      0.00
    5    3    3      0.07      0.00
    6    3    3     -0.88      0.00
    7    3    3      0.26      0.00
    8    3    3     -0.45      0.00
    9    3    3     -0.79      0.00
   10    3    3     -0.20      0.00
   11    3    3      0.14      0.00
   12    3    3     -0.12      0.00
   13    3    3     -0.07      0.00
   14    3    3     -0.09      0.00
   15    3    3     -0.16      0.00
  -19    4    3     -0.15      0.00
  -18    4    3     -0.01      0.00
  -17    4    3      0.33      0.00
  -16    4    3     -0.43      0.00
  -15    4    3     -0.10      0.00
  -13    4    3     -0.69      0.00
  -11    4    3      0.44      0.00
  -10    4    3     -0.34      0.00
   -9    4    3      0.49      0.00
   -8    4    3      0.49      0.00
   -7    4    3     -0.52      0.00
   -6    4    3      1.48      0.00
   -5    4    3      0.74      0.00
   -4    4    3      1.83      0.00
   -3    4    3      4.10      0.00
   -2    4    3     -3.79      0.00
   -1    4    3     -2.03      0.00
    0    4    3     -0.40      0.00
    2    4    3      1.54      0.00
    3    4    3      0.92      0.00
    4    4    3      1.01      0.00
    5    4    3      0.13      0.00
    6    4    3     -0.89      0.00
    7    4    3      0.21      0.00
    8    4    3      0.62      0.00
    9    4    3     -0.04      0.00
   10    4    3     -0.19      0.00
   11    4    3      0.25      0.00
   12    4    3     -0.12      0.00
   13    4    3     -0.45      0.00
   14    4    3      0.60      0.00
   15    4    3     -0.37      0.00
  -19    5    3     -0.64      0.00
  -18    5    3     -0.36      0.00
  -17    5    3      0.54      0.00
  -15    5    3      1.07      0.00
  -12    5    3      0.07      0.00
  -11    5    3     -0.27      0.00
  -10    5    3     -0.86      0.00
   -9    5    3     -0.84      0.00
   -8    5    3     -0.05      0.00
   -7    5    3      0.24      0.00
   -6    5    3     -0.87      0.00
   -5    5    3      1.31      0.00
   -4    5    3     -1.75      0.00
   -2    5    3     -1.40      0.00
   -1    5    3      2.99      0.00
    2    5    3      0.00      0.00
    3    5    3      0.41      0.00
    4    5    3      0.27      0.00
    5    5    3     -0.04      0.00
    6    5    3     -0.40      0.00
    7    5    3      0.25      0.00
    8    5    3      0.00      0.00
    9    5    3     -0.26      0.00
   10    5    3      0.05      0.00
   11    5    3      0.01      0.00
   12    5    3      0.40      0.00
   13    5    3     -0.91      0.00
   14    5    3      0.27      0.00
  -19    6    3     -0.03      0.00
  -18    6    3     -0.24      0.00
  -17    6    3      0.21      0.00
  -16    6    3      0.35      0.00
  -15    6    3      0.50      0.00
  -14    6    3      0.04      0.00
  -13    6    3     -0.47      0.00
  -12    6    3      0.57      0.00
  -11    6    3     -0.77      0.00
  -10    6    3      0.88      0.00
   -9    6    3     -0.80      0.00
   -8    6    3      0.75      0.00
   -7    6    3      1.02      0.00
   -6    6    3     -1.04      0.00
   -5    6    3      2.02      0.00
   -4    6    3      0.36      0.00
   -2    6    3     -0.79      0.00
   -1    6    3     -0.30      0.00
    0    6    3     -0.12      0.00
    1    6    3      0.38      0.00
    2    6    3     -0.56      0.00
    3    6    3      0.14      0.00
    4    6    3      0.55      0.00
    5    6    3     -0.22      0.00
    6    6    3     -0.63      0.00
    7    6    3      0.24      0.00
    8    6    3      0.65      0.00
    9    6    3     -0.55      0.00
   10    6    3      0.07      0.00
   11    6    3     -0.40      0.00
   12    6    3      0.74      0.00
   13    6    3     -0.63      0.00
   14    6    3      0.95      0.00
  -19    7    3     -0.25      0.00
  -18    7    3     -0.33      0.00
  -17    7    3      0.20      0.00
  -16    7    3      0.35      0.00
  -15    7    3      0.17      0.00
  -14    7    3      0.09      0.00
  -13    7    3     -0.24      0.00
  -12    7    3      0.30      0.00
  -11    7    3     -0.47      0.00
  -10    7    3      0.09      0.00
   -9    7    3     -0.50      0.00
   -8    7    3      0.06      0.00
   -7    7    3      1.23      0.00
   -6    7    3     -1.47      0.00
   -5    7    3      0.08      0.00
   -4    7    3     -0.10      0.00
   -3    7    3     -0.45      0.00
   -2    7    3     -0.34      0.00
   -1    7    3     -0.24      0.00
    0    7    3      0.08      0.00
    1    7    3      1.26      0.00
    2    7    3     -0.23      0.00
    3    7    3     -0.60      0.00
    4    7    3     -0.66      0.00
    5    7    3      0.14      0.00
    6    7    3     -0.14      0.00
    7    7    3      0.05      0.00
    8    7    3      0.06      0.00
    9    7    3      0.44      0.00
   10    7    3     -0.14      0.00
   12    7    3      1.52      0.00
   13    7    3     -0.69      0.00
  -19    8    3      0.09      0.00
  -18    8    3     -0.49      0.00
  -17    8    3     -0.09      0.00
  -16    8    3      0.51      0.00
  -15    8    3      0.10      0.00
  -14    8    3      0.28      0.00
  -13    8    3      0.27      0.00
  -12    8    3     -0.43      0.00
  -11    8    3     -0.19      0.00
  -10    8    3     -0.13      0.00
   -9    8    3      0.25      0.00
   -8    8    3      0.19      0.00
   -7    8    3      0.15      0.00
   -6    8    3     -0.30      0.00
   -5    8    3     -0.87      0.00
   -4    8    3     -0.09      0.00
   -3    8    3      0.92      0.00
   -2    8    3     -1.80      0.00
   -1    8    3      0.04      0.00
    0    8    3      0.71      0.00
    1    8    3     -0.30      0.00
    2    8    3      0.27      0.00
    3    8    3      0.76      0.00
    4    8    3     -0.54      0.00
    5    8    3      0.01      0.00
    6    8    3      0.15      0.00
    7    8    3      0.63      0.00
    8    8    3     -0.36      0.00
    9    8    3      0.69      0.00
   10    8    3      0.40      0.00
   11    8    3     -0.51      0.00
   12    8    3      1.11      0.00
  -19    9    3      0.37      0.00
  -18    9    3     -0.66      0.00
  -17    9    3     -0.13      0.00
  -16    9    3      0.15      0.00
  -15    9    3      0.30      0.00
  -14    9    3     -0.61      0.00
  -13    9    3      0.91      0.00
  -12    9    3      0.02      0.00
  -11    9    3     -0.76      0.00
  -10    9    3     -0.37      0.00
   -9    9    3     -0.24      0.00
   -8    9    3      0.66      0.00
   -7    9    3     -0.22      0.00
   -6    9    3     -0.24      0.00
   -5    9    3     -0.78      0.00
   -4    9    3     -0.01      0.00
   -3    9    3      0.75      0.00
   -2    9    3     -0.55      0.00
   -1    9    3     -0.95      0.00
    0    9    3      0.82      0.00
    1    9    3      0.39      0.00
    2    9    3     -1.13      0.00
    3    9    3      0.27      0.00
    4    9    3     -0.45      0.00
    5    9    3     -0.49      0.00
    6    9    3      0.36      0.00
    7    9    3      0.43      0.00
    8    9    3     -0.29      0.00
    9    9    3     -0.19      0.00
   10    9    3      0.41      0.00
   11    9    3      0.45      0.00
   12    9    3     -0.11      0.00
  -18   10    3     -1.07      0.00
  -17   10    3     -0.27      0.00
  -16   10    3     -0.42      0.00
  -15   10    3      1.17      0.00
  -14   10    3     -0.30      0.00
  -13   10    3      0.01      0.00
  -12   10    3      0.17      0.00
  -11   10    3     -0.58      0.00
  -10   10    3     -0.36      0.00
   -9   10    3      0.48      0.00
   -8   10    3     -0.26      0.00
   -7   10    3      0.55      0.00
   -6   10    3     -0.53      0.00
   -5   10    3     -0.43      0.00
   -4   10    3      0.06      0.00
   -3   10    3      0.27      0.00
   -2   10    3     -0.74      0.00
   -1   10    3     -0.16      0.00
    0   10    3     -0.13      0.00
    1   10    3     -0.16      0.00
    2   10    3     -0.43      0.00
    3   10    3      0.06      0.00
    4   10    3      0.42      0.00
    5   10    3     -0.20      0.00
    6   10    3     -0.06      0.00
    7   10    3      0.47      0.00
    8   10    3     -0.25      0.00
    9   10    3      0.21      0.00
   10   10    3     -0.43      0.00
   11   10    3      0.55      0.00
  -18   11    3      0.08      0.00
  -17   11    3     -0.96      0.00
  -16   11    3     -0.19      0.00
  -15   11    3      0.24      0.00
  -14   11    3      0.63      0.00
  -13   11    3      0.33      0.00
  -12   11    3      0.46      0.00
  -11   11    3     -0.53      0.00
  -10   11    3     -0.86      0.00
   -9   11    3      1.05      0.00
   -8   11    3     -0.26      0.00
   -7   11    3      0.57      0.00
   -6   11    3     -0.40      0.00
   -5   11    3     -0.26      0.00
   -4   11    3      0.68      0.00
   -3   11    3     -0.22      0.00
   -2   11    3     -0.63      0.00
   -1   11    3      0.00      0.00
    0   11    3      0.04      0.00
    1   11    3      0.78      0.00
    2   11    3     -0.52      0.00
    3   11    3     -0.27      0.00
    4   11    3      0.12      0.00
    5   11    3      0.23      0.00
    6   11    3      0.05      0.00
    7   11    3      0.09      0.00
    8   11    3     -0.34      0.00
    9   11    3     -0.84      0.00
   10   11    3     -0.63      0.00
  -18   12    3      0.15      0.00
  -17   12    3     -0.33      0.00
  -16   12    3      0.06      0.00
  -15   12    3      0.66      0.00
  -14   12    3      0.15      0.00
  -13   12    3      0.23      0.00
  -12   12    3     -0.22      0.00
  -11   12    3      0.29      0.00
  -10   12    3     -0.42      0.00
   -9   12    3      0.06      0.00
   -8   12    3     -0.11      0.00
   -7   12    3      0.41      0.00
   -6   12    3     -1.00      0.00
   -5   12    3      0.76      0.00
   -4   12    3      0.04      0.00
   -3   12    3      0.79      0.00
   -2   12    3     -0.37      0.00
   -1   12    3      0.67      0.00
    1   12    3      0.47      0.00
    2   12    3     -0.18      0.00
    3   12    3      0.31      0.00
    4   12    3      0.12      0.00
    5   12    3      0.24      0.00
    6   12    3      0.24      0.00
    7   12    3     -0.76      0.00
    8   12    3      0.45      0.00
    9   12    3     -0.25      0.00
  -17   13    3     -0.56      0.00
  -16   13    3     -0.83      0.00
  -15   13    3      1.43      0.00
  -14   13    3     -0.49      0.00
  -13   13    3      0.41      0.00
  -12   13    3     -0.06      0.00
  -11   13    3     -0.63      0.00
  -10   13    3      0.61      0.00
   -9   13    3      0.05      0.00
   -8   13    3     -0.11      0.00
   -7   13    3     -0.22      0.00
   -6   13    3      0.81      0.00
   -5   13    3      0.03      0.00
   -4   13    3      0.49      0.00
   -3   13    3      0.25      0.00
   -2   13    3     -0.40      0.00
   -1   13    3      0.10      0.00
    0   13    3     -0.14      0.00
    1   13    3      1.25      0.00
    2   13    3     -0.80      0.00
    3   13    3      0.90      0.00
    4   13    3     -0.24      0.00
    5   13    3      0.89      0.00
    6   13    3      0.43      0.00
    7   13    3      0.49      0.00
  -16   14    3     -1.66      0.00
  -15   14    3      1.50      0.00
  -14   14    3     -0.58      0.00
  -13   14    3      0.32      0.00
  -12   14    3     -0.47      0.00
  -11   14    3      0.24      0.00
  -10   14    3     -0.67      0.00
   -9   14    3      0.08      0.00
   -8   14    3     -0.39      0.00
   -7   14    3     -1.18      0.00
   -6   14    3     -0.25      0.00
   -4   14    3     -0.61      0.00
   -3   14    3      0.12      0.00
   -2   14    3     -0.11      0.00
   -1   14    3     -0.20      0.00
    2   14    3      0.22      0.00
    3   14    3     -0.19      0.00
    4   14    3      0.11      0.00
    5   14    3     -0.41      0.00
    6   14    3     -0.27      0.00
  -15   15    3      1.33      0.00
  -14   15    3     -0.17      0.00
  -13   15    3     -1.32      0.00
  -12   15    3     -0.06      0.00
  -11   15    3     -0.57      0.00
  -10   15    3      0.11      0.00
   -9   15    3     -0.23      0.00
   -8   15    3      0.25      0.00
   -6   15    3      0.79      0.00
   -5   15    3      0.10      0.00
   -4   15    3      0.86      0.00
   -3   15    3      0.34      0.00
   -2   15    3     -0.12      0.00
   -1   15    3     -0.37      0.00
    0   15    3     -0.20      0.00
    1   15    3     -0.38      0.00
    2   15    3      0.43      0.00
    4   15    3     -0.21      0.00
    5   15    3      0.03      0.00
  -14   16    3      1.35      0.00
  -13   16    3     -0.76      0.00
  -12   16    3     -0.62      0.00
  -11   16    3      0.50      0.00
  -10   16    3     -0.37      0.00
   -9   16    3      0.02      0.00
   -7   16    3      0.13      0.00
   -6   16    3      0.19      0.00
   -5   16    3      1.24      0.00
   -4   16    3     -1.32      0.00
   -3   16    3     -0.33      0.00
   -2   16    3     -0.33      0.00
   -1   16    3     -0.25      0.00
    0   16    3      0.15      0.00
    1   16    3     -0.06      0.00
    2   16    3     -0.28      0.00
    3   16    3     -0.34      0.00
  -13   17    3     -0.29      0.00
  -12   17    3     -0.50      0.00
  -11   17    3      0.03      0.00
  -10   17    3     -0.26      0.00
   -9   17    3      1.20      0.00
   -8   17    3     -1.53      0.00
   -7   17    3      0.59      0.00
   -6   17    3     -0.37      0.00
   -5   17    3      1.05      0.00
   -4   17    3     -0.28      0.00
   -3   17    3      0.63      0.00
   -2   17    3     -0.18      0.00
   -1   17    3     -0.49      0.00
    0   17    3     -0.83      0.00
    1   17    3      0.22      0.00
  -10   18    3     -0.57      0.00
   -9   18    3      0.48      0.00
   -8   18    3     -0.10      0.00
   -7   18    3      1.36      0.00
   -6   18    3      0.06      0.00
   -5   18    3      0.94      0.00
   -4   18    3     -0.99      0.00
   -3   18    3     -0.18      0.00
   -2   18    3     -0.29      0.00
    2  -21    4      1.20      0.00
    3  -21    4     -0.64      0.00
    4  -21    4      0.19      0.00
    5  -21    4     -0.65      0.00
    6  -21    4     -0.30      0.00
    7  -21    4     -0.39      0.00
    8  -21    4      0.88      0.00
   -1  -20    4      0.77      0.00
    0  -20    4      1.67      0.00
    1  -20    4     -0.14      0.00
    2  -20    4      0.09      0.00
    3  -20    4     -0.13      0.00
    4  -20    4     -0.73      0.00
    5  -20    4      0.19      0.00
    6  -20    4      0.71      0.00
    7  -20    4     -0.24      0.00
    8  -20    4     -0.02      0.00
    9  -20    4     -0.64      0.00
   10  -20    4     -0.81      0.00
   11  -20    4      1.06      0.00
   -3  -19    4     -0.03      0.00
   -2  -19    4     -1.10      0.00
   -1  -19    4     -0.72      0.00
    0  -19    4      0.61      0.00
    1  -19    4     -0.94      0.00
    2  -19    4      0.16      0.00
    3  -19    4      1.05      0.00
    4  -19    4     -0.61      0.00
    5  -19    4     -2.30      0.00
    6  -19    4      0.13      0.00
    8  -19    4     -0.39      0.00
    9  -19    4      0.16      0.00
   10  -19    4     -0.46      0.00
   11  -19    4      0.58      0.00
   12  -19    4     -0.07      0.00
   -5  -18    4     -0.84      0.00
   -3  -18    4     -1.13      0.00
   -1  -18    4      0.12      0.00
    1  -18    4      0.68      0.00
    2  -18    4     -0.72      0.00
    3  -18    4     -1.79      0.00
    4  -18    4      0.98      0.00
    5  -18    4     -0.07      0.00
    6  -18    4      1.17      0.00
    7  -18    4      1.66      0.00
    8  -18    4     -1.35      0.00
    9  -18    4      0.04      0.00
   10  -18    4     -0.46      0.00
   11  -18    4      0.84      0.00
   12  -18    4      0.47      0.00
   13  -18    4     -0.86      0.00
   14  -18    4      0.36      0.00
   -7  -17    4     -0.33      0.00
   -4  -17    4     -0.35      0.00
   -3  -17    4     -0.03      0.00
   -2  -17    4     -0.71      0.00
   -1  -17    4     -0.60      0.00
    0  -17    4     -0.39      0.00
    1  -17    4      0.04      0.00
    2  -17    4      0.64      0.00
    3  -17    4      0.57      0.00
    4  -17    4     -0.28      0.00
    5  -17    4     -1.17      0.00
    7  -17    4     -0.50      0.00
    8  -17    4     -0.26      0.00
    9  -17    4      0.17      0.00
   10  -17    4     -0.23      0.00
   11  -17    4      0.30      0.00
   12  -17    4      0.09      0.00
   13  -17    4     -0.24      0.00
   14  -17    4     -0.95      0.00
   15  -17    4      0.64      0.00
   -8  -16    4     -0.30      0.00
   -7  -16    4      1.48      0.00
   -6  -16    4     -1.03      0.00
   -5  -16    4      0.36      0.00
   -4  -16    4     -0.92      0.00
   -3  -16    4     -0.59      0.00
   -2  -16    4      0.20      0.00
   -1  -16    4      0.94      0.00
    0  -16    4      0.90      0.00
    1  -16    4      0.73      0.00
    2  -16    4     -0.86      0.00
    3  -16    4     -2.07      0.00
    4  -16    4      2.57      0.00
    5  -16    4     -1.83      0.00
    7  -16    4      1.09      0.00
    8  -16    4     -0.54      0.00
    9  -16    4     -0.36      0.00
   10  -16    4      0.13      0.00
   11  -16    4      0.66      0.00
   12  -16    4      0.17      0.00
   13  -16    4     -0.31      0.00
   14  -16    4     -0.17      0.00
   15  -16    4      0.10      0.00
  -10  -15    4     -0.84      0.00
   -9  -15    4      0.55      0.00
   -8  -15    4     -1.45      0.00
   -7  -15    4      0.14      0.00
   -6  -15    4      0.10      0.00
   -5  -15    4      0.31      0.00
   -4  -15    4      0.34      0.00
   -3  -15    4     -0.20      0.00
   -2  -15    4     -0.84      0.00
   -1  -15    4      0.59      0.00
    0  -15    4     -1.22      0.00
    1  -15    4     -0.87      0.00
    2  -15    4      2.74      0.00
    3  -15    4     -0.65      0.00
    4  -15    4      0.78      0.00
    5  -15    4      0.63      0.00
    6  -15    4      0.67      0.00
    7  -15    4      0.58      0.00
    8  -15    4     -0.50      0.00
    9  -15    4      0.71      0.00
   10  -15    4     -0.64      0.00
   11  -15    4      0.86      0.00
   12  -15    4      0.25      0.00
   13  -15    4     -0.81      0.00
   14  -15    4     -0.86      0.00
   15  -15    4      0.36      0.00
   16  -15    4      0.27      0.00
  -11  -14    4      0.37      0.00
  -10  -14    4     -0.20      0.00
   -9  -14    4      0.58      0.00
   -8  -14    4      0.33      0.00
   -7  -14    4      0.04      0.00
   -6  -14    4      0.47      0.00
   -5  -14    4     -0.86      0.00
   -4  -14    4     -0.12      0.00
   -3  -14    4      0.16      0.00
   -2  -14    4     -0.56      0.00
   -1  -14    4      0.11      0.00
    0  -14    4      0.94      0.00
    1  -14    4     -0.98      0.00
    2  -14    4     -0.37      0.00
    3  -14    4      1.86      0.00
    5  -14    4     -0.69      0.00
    6  -14    4      0.54      0.00
    7  -14    4      0.65      0.00
    8  -14    4     -1.09      0.00
    9  -14    4      0.02      0.00
   10  -14    4      0.19      0.00
   11  -14    4     -0.22      0.00
   12  -14    4      0.43      0.00
   13  -14    4     -0.76      0.00
   14  -14    4     -0.41      0.00
   15  -14    4      0.12      0.00
   16  -14    4     -0.09      0.00
  -12  -13    4     -0.05      0.00
  -11  -13    4      0.51      0.00
  -10  -13    4     -0.53      0.00
   -9  -13    4     -0.16      0.00
   -8  -13    4      0.19      0.00
   -7  -13    4     -0.73      0.00
   -6  -13    4      0.98      0.00
   -5  -13    4     -0.92      0.00
   -4  -13    4      0.33      0.00
   -3  -13    4     -0.58      0.00
   -2  -13    4      0.62      0.00
   -1  -13    4     -0.58      0.00
    0  -13    4     -0.23      0.00
    1  -13    4      0.47      0.00
    2  -13    4     -0.80      0.00
    3  -13    4      0.20      0.00
    4  -13    4      0.34      0.00
    5  -13    4     -0.63      0.00
    6  -13    4     -0.98      0.00
    7  -13    4      0.37      0.00
    8  -13    4     -0.13      0.00
    9  -13    4     -0.58      0.00
   10  -13    4      0.15      0.00
   11  -13    4      0.49      0.00
   12  -13    4      0.51      0.00
   13  -13    4     -0.17      0.00
   14  -13    4     -0.98      0.00
   15  -13    4      0.11      0.00
   16  -13    4     -0.36      0.00
   17  -13    4      0.76      0.00
  -13  -12    4     -0.49      0.00
  -12  -12    4     -0.38      0.00
  -11  -12    4      0.17      0.00
  -10  -12    4      0.19      0.00
   -9  -12    4     -0.27      0.00
   -8  -12    4      0.60      0.00
   -7  -12    4      0.23      0.00
   -6  -12    4      0.30      0.00
   -5  -12    4      0.07      0.00
   -4  -12    4      0.40      0.00
   -3  -12    4      0.33      0.00
   -2  -12    4      0.48      0.00
   -1  -12    4     -0.24      0.00
    0  -12    4     -0.25      0.00
    1  -12    4      0.31      0.00
    2  -12    4     -0.52      0.00
    3  -12    4     -0.34      0.00
    4  -12    4      0.10      0.00
    5  -12    4     -0.27      0.00
    6  -12    4     -0.19      0.00
    7  -12    4     -0.53      0.00
    8  -12    4      0.02      0.00
    9  -12    4     -0.18      0.00
   10  -12    4     -0.63      0.00
   11  -12    4      0.22      0.00
   12  -12    4      0.04      0.00
   13  -12    4     -0.30      0.00
   14  -12    4      0.10      0.00
   15  -12    4      0.20      0.00
   16  -12    4     -0.26      0.00
   17  -12    4      0.38      0.00
  -13  -11    4      0.02      0.00
  -12  -11    4      0.16      0.00
  -11  -11    4     -0.74      0.00
  -10  -11    4      0.79      0.00
   -9  -11    4     -0.47      0.00
   -8  -11    4      0.03      0.00
   -7  -11    4      0.69      0.00
   -6  -11    4     -0.19      0.00
   -5  -11    4      0.02      0.00
   -4  -11    4     -0.12      0.00
   -3  -11    4      0.19      0.00
   -2  -11    4      0.09      0.00
   -1  -11    4     -0.98      0.00
    0  -11    4      0.27      0.00
    1  -11    4      0.04      0.00
    2  -11    4      0.07      0.00
    3  -11    4      0.38      0.00
    4  -11    4      0.31      0.00
    5  -11    4     -0.54      0.00
    6  -11    4     -0.85      0.00
    7  -11    4     -0.38      0.00
    8  -11    4     -0.61      0.00
    9  -11    4      0.09      0.00
   10  -11    4      0.04      0.00
   11  -11    4      0.14      0.00
   12  -11    4      0.76      0.00
   13  -11    4     -0.49      0.00
   14  -11    4     -1.10      0.00
   15  -11    4      0.58      0.00
   16  -11    4     -1.04      0.00
   17  -11    4      1.46      0.00
  -14  -10    4     -0.90      0.00
  -13  -10    4     -0.20      0.00
  -12  -10    4     -0.37      0.00
  -11  -10    4      0.16      0.00
  -10  -10    4      0.34      0.00
   -9  -10    4     -0.38      0.00
   -8  -10    4     -0.05      0.00
   -7  -10    4      0.35      0.00
   -6  -10    4     -0.54      0.00
   -5  -10    4      0.26      0.00
   -4  -10    4     -0.08      0.00
   -3  -10    4      0.33      0.00
   -2  -10    4     -0.07      0.00
   -1  -10    4     -0.84      0.00
    0  -10    4      0.27      0.00
    1  -10    4      0.86      0.00
    2  -10    4     -0.98      0.00
    3  -10    4     -0.32      0.00
    4  -10    4      1.28      0.00
    5  -10    4      0.17      0.00
    6  -10    4      0.68      0.00
    7  -10    4      0.30      0.00
    8  -10    4      0.04      0.00
    9  -10    4     -1.09      0.00
   10  -10    4      0.51      0.00
   11  -10    4     -0.22      0.00
   12  -10    4      0.35      0.00
   13  -10    4      0.07      0.00
   14  -10    4     -0.50      0.00
   15  -10    4      0.79      0.00
   16  -10    4     -0.38      0.00
   17  -10    4     -0.79      0.00
  -15   -9    4      0.01      0.00
  -14   -9    4     -0.42      0.00
  -13   -9    4      0.35      0.00
  -12   -9    4     -0.56      0.00
  -11   -9    4     -0.24      0.00
  -10   -9    4      0.65      0.00
   -9   -9    4     -0.04      0.00
   -8   -9    4      0.24      0.00
   -7   -9    4      0.20      0.00
   -6   -9    4      0.37      0.00
   -5   -9    4     -0.48      0.00
   -4   -9    4      0.37      0.00
   -3   -9    4      0.87      0.00
   -2   -9    4     -1.16      0.00
   -1   -9    4     -1.63      0.00
    0   -9    4      0.01      0.00
    1   -9    4      0.76      0.00
    2   -9    4      0.59      0.00
    3   -9    4      0.44      0.00
    4   -9    4      0.57      0.00
    5   -9    4      0.80      0.00
    6   -9    4     -1.08      0.00
    7   -9    4     -0.69      0.00
    8   -9    4      1.39      0.00
    9   -9    4     -0.57      0.00
   10   -9    4      0.33      0.00
   11   -9    4      0.18      0.00
   12   -9    4     -0.11      0.00
   13   -9    4     -0.67      0.00
   14   -9    4     -1.05      0.00
   15   -9    4      0.36      0.00
   16   -9    4      0.85      0.00
   18   -9    4      0.81      0.00
  -15   -8    4      0.69      0.00
  -14   -8    4     -1.16      0.00
  -13   -8    4      0.06      0.00
  -12   -8    4      0.05      0.00
  -11   -8    4      0.52      0.00
  -10   -8    4     -0.31      0.00
   -9   -8    4      0.05      0.00
   -8   -8    4     -0.56      0.00
   -7   -8    4     -0.08      0.00
   -6   -8    4     -0.72      0.00
   -5   -8    4     -0.80      0.00
   -4   -8    4     -1.55      0.00
   -3   -8    4      1.43      0.00
   -2   -8    4     -2.47      0.00
   -1   -8    4     -0.02      0.00
    0   -8    4     -0.85      0.00
    1   -8    4     -0.14      0.00
    2   -8    4     -0.82      0.00
    3   -8    4      0.47      0.00
    4   -8    4     -1.53      0.00
    5   -8    4     -0.35      0.00
    6   -8    4      1.48      0.00
    7   -8    4     -1.46      0.00
    8   -8    4      0.32      0.00
    9   -8    4      0.02      0.00
   10   -8    4      0.47      0.00
   11   -8    4     -0.29      0.00
   12   -8    4      0.60      0.00
   13   -8    4      0.04      0.00
   14   -8    4     -0.25      0.00
   15   -8    4      0.24      0.00
   17   -8    4     -0.45      0.00
   18   -8    4      0.45      0.00
  -16   -7    4     -0.21      0.00
  -15   -7    4      0.35      0.00
  -14   -7    4      0.16      0.00
  -13   -7    4     -0.80      0.00
  -12   -7    4     -0.40      0.00
  -11   -7    4     -0.07      0.00
  -10   -7    4     -0.30      0.00
   -9   -7    4      0.33      0.00
   -8   -7    4     -0.58      0.00
   -7   -7    4      0.07      0.00
   -6   -7    4      0.34      0.00
   -5   -7    4     -0.11      0.00
   -3   -7    4      2.76      0.00
   -2   -7    4     -2.98      0.00
   -1   -7    4     -2.95      0.00
    0   -7    4      2.78      0.00
    1   -7    4      0.09      0.00
    2   -7    4     -3.01      0.00
    3   -7    4      2.38      0.00
    4   -7    4     -0.09      0.00
    5   -7    4     -0.87      0.00
    6   -7    4      0.02      0.00
    7   -7    4      1.05      0.00
    8   -7    4     -0.70      0.00
    9   -7    4      0.19      0.00
   10   -7    4      0.03      0.00
   11   -7    4      0.35      0.00
   12   -7    4     -1.34      0.00
   13   -7    4     -0.28      0.00
   16   -7    4      0.13      0.00
   17   -7    4      0.36      0.00
   18   -7    4      0.30      0.00
  -17   -6    4      1.02      0.00
  -16   -6    4     -0.31      0.00
  -15   -6    4      0.13      0.00
  -14   -6    4     -0.04      0.00
  -13   -6    4     -0.27      0.00
  -12   -6    4      0.52      0.00
  -11   -6    4      0.23      0.00
  -10   -6    4      0.20      0.00
   -9   -6    4      0.43      0.00
   -8   -6    4      0.04      0.00
   -7   -6    4     -0.58      0.00
   -6   -6    4      0.51      0.00
   -5   -6    4     -0.66      0.00
   -4   -6    4     -1.71      0.00
   -3   -6    4     -0.21      0.00
   -2   -6    4      1.89      0.00
   -1   -6    4     -2.69      0.00
    0   -6    4      0.62      0.00
    1   -6    4      5.67      0.00
    2   -6    4     -3.07      0.00
    3   -6    4      0.92      0.00
    4   -6    4     -1.64      0.00
    5   -6    4      0.74      0.00
    6   -6    4     -1.43      0.00
    7   -6    4      0.50      0.00
    8   -6    4      0.27      0.00
    9   -6    4      0.19      0.00
   10   -6    4     -0.46      0.00
   11   -6    4      0.77      0.00
   12   -6    4      0.16      0.00
   14   -6    4     -0.29      0.00
   15   -6    4      0.32      0.00
   16   -6    4      0.05      0.00
   17   -6    4     -0.45      0.00
   18   -6    4      1.16      0.00
  -17   -5    4      0.66      0.00
  -16   -5    4      0.44      0.00
  -15   -5    4     -0.76      0.00
  -14   -5    4      0.91      0.00
  -13   -5    4     -0.63      0.00
  -12   -5    4      0.39      0.00
  -11   -5    4     -0.02      0.00
  -10   -5    4     -0.32      0.00
   -9   -5    4     -0.26      0.00
   -8   -5    4      0.67      0.00
   -7   -5    4      0.04      0.00
   -6   -5    4      0.83      0.00
   -5   -5    4     -0.79      0.00
   -4   -5    4     -4.42      0.00
   -3   -5    4      0.44      0.00
   -2   -5    4     -4.19      0.00
   -1   -5    4     -1.79      0.00
    0   -5    4      0.74      0.00
    1   -5    4      0.36      0.00
    2   -5    4     -1.00      0.00
    3   -5    4      0.75      0.00
    4   -5    4     -1.85      0.00
    5   -5    4      0.27      0.00
    6   -5    4      1.08      0.00
    7   -5    4     -1.08      0.00
    8   -5    4     -0.29      0.00
    9   -5    4      1.32      0.00
   10   -5    4     -0.35      0.00
   11   -5    4     -0.20      0.00
   13   -5    4     -0.44      0.00
   14   -5    4     -0.85      0.00
   15   -5    4     -0.14      0.00
   16   -5    4      0.75      0.00
   17   -5    4      0.30      0.00
   18   -5    4      0.89      0.00
  -17   -4    4      0.36      0.00
  -16   -4    4      0.37      0.00
  -15   -4    4     -0.38      0.00
  -14   -4    4      0.04      0.00
  -13   -4    4     -0.02      0.00
  -12   -4    4     -0.17      0.00
  -11   -4    4     -0.29      0.00
  -10   -4    4      1.00      0.00
   -9   -4    4     -0.62      0.00
   -8   -4    4      0.77      0.00
   -7   -4    4     -0.65      0.00
   -6   -4    4      0.40      0.00
   -5   -4    4      0.88      0.00
   -4   -4    4     -3.91      0.00
   -3   -4    4      4.19      0.00
   -2   -4    4      2.74      0.00
   -1   -4    4     -3.16      0.00
    0   -4    4     11.04      0.00
    1   -4    4      3.44      0.00
    2   -4    4     -0.27      0.00
    3   -4    4      0.08      0.00
    4   -4    4     -1.17      0.00
    5   -4    4     -0.04      0.00
    6   -4    4      1.48      0.00
    7   -4    4      0.67      0.00
    8   -4    4     -0.80      0.00
    9   -4    4      0.61      0.00
   11   -4    4     -0.13      0.00
   12   -4    4      0.27      0.00
   13   -4    4      0.29      0.00
   14   -4    4      0.06      0.00
   15   -4    4     -0.40      0.00
   16   -4    4     -0.17      0.00
   17   -4    4      0.62      0.00
  -18   -3    4     -0.52      0.00
  -17   -3    4      0.00      0.00
  -16   -3    4      0.61      0.00
  -15   -3    4     -1.20      0.00
  -14   -3    4      0.55      0.00
  -13   -3    4     -0.14      0.00
  -12   -3    4      0.36      0.00
  -11   -3    4     -0.21      0.00
  -10   -3    4     -0.17      0.00
   -9   -3    4      0.34      0.00
   -8   -3    4      1.29      0.00
   -7   -3    4      1.29      0.00
   -6   -3    4     -0.48      0.00
   -5   -3    4      4.49      0.00
   -4   -3    4     -2.63      0.00
   -3   -3    4      3.47      0.00
   -2   -3    4      2.47      0.00
   -1   -3    4     -6.30      0.00
    0   -3    4      1.72      0.00
    1   -3    4      4.78      0.00
    2   -3    4     -1.89      0.00
    3   -3    4     -0.44      0.00
    4   -3    4     -2.22      0.00
    5   -3    4      0.14      0.00
    6   -3    4      1.10      0.00
    7   -3    4     -0.36      0.00
    9   -3    4      0.41      0.00
   10   -3    4      0.03      0.00
   11   -3    4      0.02      0.00
   12   -3    4     -0.24      0.00
   13   -3    4      0.00      0.00
   14   -3    4      0.04      0.00
   15   -3    4     -0.53      0.00
   16   -3    4     -0.18      0.00
   17   -3    4      0.61      0.00
  -18   -2    4     -0.74      0.00
  -17   -2    4     -0.22      0.00
  -16   -2    4      0.87      0.00
  -15   -2    4     -0.64      0.00
  -14   -2    4     -0.24      0.00
  -13   -2    4      0.28      0.00
  -11   -2    4      0.12      0.00
  -10   -2    4      0.88      0.00
   -9   -2    4     -1.34      0.00
   -8   -2    4      1.34      0.00
   -7   -2    4      0.67      0.00
   -6   -2    4     -2.68      0.00
   -5   -2    4      0.83      0.00
   -4   -2    4     -1.46      0.00
   -3   -2    4      1.30      0.00
   -2   -2    4      4.03      0.00
   -1   -2    4     -1.40      0.00
    0   -2    4      4.11      0.00
    1   -2    4      4.11      0.00
    2   -2    4     -0.43      0.00
    3   -2    4     -2.10      0.00
    4   -2    4      0.46      0.00
    5   -2    4     -0.33      0.00
    6   -2    4      2.42      0.00
    7   -2    4     -0.85      0.00
    8   -2    4     -0.26      0.00
    9   -2    4      0.09      0.00
   10   -2    4     -0.14      0.00
   11   -2    4     -0.24      0.00
   12   -2    4     -0.18      0.00
   13   -2    4     -0.32      0.00
   14   -2    4      0.15      0.00
   15   -2    4     -0.41      0.00
   16   -2    4     -0.24      0.00
   17   -2    4      0.04      0.00
  -18   -1    4      0.43      0.00
  -17   -1    4     -0.98      0.00
  -16   -1    4      1.05      0.00
  -14   -1    4     -0.46      0.00
  -13   -1    4      0.16      0.00
  -12   -1    4     -0.27      0.00
  -11   -1    4     -0.94      0.00
  -10   -1    4      1.19      0.00
   -9   -1    4      0.25      0.00
   -8   -1    4     -0.58      0.00
   -7   -1    4      2.43      0.00
   -6   -1    4     -1.41      0.00
   -5   -1    4     -0.01      0.00
   -4   -1    4      5.15      0.00
   -3   -1    4      0.22      0.00
   -2   -1    4      2.14      0.00
   -1   -1    4     -5.44      0.00
    0   -1    4     -1.11      0.00
    1   -1    4      4.59      0.00
    2   -1    4     -2.45      0.00
    3   -1    4     -5.05      0.00
    4   -1    4     -0.85      0.00
    5   -1    4     -0.70      0.00
    6   -1    4      1.86      0.00
    7   -1    4     -0.46      0.00
    8   -1    4     -0.39      0.00
    9   -1    4     -0.16      0.00
   10   -1    4     -0.27      0.00
   11   -1    4     -0.78      0.00
   12   -1    4      0.59      0.00
   13   -1    4      0.61      0.00
   14   -1    4      0.26      0.00
   15   -1    4     -0.07      0.00
   16   -1    4     -0.07      0.00
   17   -1    4     -0.09      0.00
  -19    0    4      0.37      0.00
  -18    0    4      0.06      0.00
  -17    0    4      0.16      0.00
  -16    0    4      0.03      0.00
  -15    0    4      0.14      0.00
  -14    0    4     -0.84      0.00
  -13    0    4      0.25      0.00
  -12    0    4      0.74      0.00
  -11    0    4     -0.36      0.00
  -10    0    4     -0.17      0.00
   -9    0    4      1.30      0.00
   -8    0    4     -1.29      0.00
   -7    0    4      1.20      0.00
   -6    0    4     -3.39      0.00
   -5    0    4     -4.72      0.00
   -4    0    4     -1.15      0.00
   -3    0    4     -4.24      0.00
   -2    0    4      1.90      0.00
   -1    0    4     -7.61      0.00
    0    0    4     -4.00      0.00
    1    0    4      1.53      0.00
    2    0    4     -0.04      0.00
    3    0    4     -3.38      0.00
    4    0    4      0.57      0.00
    5    0    4      0.21      0.00
    6    0    4      0.38      0.00
    7    0    4      0.70      0.00
    8    0    4     -0.45      0.00
    9    0    4      0.08      0.00
   10    0    4      0.63      0.00
   11    0    4     -0.59      0.00
   12    0    4     -0.46      0.00
   13    0    4      0.39      0.00
   14    0    4     -0.30      0.00
   15    0    4      0.21      0.00
   16    0    4      0.19      0.00
  -19    1    4     -0.38      0.00
  -18    1    4      0.30      0.00
  -17    1    4      0.08      0.00
  -16    1    4      0.23      0.00
  -15    1    4     -0.59      0.00
  -14    1    4      1.02      0.00
  -13    1    4     -0.96      0.00
  -12    1    4     -0.15      0.00
  -11    1    4      0.32      0.00
  -10    1    4     -0.63      0.00
   -8    1    4     -0.82      0.00
   -7    1    4      1.39      0.00
   -6    1    4     -1.97      0.00
   -5    1    4     -4.91      0.00
   -4    1    4      7.72      0.00
   -3    1    4     -7.64      0.00
   -2    1    4      7.86      0.00
   -1    1    4     -1.60      0.00
    0    1    4      3.27      0.00
    1    1    4      2.86      0.00
    2    1    4     -0.03      0.00
    3    1    4     -4.32      0.00
    4    1    4     -0.65      0.00
    5    1    4      1.81      0.00
    6    1    4      0.12      0.00
    7    1    4      0.29      0.00
    8    1    4      0.17      0.00
    9    1    4     -1.14      0.00
   10    1    4      0.34      0.00
   11    1    4     -0.34      0.00
   12    1    4      0.30      0.00
   13    1    4      0.64      0.00
   14    1    4      0.07      0.00
   15    1    4      0.03      0.00
   16    1    4      0.45      0.00
  -19    2    4      0.01      0.00
  -18    2    4      0.13      0.00
  -17    2    4     -0.03      0.00
  -16    2    4      0.57      0.00
  -15    2    4     -1.58      0.00
  -14    2    4      0.34      0.00
  -13    2    4      0.63      0.00
  -10    2    4      0.86      0.00
   -9    2    4      1.30      0.00
   -8    2    4      0.12      0.00
   -7    2    4      1.19      0.00
   -6    2    4     -0.31      0.00
   -5    2    4     -5.64      0.00
   -4    2    4      4.47      0.00
   -3    2    4     -2.73      0.00
   -2    2    4      3.13      0.00
   -1    2    4     -5.91      0.00
    0    2    4      0.00      0.00
    1    2    4      1.77      0.00
    2    2    4     -0.58      0.00
    3    2    4     -0.32      0.00
    4    2    4     -1.18      0.00
    5    2    4      1.62      0.00
    6    2    4      0.45      0.00
    7    2    4      0.50      0.00
    8    2    4      0.14      0.00
    9    2    4      0.77      0.00
   10    2    4     -0.35      0.00
   11    2    4      0.20      0.00
   13    2    4      0.17      0.00
   14    2    4     -0.36      0.00
   15    2    4      0.08      0.00
  -19    3    4     -0.58      0.00
  -18    3    4      0.06      0.00
  -17    3    4     -0.67      0.00
  -16    3    4      0.25      0.00
  -15    3    4      0.02      0.00
  -14    3    4      0.19      0.00
  -12    3    4     -0.68      0.00
  -11    3    4      0.01      0.00
  -10    3    4      0.49      0.00
   -9    3    4     -0.17      0.00
   -8    3    4      0.33      0.00
   -7    3    4     -0.42      0.00
   -6    3    4      0.38      0.00
   -5    3    4     -4.01      0.00
   -4    3    4      2.66      0.00
   -3    3    4     -1.97      0.00
   -2    3    4      5.86      0.00
   -1    3    4      3.59      0.00
    0    3    4      1.04      0.00
    1    3    4      5.87      0.00
    2    3    4     -1.62      0.00
    3    3    4     -0.24      0.00
    4    3    4     -0.74      0.00
    5    3    4      1.20      0.00
    6    3    4     -0.05      0.00
    7    3    4     -0.28      0.00
    8    3    4     -0.38      0.00
    9    3    4     -0.42      0.00
   10    3    4      0.20      0.00
   11    3    4     -0.16      0.00
   12    3    4     -0.05      0.00
   13    3    4      0.05      0.00
   14    3    4     -0.84      0.00
   15    3    4      0.47      0.00
  -19    4    4      0.48      0.00
  -18    4    4     -0.03      0.00
  -17    4    4      0.57      0.00
  -16    4    4     -0.05      0.00
  -14    4    4      0.73      0.00
  -13    4    4     -0.28      0.00
  -12    4    4     -0.61      0.00
  -11    4    4      1.16      0.00
  -10    4    4      0.95      0.00
   -9    4    4      0.86      0.00
   -8    4    4      0.56      0.00
   -7    4    4     -1.15      0.00
   -6    4    4      2.52      0.00
   -5    4    4     -1.55      0.00
   -4    4    4      3.15      0.00
   -3    4    4      1.62      0.00
   -2    4    4     -0.25      0.00
   -1    4    4      1.05      0.00
    1    4    4      0.87      0.00
    2    4    4      0.23      0.00
    3    4    4     -0.87      0.00
    4    4    4     -0.72      0.00
    5    4    4      0.78      0.00
    6    4    4      0.44      0.00
    7    4    4     -0.54      0.00
    9    4    4      0.64      0.00
   10    4    4     -0.60      0.00
   11    4    4      0.32      0.00
   12    4    4     -0.64      0.00
   13    4    4      0.97      0.00
   14    4    4     -0.41      0.00
  -19    5    4     -0.12      0.00
  -18    5    4     -0.32      0.00
  -17    5    4     -0.45      0.00
  -15    5    4     -0.96      0.00
  -14    5    4      0.60      0.00
  -13    5    4      0.94      0.00
  -12    5    4     -1.46      0.00
  -11    5    4      1.23      0.00
  -10    5    4     -0.47      0.00
   -9    5    4     -0.15      0.00
   -8    5    4      0.65      0.00
   -7    5    4     -2.26      0.00
   -6    5    4      1.80      0.00
   -5    5    4     -1.69      0.00
   -4    5    4     -0.43      0.00
   -3    5    4      1.30      0.00
   -2    5    4     -0.60      0.00
   -1    5    4      0.43      0.00
    0    5    4      0.41      0.00
    1    5    4      0.35      0.00
    2    5    4      0.46      0.00
    3    5    4      0.37      0.00
    4    5    4     -0.81      0.00
    5    5    4      0.31      0.00
    6    5    4      0.25      0.00
    7    5    4     -0.51      0.00
    8    5    4     -0.83      0.00
    9    5    4      0.47      0.00
   10    5    4      0.26      0.00
   11    5    4      0.08      0.00
   12    5    4     -0.17      0.00
   13    5    4      0.47      0.00
   14    5    4     -0.64      0.00
  -19    6    4      1.01      0.00
  -18    6    4     -0.28      0.00
  -17    6    4     -0.15      0.00
  -16    6    4      0.03      0.00
  -15    6    4      0.23      0.00
  -14    6    4     -0.70      0.00
  -13    6    4      0.82      0.00
  -12    6    4     -0.67      0.00
  -11    6    4      0.79      0.00
  -10    6    4      0.92      0.00
   -9    6    4     -0.53      0.00
   -8    6    4      0.61      0.00
   -7    6    4     -1.10      0.00
   -6    6    4      1.28      0.00
   -5    6    4      0.42      0.00
   -4    6    4     -0.60      0.00
   -3    6    4      0.92      0.00
   -2    6    4     -0.35      0.00
   -1    6    4     -0.35      0.00
    0    6    4     -0.24      0.00
    1    6    4     -0.07      0.00
    2    6    4      0.36      0.00
    3    6    4     -0.03      0.00
    4    6    4      0.08      0.00
    5    6    4     -0.58      0.00
    6    6    4      0.02      0.00
    7    6    4     -0.30      0.00
    8    6    4      0.29      0.00
    9    6    4     -0.30      0.00
   10    6    4      0.23      0.00
   11    6    4      0.44      0.00
   12    6    4     -1.19      0.00
   13    6    4      1.69      0.00
  -19    7    4      0.61      0.00
  -18    7    4     -0.32      0.00
  -17    7    4     -0.17      0.00
  -16    7    4     -0.37      0.00
  -15    7    4     -0.24      0.00
  -14    7    4     -0.08      0.00
  -13    7    4     -0.28      0.00
  -12    7    4      0.12      0.00
  -11    7    4     -0.13      0.00
  -10    7    4      0.59      0.00
   -9    7    4     -0.82      0.00
   -8    7    4     -0.45      0.00
   -7    7    4      0.02      0.00
   -6    7    4      0.03      0.00
   -5    7    4      0.33      0.00
   -4    7    4      0.09      0.00
   -3    7    4     -0.90      0.00
   -2    7    4      0.23      0.00
   -1    7    4     -0.85      0.00
    0    7    4     -0.96      0.00
    1    7    4     -0.85      0.00
    2    7    4      0.11      0.00
    3    7    4     -0.86      0.00
    4    7    4      0.35      0.00
    5    7    4     -0.03      0.00
    6    7    4     -0.10      0.00
    7    7    4     -0.27      0.00
    8    7    4      0.31      0.00
    9    7    4     -0.02      0.00
   10    7    4      0.02      0.00
   11    7    4      1.54      0.00
   12    7    4     -0.53      0.00
  -19    8    4      0.67      0.00
  -18    8    4      0.21      0.00
  -17    8    4     -0.89      0.00
  -16    8    4      0.27      0.00
  -15    8    4     -0.63      0.00
  -14    8    4      0.03      0.00
  -13    8    4     -0.36      0.00
  -12    8    4      0.10      0.00
  -11    8    4      0.45      0.00
  -10    8    4      0.17      0.00
   -9    8    4     -0.52      0.00
   -8    8    4     -0.89      0.00
   -7    8    4      0.54      0.00
   -6    8    4      0.02      0.00
   -5    8    4      0.06      0.00
   -4    8    4     -0.80      0.00
   -3    8    4     -0.04      0.00
   -2    8    4     -0.93      0.00
   -1    8    4      0.25      0.00
    0    8    4     -1.01      0.00
    1    8    4     -0.48      0.00
    2    8    4      0.73      0.00
    3    8    4     -0.62      0.00
    4    8    4      0.45      0.00
    5    8    4      0.32      0.00
    6    8    4     -0.04      0.00
    7    8    4     -0.11      0.00
    8    8    4      1.22      0.00
    9    8    4      0.01      0.00
   11    8    4     -0.07      0.00
   12    8    4      0.67      0.00
  -19    9    4      0.33      0.00
  -18    9    4      0.65      0.00
  -17    9    4     -0.86      0.00
  -16    9    4      0.25      0.00
  -15    9    4     -0.52      0.00
  -14    9    4      0.05      0.00
  -13    9    4      0.31      0.00
  -12    9    4     -0.40      0.00
  -11    9    4      0.27      0.00
  -10    9    4      0.33      0.00
   -9    9    4     -1.45      0.00
   -8    9    4      0.01      0.00
   -7    9    4      0.51      0.00
   -6    9    4     -0.09      0.00
   -5    9    4      0.79      0.00
   -4    9    4     -1.23      0.00
   -3    9    4     -0.34      0.00
   -2    9    4      0.41      0.00
   -1    9    4     -0.34      0.00
    0    9    4     -0.52      0.00
    1    9    4     -0.27      0.00
    2    9    4     -0.22      0.00
    3    9    4     -0.38      0.00
    4    9    4     -0.73      0.00
    5    9    4      0.63      0.00
    6    9    4      0.10      0.00
    7    9    4     -0.82      0.00
    8    9    4      0.72      0.00
    9    9    4     -0.51      0.00
   10    9    4      0.33      0.00
   11    9    4     -0.67      0.00
  -18   10    4      0.43      0.00
  -17   10    4     -0.23      0.00
  -16   10    4      0.11      0.00
  -15   10    4      0.18      0.00
  -14   10    4     -1.37      0.00
  -13   10    4      0.45      0.00
  -12   10    4      0.03      0.00
  -11   10    4      0.17      0.00
  -10   10    4      1.23      0.00
   -9   10    4     -1.61      0.00
   -8   10    4     -0.09      0.00
   -7   10    4      0.47      0.00
   -6   10    4      0.42      0.00
   -5   10    4     -0.12      0.00
   -4   10    4     -0.19      0.00
   -3   10    4     -0.55      0.00
   -2   10    4      0.50      0.00
   -1   10    4      0.28      0.00
    0   10    4     -0.98      0.00
    1   10    4     -0.02      0.00
    2   10    4     -0.04      0.00
    3   10    4      0.21      0.00
    4   10    4     -0.53      0.00
    5   10    4      0.12      0.00
    6   10    4      0.41      0.00
    7   10    4     -0.27      0.00
    8   10    4      0.24      0.00
    9   10    4      0.23      0.00
   10   10    4     -0.22      0.00
  -18   11    4      0.15      0.00
  -17   11    4      0.22      0.00
  -16   11    4     -0.39      0.00
  -15   11    4      0.72      0.00
  -14   11    4     -0.42      0.00
  -13   11    4      0.17      0.00
  -12   11    4      0.08      0.00
  -11   11    4      0.12      0.00
  -10   11    4      0.50      0.00
   -9   11    4      0.03      0.00
   -8   11    4     -0.26      0.00
   -7   11    4      0.82      0.00
   -6   11    4      1.18      0.00
   -5   11    4     -1.08      0.00
   -4   11    4      0.05      0.00
   -3   11    4     -1.41      0.00
   -2   11    4      0.72      0.00
   -1   11    4      0.14      0.00
    0   11    4      0.46      0.00
    1   11    4      0.29      0.00
    2   11    4      0.94      0.00
    3   11    4     -0.50      0.00
    4   11    4     -0.13      0.00
    5   11    4      0.03      0.00
    6   11    4      0.18      0.00
    7   11    4      0.28      0.00
    8   11    4     -0.66      0.00
    9   11    4      0.19      0.00
  -17   12    4      0.80      0.00
  -16   12    4      0.72      0.00
  -15   12    4     -1.03      0.00
  -14   12    4     -0.45      0.00
  -13   12    4      0.21      0.00
  -12   12    4      0.25      0.00
  -11   12    4      0.62      0.00
  -10   12    4      0.06      0.00
   -9   12    4     -0.35      0.00
   -8   12    4     -0.23      0.00
   -7   12    4     -0.34      0.00
   -6   12    4      0.33      0.00
   -5   12    4     -1.25      0.00
   -4   12    4      0.75      0.00
   -3   12    4     -0.15      0.00
   -2   12    4      0.68      0.00
   -1   12    4      0.48      0.00
    0   12    4     -0.15      0.00
    1   12    4     -0.64      0.00
    2   12    4      1.42      0.00
    3   12    4     -0.19      0.00
    4   12    4     -0.02      0.00
    5   12    4     -0.50      0.00
    6   12    4      0.38      0.00
    7   12    4     -0.06      0.00
    8   12    4     -0.53      0.00
  -17   13    4     -0.76      0.00
  -16   13    4      1.04      0.00
  -15   13    4     -0.41      0.00
  -14   13    4     -0.46      0.00
  -13   13    4     -0.87      0.00
  -12   13    4      0.43      0.00
  -11   13    4     -0.66      0.00
  -10   13    4      0.54      0.00
   -9   13    4      0.16      0.00
   -8   13    4     -0.05      0.00
   -7   13    4      1.17      0.00
   -6   13    4      1.20      0.00
   -5   13    4     -2.21      0.00
   -4   13    4      0.66      0.00
   -3   13    4     -0.04      0.00
   -2   13    4     -0.11      0.00
   -1   13    4      0.75      0.00
    0   13    4      0.40      0.00
    1   13    4      0.14      0.00
    2   13    4      0.74      0.00
    3   13    4     -0.03      0.00
    4   13    4      0.17      0.00
    5   13    4     -0.22      0.00
    6   13    4      0.27      0.00
    7   13    4      1.07      0.00
  -16   14    4      0.03      0.00
  -15   14    4     -1.22      0.00
  -14   14    4     -0.31      0.00
  -13   14    4      0.59      0.00
  -12   14    4     -0.19      0.00
  -11   14    4      0.55      0.00
  -10   14    4     -0.86      0.00
   -9   14    4      0.88      0.00
   -8   14    4     -0.41      0.00
   -7   14    4     -0.38      0.00
   -6   14    4      0.21      0.00
   -5   14    4     -0.90      0.00
   -4   14    4     -0.24      0.00
   -3   14    4      0.50      0.00
   -2   14    4      0.15      0.00
   -1   14    4      0.20      0.00
    0   14    4     -0.52      0.00
    1   14    4     -0.15      0.00
    2   14    4      0.23      0.00
    3   14    4     -0.26      0.00
    4   14    4     -0.56      0.00
    5   14    4      0.03      0.00
  -15   15    4      0.05      0.00
  -14   15    4     -1.25      0.00
  -13   15    4      0.60      0.00
  -12   15    4     -0.19      0.00
  -11   15    4     -0.43      0.00
  -10   15    4     -0.44      0.00
   -9   15    4      0.28      0.00
   -8   15    4      0.83      0.00
   -7   15    4     -0.01      0.00
   -6   15    4      0.26      0.00
   -5   15    4     -1.49      0.00
   -4   15    4      0.75      0.00
   -3   15    4      0.25      0.00
   -2   15    4      0.00      0.00
   -1   15    4      0.35      0.00
    0   15    4      0.19      0.00
    1   15    4     -0.23      0.00
    2   15    4      0.38      0.00
    3   15    4     -0.25      0.00
    4   15    4     -0.29      0.00
  -14   16    4     -0.58      0.00
  -13   16    4      0.77      0.00
  -12   16    4      0.37      0.00
  -11   16    4     -0.13      0.00
  -10   16    4      0.10      0.00
   -9   16    4     -0.26      0.00
   -8   16    4      1.34      0.00
   -7   16    4     -0.84      0.00
   -6   16    4      0.16      0.00
   -5   16    4     -1.21      0.00
   -4   16    4     -0.28      0.00
   -3   16    4      0.41      0.00
   -2   16    4      0.14      0.00
   -1   16    4      0.30      0.00
    0   16    4     -0.26      0.00
    1   16    4     -0.13      0.00
    2   16    4     -0.69      0.00
  -12   17    4      0.77      0.00
  -11   17    4     -0.18      0.00
  -10   17    4      0.02      0.00
   -9   17    4      0.45      0.00
   -8   17    4      0.34      0.00
   -7   17    4     -1.01      0.00
   -6   17    4      0.11      0.00
   -5   17    4     -0.62      0.00
   -4   17    4      0.54      0.00
   -3   17    4     -0.19      0.00
   -2   17    4      0.52      0.00
   -1   17    4     -0.96      0.00
   -9   18    4      0.39      0.00
   -8   18    4      1.26      0.00
   -7   18    4     -0.68      0.00
   -6   18    4     -0.31      0.00
   -5   18    4     -0.80      0.00
    1  -21    5     -0.45      0.00
    2  -21    5     -0.01      0.00
    3  -21    5     -0.27      0.00
    4  -21    5     -0.51      0.00
    5  -21    5      0.90      0.00
    6  -21    5     -2.12      0.00
    7  -21    5      1.12      0.00
    8  -21    5     -0.83      0.00
   -2  -20    5      0.11      0.00
   -1  -20    5      0.33      0.00
    0  -20    5     -0.01      0.00
    1  -20    5     -0.18      0.00
    2  -20    5     -0.70      0.00
    3  -20    5     -0.83      0.00
    4  -20    5     -0.41      0.00
    5  -20    5      2.90      0.00
    6  -20    5     -1.54      0.00
    7  -20    5      0.61      0.00
    8  -20    5      0.35      0.00
    9  -20    5     -0.93      0.00
   10  -20    5      0.05      0.00
   11  -20    5      0.05      0.00
   -4  -19    5     -0.76      0.00
   -3  -19    5      1.14      0.00
   -1  -19    5     -0.87      0.00
    0  -19    5     -1.49      0.00
    1  -19    5     -0.03      0.00
    2  -19    5      0.50      0.00
    3  -19    5      1.65      0.00
    4  -19    5     -2.34      0.00
    5  -19    5      0.37      0.00
    6  -19    5     -1.80      0.00
    7  -19    5     -1.20      0.00
    8  -19    5      1.40      0.00
    9  -19    5      0.09      0.00
   10  -19    5     -0.71      0.00
   11  -19    5     -0.21      0.00
   12  -19    5      0.00      0.00
   -6  -18    5     -0.41      0.00
   -5  -18    5     -0.18      0.00
   -4  -18    5      0.38      0.00
   -3  -18    5      1.04      0.00
   -2  -18    5      0.54      0.00
   -1  -18    5      1.27      0.00
    0  -18    5     -0.07      0.00
    1  -18    5      0.31      0.00
    2  -18    5     -1.94      0.00
    3  -18    5     -0.10      0.00
    4  -18    5     -0.37      0.00
    5  -18    5      1.98      0.00
    6  -18    5     -1.07      0.00
    7  -18    5      1.25      0.00
    8  -18    5      0.13      0.00
    9  -18    5      0.43      0.00
   10  -18    5     -0.34      0.00
   11  -18    5     -0.26      0.00
   12  -18    5      0.54      0.00
   13  -18    5      0.22      0.00
   14  -18    5      0.49      0.00
   -7  -17    5     -2.20      0.00
   -6  -17    5      1.64      0.00
   -5  -17    5     -0.11      0.00
   -4  -17    5      0.68      0.00
   -3  -17    5      1.03      0.00
   -2  -17    5     -0.34      0.00
   -1  -17    5     -1.79      0.00
    0  -17    5     -0.32      0.00
    1  -17    5     -0.98      0.00
    2  -17    5      1.88      0.00
    3  -17    5      1.59      0.00
    4  -17    5     -1.12      0.00
    5  -17    5      1.37      0.00
    6  -17    5     -1.81      0.00
    7  -17    5      0.35      0.00
    8  -17    5      1.21      0.00
    9  -17    5      0.00      0.00
   10  -17    5      0.11      0.00
   11  -17    5     -0.33      0.00
   12  -17    5      0.37      0.00
   13  -17    5     -0.17      0.00
   14  -17    5      0.03      0.00
   15  -17    5     -0.59      0.00
   -9  -16    5     -0.25      0.00
   -8  -16    5      0.94      0.00
   -7  -16    5     -1.62      0.00
   -6  -16    5     -0.92      0.00
   -5  -16    5     -0.19      0.00
   -4  -16    5     -0.91      0.00
   -3  -16    5      0.48      0.00
   -2  -16    5      1.41      0.00
   -1  -16    5     -0.70      0.00
    0  -16    5      0.36      0.00
    1  -16    5      0.41      0.00
    2  -16    5     -1.47      0.00
    3  -16    5      0.52      0.00
    4  -16    5      1.13      0.00
    5  -16    5      1.11      0.00
    6  -16    5     -1.62      0.00
    7  -16    5      0.59      0.00
    8  -16    5      1.02      0.00
    9  -16    5     -0.45      0.00
   10  -16    5     -0.04      0.00
   11  -16    5     -0.29      0.00
   12  -16    5      0.68      0.00
   13  -16    5      0.31      0.00
   14  -16    5      0.51      0.00
   15  -16    5     -0.73      0.00
  -10  -15    5      0.26      0.00
   -9  -15    5     -0.74      0.00
   -8  -15    5     -0.01      0.00
   -7  -15    5     -0.63      0.00
   -6  -15    5     -0.93      0.00
   -5  -15    5      1.01      0.00
   -4  -15    5      0.26      0.00
   -3  -15    5     -0.62      0.00
   -2  -15    5      0.61      0.00
   -1  -15    5     -0.66      0.00
    0  -15    5     -0.65      0.00
    1  -15    5      0.37      0.00
    2  -15    5      2.61      0.00
    3  -15    5     -1.40      0.00
    4  -15    5      0.98      0.00
    5  -15    5      1.57      0.00
    6  -15    5     -0.78      0.00
    7  -15    5     -0.48      0.00
    8  -15    5      0.56      0.00
    9  -15    5      0.54      0.00
   10  -15    5     -0.56      0.00
   11  -15    5     -0.04      0.00
   12  -15    5      0.42      0.00
   13  -15    5      0.51      0.00
   14  -15    5     -0.40      0.00
   15  -15    5     -0.22      0.00
   16  -15    5     -0.35      0.00
  -11  -14    5     -0.81      0.00
  -10  -14    5      1.14      0.00
   -9  -14    5      0.16      0.00
   -8  -14    5     -0.67      0.00
   -7  -14    5      0.84      0.00
   -6  -14    5     -1.18      0.00
   -5  -14    5      0.36      0.00
   -4  -14    5     -0.54      0.00
   -3  -14    5      0.39      0.00
   -2  -14    5     -0.47      0.00
   -1  -14    5      0.09      0.00
    0  -14    5      0.30      0.00
    1  -14    5     -0.78      0.00
    2  -14    5      0.90      0.00
    4  -14    5     -0.09      0.00
    5  -14    5      0.50      0.00
    6  -14    5     -1.97      0.00
    7  -14    5      0.37      0.00
    8  -14    5     -0.83      0.00
    9  -14    5      0.53      0.00
   10  -14    5      0.05      0.00
   11  -14    5     -0.83      0.00
   12  -14    5      0.02      0.00
   13  -14    5      0.62      0.00
   14  -14    5      0.68      0.00
   15  -14    5     -0.61      0.00
   16  -14    5      0.01      0.00
  -12  -13    5      0.23      0.00
  -11  -13    5     -0.61      0.00
  -10  -13    5     -0.08      0.00
   -9  -13    5      0.70      0.00
   -8  -13    5     -1.10      0.00
   -7  -13    5      0.09      0.00
   -6  -13    5     -0.18      0.00
   -5  -13    5      0.45      0.00
   -4  -13    5     -0.50      0.00
   -3  -13    5     -0.37      0.00
   -2  -13    5      0.09      0.00
   -1  -13    5      0.19      0.00
    0  -13    5      0.55      0.00
    1  -13    5      0.06      0.00
    2  -13    5     -0.51      0.00
    3  -13    5     -1.08      0.00
    4  -13    5     -2.24      0.00
    5  -13    5      1.84      0.00
    7  -13    5     -0.10      0.00
    8  -13    5     -0.45      0.00
    9  -13    5     -0.08      0.00
   10  -13    5     -0.12      0.00
   11  -13    5     -0.24      0.00
   12  -13    5      0.67      0.00
   13  -13    5      0.39      0.00
   14  -13    5      0.02      0.00
   15  -13    5     -0.26      0.00
   16  -13    5      0.17      0.00
   17  -13    5     -0.33      0.00
  -13  -12    5     -0.35      0.00
  -12  -12    5     -0.14      0.00
  -11  -12    5      0.04      0.00
  -10  -12    5     -0.82      0.00
   -9  -12    5      0.64      0.00
   -8  -12    5     -0.17      0.00
   -7  -12    5     -0.55      0.00
   -6  -12    5      0.75      0.00
   -5  -12    5      0.22      0.00
   -4  -12    5      0.42      0.00
   -3  -12    5      0.61      0.00
   -2  -12    5     -0.09      0.00
   -1  -12    5      0.91      0.00
    0  -12    5     -1.34      0.00
    1  -12    5      0.95      0.00
    2  -12    5     -1.46      0.00
    3  -12    5      0.10      0.00
    4  -12    5     -1.52      0.00
    6  -12    5      0.19      0.00
    7  -12    5     -0.58      0.00
    8  -12    5     -0.20      0.00
    9  -12    5      0.37      0.00
   10  -12    5      0.35      0.00
   11  -12    5     -1.35      0.00
   12  -12    5      0.47      0.00
   13  -12    5      0.43      0.00
   14  -12    5      1.09      0.00
   15  -12    5     -0.58      0.00
   16  -12    5      0.94      0.00
   17  -12    5     -0.84      0.00
  -14  -11    5      0.23      0.00
  -13  -11    5     -0.08      0.00
  -12  -11    5      0.03      0.00
  -11  -11    5      0.06      0.00
  -10  -11    5     -0.35      0.00
   -9  -11    5      0.86      0.00
   -8  -11    5      0.06      0.00
   -7  -11    5     -0.15      0.00
   -6  -11    5      0.42      0.00
   -5  -11    5      0.66      0.00
   -4  -11    5     -0.69      0.00
   -3  -11    5      0.35      0.00
   -2  -11    5      0.25      0.00
   -1  -11    5      1.22      0.00
    0  -11    5      0.09      0.00
    1  -11    5     -0.34      0.00
    2  -11    5      0.74      0.00
    3  -11    5      0.24      0.00
    4  -11    5     -1.54      0.00
    5  -11    5      1.04      0.00
    6  -11    5      0.14      0.00
    7  -11    5     -0.19      0.00
    8  -11    5     -0.44      0.00
    9  -11    5      0.59      0.00
   10  -11    5      0.51      0.00
   11  -11    5     -0.59      0.00
   12  -11    5      0.01      0.00
   13  -11    5     -0.15      0.00
   14  -11    5      0.19      0.00
   15  -11    5     -0.10      0.00
   16  -11    5      0.21      0.00
   17  -11    5      0.55      0.00
  -14  -10    5      0.02      0.00
  -13  -10    5     -0.54      0.00
  -12  -10    5      0.39      0.00
  -11  -10    5      0.22      0.00
  -10  -10    5     -0.66      0.00
   -9  -10    5      0.42      0.00
   -8  -10    5      0.05      0.00
   -7  -10    5     -0.64      0.00
   -6  -10    5      0.08      0.00
   -5  -10    5      0.09      0.00
   -4  -10    5     -0.54      0.00
   -3  -10    5      0.10      0.00
   -2  -10    5      1.04      0.00
   -1  -10    5      0.15      0.00
    0  -10    5     -0.35      0.00
    1  -10    5     -0.15      0.00
    2  -10    5     -1.46      0.00
    3  -10    5      0.28      0.00
    4  -10    5      0.27      0.00
    5  -10    5     -0.22      0.00
    6  -10    5      2.05      0.00
    7  -10    5     -0.14      0.00
    8  -10    5     -0.24      0.00
    9  -10    5      0.12      0.00
   10  -10    5      0.13      0.00
   11  -10    5     -0.20      0.00
   12  -10    5      0.21      0.00
   13  -10    5      0.40      0.00
   14  -10    5      0.41      0.00
   15  -10    5      0.06      0.00
   16  -10    5     -0.72      0.00
  -15   -9    5     -0.15      0.00
  -14   -9    5      0.70      0.00
  -13   -9    5     -0.61      0.00
  -12   -9    5      0.21      0.00
  -11   -9    5     -0.71      0.00
  -10   -9    5      0.16      0.00
   -9   -9    5      0.35      0.00
   -8   -9    5      0.66      0.00
   -7   -9    5     -0.91      0.00
   -6   -9    5      0.40      0.00
   -5   -9    5      0.98      0.00
   -4   -9    5     -0.82      0.00
   -3   -9    5     -0.78      0.00
   -2   -9    5      2.72      0.00
   -1   -9    5     -0.91      0.00
    0   -9    5      0.07      0.00
    1   -9    5     -0.33      0.00
    2   -9    5      0.91      0.00
    3   -9    5     -1.49      0.00
    4   -9    5      1.29      0.00
    5   -9    5     -0.32      0.00
    6   -9    5     -0.51      0.00
    7   -9    5      0.29      0.00
    8   -9    5      0.30      0.00
    9   -9    5      1.16      0.00
   10   -9    5     -0.67      0.00
   11   -9    5      0.03      0.00
   12   -9    5     -0.13      0.00
   13   -9    5     -0.39      0.00
   14   -9    5     -0.04      0.00
   15   -9    5      0.28      0.00
   17   -9    5     -0.46      0.00
  -16   -8    5      0.04      0.00
  -15   -8    5      0.14      0.00
  -14   -8    5      0.24      0.00
  -13   -8    5      0.11      0.00
  -12   -8    5      0.44      0.00
  -11   -8    5      0.28      0.00
  -10   -8    5     -0.54      0.00
   -9   -8    5     -0.33      0.00
   -8   -8    5      0.15      0.00
   -7   -8    5     -0.04      0.00
   -6   -8    5     -1.99      0.00
   -5   -8    5      0.66      0.00
   -4   -8    5      0.81      0.00
   -3   -8    5     -2.97      0.00
   -2   -8    5      2.74      0.00
   -1   -8    5      0.44      0.00
    0   -8    5     -1.90      0.00
    1   -8    5     -0.37      0.00
    2   -8    5      0.77      0.00
    3   -8    5     -1.87      0.00
    4   -8    5      0.10      0.00
    5   -8    5     -0.03      0.00
    6   -8    5      1.00      0.00
    7   -8    5     -0.91      0.00
    8   -8    5     -0.76      0.00
    9   -8    5      1.04      0.00
   10   -8    5     -0.33      0.00
   11   -8    5     -0.63      0.00
   12   -8    5      1.43      0.00
   13   -8    5      0.65      0.00
   14   -8    5      0.13      0.00
   16   -8    5     -0.06      0.00
   17   -8    5     -0.40      0.00
  -16   -7    5      0.18      0.00
  -15   -7    5      0.24      0.00
  -14   -7    5      0.47      0.00
  -13   -7    5      0.13      0.00
  -12   -7    5     -0.42      0.00
  -11   -7    5     -0.29      0.00
  -10   -7    5      0.07      0.00
   -9   -7    5     -0.27      0.00
   -8   -7    5     -0.45      0.00
   -7   -7    5      0.64      0.00
   -6   -7    5     -0.49      0.00
   -5   -7    5      0.55      0.00
   -4   -7    5      0.43      0.00
   -3   -7    5     -1.11      0.00
   -2   -7    5      0.46      0.00
   -1   -7    5      1.27      0.00
    0   -7    5     -0.97      0.00
    1   -7    5     -2.29      0.00
    2   -7    5      1.56      0.00
    3   -7    5     -1.41      0.00
    4   -7    5      1.86      0.00
    5   -7    5     -1.60      0.00
    6   -7    5      0.48      0.00
    7   -7    5      0.41      0.00
    8   -7    5     -1.29      0.00
    9   -7    5     -0.11      0.00
   10   -7    5      0.81      0.00
   11   -7    5     -1.10      0.00
   12   -7    5      0.08      0.00
   13   -7    5      0.23      0.00
   15   -7    5     -0.50      0.00
   16   -7    5      0.22      0.00
   17   -7    5      0.40      0.00
  -17   -6    5     -0.37      0.00
  -16   -6    5     -0.51      0.00
  -15   -6    5      0.75      0.00
  -14   -6    5     -0.45      0.00
  -12   -6    5      0.39      0.00
  -11   -6    5      0.38      0.00
  -10   -6    5      0.19      0.00
   -9   -6    5      0.25      0.00
   -8   -6    5     -0.04      0.00
   -7   -6    5     -0.34      0.00
   -6   -6    5     -0.88      0.00
   -5   -6    5      0.15      0.00
   -4   -6    5      3.04      0.00
   -3   -6    5     -2.00      0.00
   -2   -6    5      1.52      0.00
   -1   -6    5      1.34      0.00
    0   -6    5     -0.64      0.00
    1   -6    5      0.81      0.00
    2   -6    5      1.52      0.00
    3   -6    5     -0.33      0.00
    4   -6    5      1.14      0.00
    5   -6    5      0.81      0.00
    6   -6    5     -1.17      0.00
    7   -6    5      1.11      0.00
    8   -6    5     -0.12      0.00
    9   -6    5     -0.88      0.00
   10   -6    5      0.66      0.00
   11   -6    5     -0.21      0.00
   13   -6    5      0.78      0.00
   14   -6    5      0.57      0.00
   15   -6    5     -0.55      0.00
   16   -6    5     -0.54      0.00
   17   -6    5     -0.35      0.00
  -17   -5    5      0.00      0.00
  -16   -5    5     -0.44      0.00
  -15   -5    5      0.51      0.00
  -14   -5    5      0.52      0.00
  -13   -5    5      0.02      0.00
  -12   -5    5      0.20      0.00
  -11   -5    5      0.42      0.00
  -10   -5    5     -0.81      0.00
   -9   -5    5     -0.35      0.00
   -8   -5    5      0.02      0.00
   -7   -5    5      0.68      0.00
   -6   -5    5     -0.49      0.00
   -5   -5    5      0.25      0.00
   -4   -5    5      1.37      0.00
   -3   -5    5     -0.46      0.00
   -2   -5    5      0.87      0.00
   -1   -5    5      1.47      0.00
    0   -5    5     -4.37      0.00
    1   -5    5     -0.32      0.00
    2   -5    5      0.37      0.00
    3   -5    5      1.22      0.00
    4   -5    5      0.49      0.00
    5   -5    5      0.49      0.00
    6   -5    5     -0.51      0.00
    7   -5    5      0.11      0.00
    8   -5    5     -0.53      0.00
    9   -5    5     -0.17      0.00
   10   -5    5      0.29      0.00
   12   -5    5     -0.31      0.00
   13   -5    5      0.71      0.00
   14   -5    5     -0.36      0.00
   15   -5    5      0.41      0.00
   16   -5    5      0.08      0.00
   17   -5    5     -0.04      0.00
  -18   -4    5      0.25      0.00
  -17   -4    5     -0.16      0.00
  -16   -4    5     -0.12      0.00
  -15   -4    5      0.31      0.00
  -14   -4    5     -0.22      0.00
  -13   -4    5     -0.20      0.00
  -12   -4    5     -0.24      0.00
  -11   -4    5      0.17      0.00
  -10   -4    5      1.03      0.00
   -9   -4    5     -0.25      0.00
   -8   -4    5     -0.46      0.00
   -7   -4    5     -0.10      0.00
   -6   -4    5     -0.24      0.00
   -5   -4    5     -1.06      0.00
   -4   -4    5      5.55      0.00
   -3   -4    5     -1.88      0.00
   -2   -4    5      2.69      0.00
   -1   -4    5      4.57      0.00
    0   -4    5     -1.79      0.00
    1   -4    5      0.07      0.00
    2   -4    5      1.77      0.00
    3   -4    5      1.24      0.00
    4   -4    5      1.03      0.00
    5   -4    5      0.67      0.00
    6   -4    5     -0.79      0.00
    7   -4    5      1.54      0.00
    8   -4    5     -0.26      0.00
   10   -4    5      0.22      0.00
   11   -4    5      0.11      0.00
   12   -4    5     -0.15      0.00
   13   -4    5      1.07      0.00
   14   -4    5      0.13      0.00
   15   -4    5      0.02      0.00
   16   -4    5     -0.39      0.00
   17   -4    5     -0.63      0.00
  -18   -3    5      0.08      0.00
  -17   -3    5     -0.39      0.00
  -16   -3    5     -0.35      0.00
  -15   -3    5      0.23      0.00
  -14   -3    5      0.13      0.00
  -13   -3    5     -0.37      0.00
  -12   -3    5      0.68      0.00
  -11   -3    5     -0.22      0.00
  -10   -3    5     -0.82      0.00
   -9   -3    5      0.99      0.00
   -8   -3    5     -0.76      0.00
   -7   -3    5      0.64      0.00
   -6   -3    5      1.74      0.00
   -5   -3    5     -0.08      0.00
   -4   -3    5      4.15      0.00
   -3   -3    5      2.70      0.00
   -2   -3    5      0.93      0.00
   -1   -3    5      1.95      0.00
    0   -3    5     -4.33      0.00
    1   -3    5     -1.49      0.00
    2   -3    5     -0.64      0.00
    3   -3    5      3.33      0.00
    4   -3    5     -1.25      0.00
    5   -3    5      1.01      0.00
    6   -3    5     -1.88      0.00
    7   -3    5      1.16      0.00
    8   -3    5     -0.47      0.00
    9   -3    5     -0.15      0.00
   10   -3    5     -0.10      0.00
   11   -3    5     -0.14      0.00
   12   -3    5     -0.75      0.00
   13   -3    5      0.42      0.00
   14   -3    5      0.11      0.00
   15   -3    5      0.32      0.00
   16   -3    5     -0.27      0.00
   17   -3    5     -0.19      0.00
  -18   -2    5     -0.56      0.00
  -17   -2    5      0.35      0.00
  -16   -2    5     -0.11      0.00
  -15   -2    5      0.46      0.00
  -14   -2    5     -0.07      0.00
  -13   -2    5     -0.72      0.00
  -12   -2    5     -0.56      0.00
  -11   -2    5      1.07      0.00
  -10   -2    5     -0.61      0.00
   -9   -2    5     -0.74      0.00
   -8   -2    5      0.75      0.00
   -7   -2    5     -1.05      0.00
   -6   -2    5      0.01      0.00
   -5   -2    5     -0.71      0.00
   -4   -2    5     -0.31      0.00
   -3   -2    5     -1.46      0.00
   -2   -2    5     -1.55      0.00
   -1   -2    5      2.75      0.00
    0   -2    5     -5.85      0.00
    1   -2    5     -2.84      0.00
    2   -2    5      0.17      0.00
    3   -2    5      2.54      0.00
    4   -2    5     -0.62      0.00
    5   -2    5     -0.16      0.00
    6   -2    5     -1.67      0.00
    7   -2    5      0.59      0.00
    8   -2    5      0.15      0.00
    9   -2    5     -0.45      0.00
   10   -2    5     -0.13      0.00
   11   -2    5      0.10      0.00
   12   -2    5     -0.67      0.00
   13   -2    5     -0.13      0.00
   14   -2    5      0.50      0.00
   15   -2    5     -0.19      0.00
   16   -2    5     -0.25      0.00
  -19   -1    5      0.47      0.00
  -18   -1    5      0.13      0.00
  -17   -1    5     -1.23      0.00
  -16   -1    5      0.78      0.00
  -15   -1    5     -0.40      0.00
  -14   -1    5     -0.01      0.00
  -13   -1    5      0.27      0.00
  -12   -1    5     -0.74      0.00
  -11   -1    5     -0.14      0.00
  -10   -1    5      0.49      0.00
   -9   -1    5     -1.68      0.00
   -8   -1    5     -0.70      0.00
   -7   -1    5      0.68      0.00
   -6   -1    5      0.00      0.00
   -5   -1    5     -0.36      0.00
   -4   -1    5      0.62      0.00
   -3   -1    5      2.12      0.00
   -2   -1    5     -4.59      0.00
   -1   -1    5      4.56      0.00
    0   -1    5     -2.92      0.00
    1   -1    5     -4.19      0.00
    2   -1    5     -0.18      0.00
    3   -1    5      2.68      0.00
    4   -1    5     -1.23      0.00
    5   -1    5     -1.08      0.00
    6   -1    5     -0.53      0.00
    7   -1    5     -0.30      0.00
    8   -1    5      0.25      0.00
    9   -1    5      0.03      0.00
   10   -1    5     -0.29      0.00
   11   -1    5      0.13      0.00
   12   -1    5      0.05      0.00
   13   -1    5     -0.03      0.00
   14   -1    5      0.64      0.00
   15   -1    5      0.23      0.00
   16   -1    5     -0.45      0.00
  -19    0    5      0.81      0.00
  -18    0    5      0.52      0.00
  -17    0    5     -0.60      0.00
  -16    0    5      0.14      0.00
  -15    0    5      1.66      0.00
  -13    0    5      0.82      0.00
  -12    0    5      0.08      0.00
  -11    0    5     -0.56      0.00
  -10    0    5      0.19      0.00
   -9    0    5     -0.36      0.00
   -8    0    5     -0.23      0.00
   -7    0    5     -0.21      0.00
   -6    0    5      0.70      0.00
   -5    0    5     -0.67      0.00
   -4    0    5     -6.15      0.00
   -2    0    5     -8.01      0.00
   -1    0    5      0.26      0.00
    0    0    5     -4.86      0.00
    1    0    5     -1.96      0.00
    2    0    5     -0.58      0.00
    3    0    5      3.11      0.00
    4    0    5      0.12      0.00
    5    0    5     -2.07      0.00
    6    0    5     -0.19      0.00
    7    0    5      0.12      0.00
    8    0    5      0.70      0.00
    9    0    5      0.32      0.00
   10    0    5      0.03      0.00
   11    0    5      0.23      0.00
   12    0    5     -0.29      0.00
   13    0    5     -0.21      0.00
   14    0    5      0.05      0.00
   15    0    5     -0.09      0.00
   16    0    5     -0.33      0.00
  -19    1    5     -0.05      0.00
  -18    1    5      0.16      0.00
  -17    1    5     -0.57      0.00
  -16    1    5     -0.88      0.00
  -15    1    5      1.35      0.00
  -14    1    5     -0.14      0.00
  -13    1    5     -0.29      0.00
  -12    1    5      0.74      0.00
  -11    1    5     -0.56      0.00
   -9    1    5     -0.37      0.00
   -8    1    5     -0.56      0.00
   -7    1    5     -0.13      0.00
   -6    1    5      0.26      0.00
   -5    1    5      0.12      0.00
   -4    1    5     -2.04      0.00
   -3    1    5      1.20      0.00
   -2    1    5     -0.77      0.00
   -1    1    5      6.60      0.00
    0    1    5     -1.94      0.00
    1    1    5     -0.05      0.00
    2    1    5      1.81      0.00
    3    1    5      1.12      0.00
    4    1    5      0.94      0.00
    5    1    5     -1.64      0.00
    6    1    5     -0.08      0.00
    7    1    5     -1.12      0.00
    8    1    5      0.64      0.00
   10    1    5      0.22      0.00
   11    1    5     -0.35      0.00
   12    1    5      0.53      0.00
   13    1    5     -0.31      0.00
   14    1    5      0.01      0.00
   15    1    5     -0.05      0.00
  -19    2    5      0.66      0.00
  -18    2    5     -0.48      0.00
  -17    2    5      0.51      0.00
  -16    2    5     -0.16      0.00
  -15    2    5      0.45      0.00
  -14    2    5     -0.05      0.00
  -13    2    5     -0.28      0.00
  -11    2    5      0.17      0.00
  -10    2    5     -0.27      0.00
   -9    2    5      1.24      0.00
   -8    2    5     -0.08      0.00
   -7    2    5      1.14      0.00
   -6    2    5      0.87      0.00
   -5    2    5      1.88      0.00
   -4    2    5     -0.43      0.00
   -3    2    5      2.32      0.00
   -2    2    5     -3.32      0.00
   -1    2    5      1.34      0.00
    0    2    5      0.30      0.00
    1    2    5     -3.69      0.00
    2    2    5      2.86      0.00
    3    2    5      0.40      0.00
    4    2    5      0.85      0.00
    5    2    5     -1.43      0.00
    6    2    5      0.87      0.00
    7    2    5     -0.13      0.00
    8    2    5      0.16      0.00
    9    2    5      0.39      0.00
   10    2    5     -0.39      0.00
   11    2    5     -0.30      0.00
   12    2    5      0.07      0.00
   13    2    5      0.08      0.00
   14    2    5     -0.08      0.00
   15    2    5     -0.56      0.00
  -19    3    5     -0.24      0.00
  -18    3    5      0.12      0.00
  -17    3    5     -0.99      0.00
  -16    3    5      0.17      0.00
  -15    3    5      0.68      0.00
  -13    3    5      0.25      0.00
  -12    3    5      0.21      0.00
  -11    3    5     -0.81      0.00
  -10    3    5     -0.79      0.00
   -9    3    5      0.16      0.00
   -8    3    5     -0.90      0.00
   -7    3    5      1.36      0.00
   -6    3    5     -0.87      0.00
   -5    3    5     -0.45      0.00
   -4    3    5      1.22      0.00
   -3    3    5     -0.73      0.00
   -2    3    5      3.71      0.00
   -1    3    5     -0.84      0.00
    0    3    5      1.09      0.00
    1    3    5     -0.44      0.00
    2    3    5      1.24      0.00
    3    3    5      1.29      0.00
    4    3    5      1.08      0.00
    5    3    5     -1.15      0.00
    6    3    5     -0.35      0.00
    7    3    5      0.13      0.00
    8    3    5     -0.58      0.00
    9    3    5     -0.65      0.00
   10    3    5      0.43      0.00
   11    3    5     -0.81      0.00
   12    3    5      0.44      0.00
   13    3    5     -0.22      0.00
   14    3    5     -0.01      0.00
  -19    4    5      0.39      0.00
  -18    4    5      0.26      0.00
  -17    4    5      1.08      0.00
  -16    4    5     -0.71      0.00
  -13    4    5     -0.39      0.00
  -12    4    5      0.83      0.00
  -11    4    5     -0.80      0.00
  -10    4    5     -0.02      0.00
   -9    4    5      1.21      0.00
   -8    4    5     -1.31      0.00
   -7    4    5      1.72      0.00
   -6    4    5      0.31      0.00
   -5    4    5     -0.04      0.00
   -4    4    5      2.31      0.00
   -3    4    5     -1.07      0.00
   -2    4    5      1.00      0.00
   -1    4    5      1.95      0.00
    0    4    5     -1.61      0.00
    1    4    5     -0.43      0.00
    2    4    5      0.44      0.00
    3    4    5     -0.60      0.00
    4    4    5      0.98      0.00
    5    4    5     -0.66      0.00
    6    4    5      0.17      0.00
    7    4    5      0.54      0.00
    8    4    5      0.16      0.00
    9    4    5     -0.14      0.00
   10    4    5     -0.49      0.00
   11    4    5      0.16      0.00
   12    4    5     -0.30      0.00
   13    4    5      1.11      0.00
   14    4    5     -0.06      0.00
  -19    5    5     -0.47      0.00
  -18    5    5      0.34      0.00
  -17    5    5     -0.21      0.00
  -15    5    5     -0.63      0.00
  -14    5    5      0.85      0.00
  -13    5    5     -0.41      0.00
  -12    5    5     -0.09      0.00
  -11    5    5     -0.48      0.00
  -10    5    5     -1.10      0.00
   -9    5    5      0.97      0.00
   -8    5    5     -0.72      0.00
   -7    5    5     -0.12      0.00
   -6    5    5      0.22      0.00
   -5    5    5     -1.46      0.00
   -4    5    5      1.11      0.00
   -3    5    5      0.17      0.00
   -2    5    5     -1.26      0.00
   -1    5    5     -0.19      0.00
    0    5    5     -0.68      0.00
    1    5    5     -1.01      0.00
    2    5    5     -0.31      0.00
    3    5    5      0.27      0.00
    4    5    5      0.46      0.00
    5    5    5      0.02      0.00
    6    5    5     -0.31      0.00
    7    5    5      0.78      0.00
    8    5    5     -0.45      0.00
    9    5    5     -0.13      0.00
   10    5    5      0.15      0.00
   11    5    5     -0.34      0.00
   12    5    5      0.72      0.00
   13    5    5     -0.33      0.00
  -19    6    5     -0.14      0.00
  -18    6    5      0.83      0.00
  -17    6    5     -0.49      0.00
  -16    6    5      0.11      0.00
  -15    6    5     -0.05      0.00
  -14    6    5     -0.41      0.00
  -13    6    5      0.88      0.00
  -12    6    5     -0.41      0.00
  -11    6    5      0.27      0.00
  -10    6    5     -0.92      0.00
   -9    6    5      0.92      0.00
   -8    6    5     -0.03      0.00
   -7    6    5     -0.44      0.00
   -6    6    5      0.27      0.00
   -5    6    5     -0.62      0.00
   -4    6    5     -2.06      0.00
   -3    6    5      1.24      0.00
   -2    6    5     -0.55      0.00
   -1    6    5      1.09      0.00
    0    6    5     -0.77      0.00
    1    6    5      1.13      0.00
    2    6    5     -1.33      0.00
    3    6    5     -0.27      0.00
    4    6    5     -0.08      0.00
    5    6    5     -0.13      0.00
    6    6    5      0.04      0.00
    7    6    5      0.48      0.00
    8    6    5      0.64      0.00
    9    6    5     -0.09      0.00
   10    6    5      0.37      0.00
   11    6    5     -0.32      0.00
   12    6    5      0.11      0.00
   13    6    5      1.02      0.00
  -19    7    5     -0.83      0.00
  -18    7    5      0.74      0.00
  -17    7    5      0.36      0.00
  -16    7    5     -0.46      0.00
  -15    7    5      0.20      0.00
  -14    7    5     -0.15      0.00
  -13    7    5      0.25      0.00
  -12    7    5     -0.76      0.00
  -11    7    5     -0.03      0.00
  -10    7    5     -0.60      0.00
   -9    7    5      0.32      0.00
   -8    7    5      0.12      0.00
   -7    7    5     -1.47      0.00
   -6    7    5      0.25      0.00
   -5    7    5      0.34      0.00
   -4    7    5     -0.43      0.00
   -3    7    5     -0.75      0.00
   -2    7    5      0.81      0.00
   -1    7    5     -0.56      0.00
    0    7    5     -0.50      0.00
    1    7    5     -0.49      0.00
    2    7    5     -1.00      0.00
    3    7    5     -0.19      0.00
    4    7    5      0.07      0.00
    5    7    5      0.39      0.00
    6    7    5      0.00      0.00
    7    7    5      0.67      0.00
    8    7    5     -0.42      0.00
    9    7    5      0.69      0.00
   10    7    5     -0.42      0.00
   11    7    5      0.90      0.00
   12    7    5     -0.90      0.00
  -19    8    5     -1.10      0.00
  -18    8    5      0.11      0.00
  -17    8    5      0.34      0.00
  -16    8    5     -0.53      0.00
  -15    8    5     -0.14      0.00
  -14    8    5     -0.18      0.00
  -13    8    5      0.23      0.00
  -12    8    5     -0.02      0.00
  -11    8    5      0.05      0.00
  -10    8    5     -0.75      0.00
   -9    8    5      0.98      0.00
   -8    8    5     -0.21      0.00
   -7    8    5     -1.45      0.00
   -6    8    5      0.63      0.00
   -5    8    5     -1.07      0.00
   -4    8    5      0.76      0.00
   -3    8    5     -0.99      0.00
   -2    8    5      0.28      0.00
   -1    8    5      0.05      0.00
    0    8    5     -0.10      0.00
    1    8    5      0.18      0.00
    2    8    5      0.06      0.00
    3    8    5     -0.37      0.00
    4    8    5      0.47      0.00
    5    8    5      0.04      0.00
    6    8    5      0.33      0.00
    7    8    5      0.57      0.00
    8    8    5     -0.03      0.00
    9    8    5      0.93      0.00
   10    8    5     -0.82      0.00
   11    8    5      0.28      0.00
  -19    9    5     -0.11      0.00
  -18    9    5     -0.45      0.00
  -17    9    5      0.74      0.00
  -16    9    5      0.03      0.00
  -15    9    5     -0.29      0.00
  -14    9    5      1.52      0.00
  -13    9    5     -0.45      0.00
  -12    9    5     -0.56      0.00
  -11    9    5      0.53      0.00
  -10    9    5     -0.98      0.00
   -9    9    5      1.21      0.00
   -8    9    5      0.03      0.00
   -7    9    5     -0.86      0.00
   -6    9    5      0.12      0.00
   -5    9    5      0.61      0.00
   -4    9    5     -0.45      0.00
   -3    9    5     -0.03      0.00
   -2    9    5     -0.29      0.00
   -1    9    5     -0.13      0.00
    0    9    5      0.48      0.00
    1    9    5     -0.42      0.00
    2    9    5      0.54      0.00
    3    9    5     -0.14      0.00
    4    9    5      0.60      0.00
    5    9    5     -0.52      0.00
    6    9    5      0.16      0.00
    7    9    5     -0.23      0.00
    8    9    5     -0.82      0.00
    9    9    5      0.18      0.00
   10    9    5     -0.61      0.00
  -18   10    5      0.31      0.00
  -17   10    5     -0.08      0.00
  -16   10    5      0.88      0.00
  -15   10    5     -0.89      0.00
  -14   10    5      0.64      0.00
  -13   10    5      0.13      0.00
  -12   10    5     -0.14      0.00
  -11   10    5      0.26      0.00
  -10   10    5      0.17      0.00
   -9   10    5      0.11      0.00
   -8   10    5      0.26      0.00
   -7   10    5     -1.45      0.00
   -6   10    5     -0.28      0.00
   -5   10    5      1.03      0.00
   -4   10    5      0.41      0.00
   -3   10    5      1.27      0.00
   -2   10    5     -0.49      0.00
   -1   10    5     -0.03      0.00
    0   10    5     -0.28      0.00
    1   10    5      0.08      0.00
    2   10    5     -0.17      0.00
    3   10    5      0.59      0.00
    4   10    5      0.74      0.00
    5   10    5     -0.62      0.00
    6   10    5     -0.02      0.00
    7   10    5     -0.10      0.00
    8   10    5     -0.12      0.00
    9   10    5     -0.52      0.00
  -18   11    5     -0.30      0.00
  -17   11    5      0.14      0.00
  -16   11    5     -0.28      0.00
  -15   11    5      0.91      0.00
  -14   11    5      1.05      0.00
  -13   11    5     -0.51      0.00
  -12   11    5     -0.87      0.00
  -11   11    5      0.04      0.00
  -10   11    5      0.08      0.00
   -9   11    5      0.44      0.00
   -8   11    5      0.27      0.00
   -7   11    5      0.53      0.00
   -6   11    5     -0.96      0.00
   -5   11    5      1.86      0.00
   -4   11    5     -0.73      0.00
   -3   11    5      0.14      0.00
   -2   11    5     -0.17      0.00
   -1   11    5     -0.07      0.00
    0   11    5      0.64      0.00
    1   11    5      0.75      0.00
    2   11    5      0.12      0.00
    3   11    5      0.49      0.00
    4   11    5      0.77      0.00
    5   11    5      0.28      0.00
    6   11    5     -0.65      0.00
    7   11    5     -0.40      0.00
    8   11    5      0.66      0.00
  -17   12    5      0.37      0.00
  -16   12    5     -0.30      0.00
  -15   12    5     -0.82      0.00
  -14   12    5      0.61      0.00
  -13   12    5      0.97      0.00
  -12   12    5     -1.25      0.00
  -11   12    5      0.61      0.00
  -10   12    5      0.03      0.00
   -9   12    5     -0.42      0.00
   -8   12    5     -0.34      0.00
   -7   12    5     -0.95      0.00
   -6   12    5     -1.26      0.00
   -4   12    5      1.02      0.00
   -3   12    5      0.14      0.00
   -2   12    5      0.04      0.00
   -1   12    5     -0.51      0.00
    0   12    5     -0.71      0.00
    1   12    5      0.00      0.00
    2   12    5     -0.15      0.00
    3   12    5      0.93      0.00
    4   12    5     -0.16      0.00
    5   12    5     -0.06      0.00
    6   12    5     -0.07      0.00
    7   12    5     -1.48      0.00
  -16   13    5      0.90      0.00
  -15   13    5      0.36      0.00
  -14   13    5     -0.03      0.00
  -13   13    5     -0.26      0.00
  -12   13    5     -0.76      0.00
  -11   13    5     -1.01      0.00
  -10   13    5      0.94      0.00
   -9   13    5     -0.90      0.00
   -8   13    5      0.21      0.00
   -7   13    5      1.04      0.00
   -6   13    5     -0.15      0.00
   -5   13    5      0.64      0.00
   -4   13    5      0.78      0.00
   -3   13    5     -0.60      0.00
   -2   13    5     -0.13      0.00
   -1   13    5      0.25      0.00
    0   13    5      0.56      0.00
    1   13    5      0.15      0.00
    2   13    5     -0.15      0.00
    3   13    5      0.15      0.00
    4   13    5      1.04      0.00
    5   13    5     -0.77      0.00
    6   13    5      0.66      0.00
  -15   14    5      0.20      0.00
  -14   14    5      0.29      0.00
  -13   14    5      0.04      0.00
  -12   14    5     -0.13      0.00
  -11   14    5     -0.06      0.00
  -10   14    5      0.60      0.00
   -9   14    5     -0.42      0.00
   -8   14    5     -0.49      0.00
   -7   14    5     -0.47      0.00
   -6   14    5      0.54      0.00
   -5   14    5      0.50      0.00
   -4   14    5      0.73      0.00
   -3   14    5     -0.43      0.00
   -2   14    5     -0.05      0.00
   -1   14    5     -0.50      0.00
    0   14    5     -0.91      0.00
    1   14    5     -0.17      0.00
    2   14    5     -0.30      0.00
    3   14    5      0.06      0.00
    4   14    5     -0.16      0.00
  -14   15    5      0.83      0.00
  -13   15    5     -0.04      0.00
  -12   15    5     -0.30      0.00
  -11   15    5      0.09      0.00
  -10   15    5      0.11      0.00
   -9   15    5     -0.47      0.00
   -8   15    5     -0.66      0.00
   -7   15    5      0.32      0.00
   -6   15    5      0.33      0.00
   -5   15    5      0.29      0.00
   -4   15    5      0.38      0.00
   -3   15    5     -0.78      0.00
   -2   15    5     -0.49      0.00
   -1   15    5      0.16      0.00
    0   15    5      0.56      0.00
    1   15    5     -0.66      0.00
    2   15    5      0.22      0.00
  -13   16    5      0.05      0.00
  -12   16    5     -0.19      0.00
  -11   16    5      0.05      0.00
  -10   16    5      0.63      0.00
   -9   16    5     -0.67      0.00
   -8   16    5     -0.08      0.00
   -7   16    5      0.30      0.00
   -6   16    5      0.18      0.00
   -5   16    5     -0.10      0.00
   -4   16    5     -0.22      0.00
   -3   16    5      0.21      0.00
   -2   16    5     -0.57      0.00
   -1   16    5      0.00      0.00
    0   16    5     -0.63      0.00
  -10   17    5      0.85      0.00
   -9   17    5     -0.28      0.00
   -8   17    5     -0.81      0.00
   -7   17    5      0.40      0.00
   -6   17    5      1.00      0.00
   -5   17    5      0.38      0.00
   -4   17    5     -0.90      0.00
   -3   17    5      0.45      0.00
    0  -21    6     -0.43      0.00
    1  -21    6      0.56      0.00
    3  -21    6      0.34      0.00
    4  -21    6     -0.98      0.00
    5  -21    6     -1.91      0.00
    6  -21    6     -0.09      0.00
    7  -21    6      0.19      0.00
    8  -21    6     -1.06      0.00
    9  -21    6      0.75      0.00
   -3  -20    6     -0.51      0.00
   -2  -20    6      1.02      0.00
   -1  -20    6      0.92      0.00
    0  -20    6      0.32      0.00
    1  -20    6     -0.04      0.00
    2  -20    6      0.26      0.00
    3  -20    6     -1.21      0.00
    4  -20    6      1.02      0.00
    5  -20    6     -0.33      0.00
    6  -20    6     -0.30      0.00
    8  -20    6     -0.48      0.00
    9  -20    6     -0.52      0.00
   10  -20    6      1.11      0.00
   11  -20    6     -0.11      0.00
   -5  -19    6     -0.21      0.00
   -3  -19    6     -1.16      0.00
   -1  -19    6     -0.89      0.00
    0  -19    6      1.31      0.00
    1  -19    6     -1.25      0.00
    3  -19    6     -0.44      0.00
    4  -19    6     -1.73      0.00
    5  -19    6      0.36      0.00
    6  -19    6     -0.01      0.00
    7  -19    6     -0.93      0.00
    8  -19    6      0.85      0.00
    9  -19    6     -0.47      0.00
   10  -19    6      0.10      0.00
   11  -19    6      0.25      0.00
   12  -19    6     -0.20      0.00
   -6  -18    6     -1.66      0.00
   -5  -18    6     -0.29      0.00
   -4  -18    6     -0.01      0.00
   -3  -18    6     -0.03      0.00
   -2  -18    6      0.70      0.00
   -1  -18    6      1.63      0.00
    0  -18    6      0.32      0.00
    1  -18    6      0.07      0.00
    2  -18    6     -2.85      0.00
    5  -18    6      1.80      0.00
    6  -18    6      1.50      0.00
    7  -18    6     -1.00      0.00
    8  -18    6     -0.17      0.00
    9  -18    6      0.67      0.00
   10  -18    6     -0.21      0.00
   11  -18    6     -0.03      0.00
   12  -18    6     -0.42      0.00
   13  -18    6      1.49      0.00
   -8  -17    6     -0.10      0.00
   -7  -17    6      1.38      0.00
   -6  -17    6      0.38      0.00
   -5  -17    6     -0.36      0.00
   -4  -17    6      0.23      0.00
   -3  -17    6     -0.46      0.00
   -2  -17    6     -0.81      0.00
   -1  -17    6     -0.29      0.00
    0  -17    6      1.16      0.00
    1  -17    6      0.51      0.00
    2  -17    6     -0.43      0.00
    3  -17    6      2.79      0.00
    4  -17    6     -0.99      0.00
    6  -17    6      3.93      0.00
    7  -17    6     -1.69      0.00
    8  -17    6     -0.01      0.00
    9  -17    6      0.26      0.00
   10  -17    6      0.54      0.00
   11  -17    6      0.05      0.00
   12  -17    6     -1.15      0.00
   13  -17    6      0.40      0.00
   14  -17    6      0.03      0.00
   -9  -16    6      0.77      0.00
   -8  -16    6     -0.82      0.00
   -7  -16    6      0.30      0.00
   -6  -16    6     -0.12      0.00
   -5  -16    6     -0.92      0.00
   -4  -16    6     -0.91      0.00
   -3  -16    6      0.33      0.00
   -2  -16    6     -0.76      0.00
   -1  -16    6      0.39      0.00
    0  -16    6      0.46      0.00
    2  -16    6     -3.70      0.00
    3  -16    6      3.84      0.00
    4  -16    6     -0.49      0.00
    6  -16    6      1.61      0.00
    7  -16    6     -0.87      0.00
    8  -16    6      0.33      0.00
    9  -16    6     -0.17      0.00
   10  -16    6     -0.05      0.00
   11  -16    6     -0.08      0.00
   12  -16    6     -0.62      0.00
   13  -16    6     -0.24      0.00
   14  -16    6      0.65      0.00
   15  -16    6     -0.47      0.00
  -10  -15    6     -1.45      0.00
   -9  -15    6     -0.23      0.00
   -8  -15    6      1.34      0.00
   -7  -15    6     -0.57      0.00
   -6  -15    6      0.76      0.00
   -5  -15    6      0.14      0.00
   -4  -15    6      0.02      0.00
   -3  -15    6     -0.96      0.00
   -2  -15    6     -0.05      0.00
   -1  -15    6      0.04      0.00
    0  -15    6      0.25      0.00
    1  -15    6      2.23      0.00
    3  -15    6      1.19      0.00
    5  -15    6     -1.76      0.00
    7  -15    6     -2.57      0.00
    8  -15    6      0.52      0.00
    9  -15    6     -0.27      0.00
   10  -15    6     -0.05      0.00
   11  -15    6     -0.39      0.00
   12  -15    6     -0.23      0.00
   13  -15    6     -0.64      0.00
   14  -15    6      0.32      0.00
   15  -15    6      0.42      0.00
   16  -15    6     -0.22      0.00
  -11  -14    6      0.78      0.00
  -10  -14    6     -0.93      0.00
   -9  -14    6     -0.55      0.00
   -8  -14    6      0.72      0.00
   -7  -14    6      0.45      0.00
   -6  -14    6     -0.07      0.00
   -5  -14    6      0.06      0.00
   -4  -14    6      0.65      0.00
   -3  -14    6     -0.14      0.00
   -2  -14    6     -0.79      0.00
   -1  -14    6      0.44      0.00
    1  -14    6      0.35      0.00
    2  -14    6     -0.64      0.00
    3  -14    6     -0.84      0.00
    4  -14    6      2.40      0.00
    6  -14    6      1.57      0.00
    7  -14    6     -0.04      0.00
    8  -14    6     -0.20      0.00
    9  -14    6     -0.35      0.00
   10  -14    6      0.79      0.00
   11  -14    6     -0.45      0.00
   12  -14    6     -0.85      0.00
   13  -14    6     -0.54      0.00
   14  -14    6      0.65      0.00
   15  -14    6      0.49      0.00
   16  -14    6     -0.44      0.00
  -12  -13    6     -0.76      0.00
  -11  -13    6      0.70      0.00
  -10  -13    6     -0.39      0.00
   -9  -13    6     -0.36      0.00
   -8  -13    6      0.61      0.00
   -7  -13    6      0.52      0.00
   -6  -13    6     -0.48      0.00
   -5  -13    6      0.25      0.00
   -4  -13    6      0.13      0.00
   -3  -13    6     -0.19      0.00
   -2  -13    6     -0.16      0.00
   -1  -13    6      0.63      0.00
    0  -13    6      1.36      0.00
    1  -13    6     -2.41      0.00
    2  -13    6      1.59      0.00
    4  -13    6      1.31      0.00
    6  -13    6      0.46      0.00
    7  -13    6      0.05      0.00
    8  -13    6      0.87      0.00
    9  -13    6     -1.61      0.00
   10  -13    6     -0.37      0.00
   11  -13    6      1.39      0.00
   12  -13    6     -0.83      0.00
   13  -13    6     -0.38      0.00
   14  -13    6     -0.38      0.00
   15  -13    6      1.39      0.00
   16  -13    6     -0.91      0.00
  -13  -12    6      0.20      0.00
  -12  -12    6     -0.05      0.00
  -11  -12    6     -0.27      0.00
  -10  -12    6     -0.13      0.00
   -9  -12    6     -0.48      0.00
   -8  -12    6      0.61      0.00
   -7  -12    6      0.26      0.00
   -6  -12    6      0.20      0.00
   -5  -12    6     -0.25      0.00
   -4  -12    6      1.54      0.00
   -3  -12    6      0.40      0.00
   -2  -12    6     -0.12      0.00
   -1  -12    6     -0.90      0.00
    0  -12    6     -0.32      0.00
    1  -12    6     -0.87      0.00
    2  -12    6      0.88      0.00
    3  -12    6      0.06      0.00
    4  -12    6      1.37      0.00
    5  -12    6     -1.87      0.00
    6  -12    6      0.84      0.00
    7  -12    6     -0.38      0.00
    8  -12    6      0.99      0.00
    9  -12    6      0.09      0.00
   10  -12    6     -0.85      0.00
   11  -12    6      0.94      0.00
   12  -12    6     -0.51      0.00
   13  -12    6     -0.17      0.00
   14  -12    6     -0.08      0.00
   15  -12    6      0.40      0.00
   16  -12    6      0.18      0.00
   17  -12    6     -0.25      0.00
  -14  -11    6     -0.21      0.00
  -13  -11    6      0.14      0.00
  -12  -11    6     -0.40      0.00
  -11  -11    6      0.48      0.00
  -10  -11    6      0.42      0.00
   -9  -11    6     -0.12      0.00
   -8  -11    6      0.66      0.00
   -7  -11    6      0.66      0.00
   -6  -11    6     -0.58      0.00
   -5  -11    6      0.27      0.00
   -4  -11    6     -0.22      0.00
   -3  -11    6      0.32      0.00
   -2  -11    6     -0.95      0.00
   -1  -11    6      1.14      0.00
    0  -11    6      0.51      0.00
    1  -11    6     -0.92      0.00
    2  -11    6      2.65      0.00
    3  -11    6     -0.29      0.00
    4  -11    6      0.77      0.00
    5  -11    6     -0.24      0.00
    6  -11    6     -0.23      0.00
    7  -11    6      1.22      0.00
    8  -11    6     -0.36      0.00
    9  -11    6      0.63      0.00
   10  -11    6     -0.36      0.00
   11  -11    6      0.41      0.00
   12  -11    6     -0.58      0.00
   13  -11    6     -0.55      0.00
   14  -11    6      0.16      0.00
   15  -11    6     -0.22      0.00
   16  -11    6      0.63      0.00
   17  -11    6     -0.21      0.00
  -15  -10    6     -0.29      0.00
  -14  -10    6     -0.10      0.00
  -13  -10    6      0.85      0.00
  -12  -10    6     -0.65      0.00
  -11  -10    6      0.36      0.00
  -10  -10    6      0.26      0.00
   -9  -10    6     -0.67      0.00
   -8  -10    6     -0.26      0.00
   -7  -10    6      0.83      0.00
   -6  -10    6     -1.13      0.00
   -5  -10    6     -0.99      0.00
   -4  -10    6      0.64      0.00
   -3  -10    6     -0.28      0.00
   -2  -10    6     -2.15      0.00
   -1  -10    6     -0.23      0.00
    0  -10    6      0.14      0.00
    1  -10    6     -0.58      0.00
    2  -10    6     -0.13      0.00
    3  -10    6      1.84      0.00
    4  -10    6      0.01      0.00
    5  -10    6     -0.08      0.00
    6  -10    6      0.06      0.00
    7  -10    6      1.06      0.00
    8  -10    6     -0.46      0.00
    9  -10    6     -0.86      0.00
   10  -10    6      0.47      0.00
   11  -10    6      0.13      0.00
   12  -10    6      0.25      0.00
   13  -10    6     -0.39      0.00
   14  -10    6      0.42      0.00
   15  -10    6     -0.81      0.00
   16  -10    6     -0.68      0.00
  -15   -9    6     -0.19      0.00
  -14   -9    6     -0.28      0.00
  -13   -9    6      0.09      0.00
  -12   -9    6     -0.13      0.00
  -11   -9    6     -0.64      0.00
  -10   -9    6      0.77      0.00
   -9   -9    6     -0.33      0.00
   -8   -9    6     -0.39      0.00
   -7   -9    6     -0.27      0.00
   -6   -9    6      0.78      0.00
   -5   -9    6     -0.90      0.00
   -4   -9    6     -0.45      0.00
   -3   -9    6      1.32      0.00
   -2   -9    6     -2.70      0.00
   -1   -9    6      0.43      0.00
    0   -9    6     -0.10      0.00
    1   -9    6      0.07      0.00
    2   -9    6      0.44      0.00
    3   -9    6      0.29      0.00
    4   -9    6     -0.27      0.00
    5   -9    6     -0.12      0.00
    6   -9    6     -1.56      0.00
    7   -9    6      1.03      0.00
    8   -9    6      0.69      0.00
    9   -9    6     -0.95      0.00
   10   -9    6      0.39      0.00
   11   -9    6     -0.37      0.00
   12   -9    6     -0.11      0.00
   13   -9    6     -0.69      0.00
   14   -9    6      0.27      0.00
   17   -9    6     -0.07      0.00
  -16   -8    6     -0.07      0.00
  -15   -8    6     -0.28      0.00
  -14   -8    6      0.19      0.00
  -13   -8    6      0.21      0.00
  -12   -8    6      0.27      0.00
  -11   -8    6      0.41      0.00
  -10   -8    6     -0.25      0.00
   -9   -8    6     -0.44      0.00
   -8   -8    6     -0.05      0.00
   -7   -8    6      0.13      0.00
   -6   -8    6     -0.85      0.00
   -5   -8    6     -0.39      0.00
   -4   -8    6     -0.36      0.00
   -3   -8    6     -0.14      0.00
   -2   -8    6     -2.05      0.00
   -1   -8    6     -0.56      0.00
    0   -8    6      0.67      0.00
    1   -8    6     -0.11      0.00
    2   -8    6      0.24      0.00
    3   -8    6      0.53      0.00
    4   -8    6     -1.45      0.00
    5   -8    6      1.36      0.00
    6   -8    6     -0.18      0.00
    7   -8    6     -0.20      0.00
    8   -8    6      0.40      0.00
    9   -8    6     -0.62      0.00
   10   -8    6     -0.23      0.00
   11   -8    6      0.21      0.00
   12   -8    6      0.35      0.00
   13   -8    6      0.29      0.00
   15   -8    6      0.28      0.00
   16   -8    6     -0.84      0.00
   17   -8    6      0.15      0.00
  -16   -7    6      0.46      0.00
  -15   -7    6     -0.61      0.00
  -14   -7    6      0.35      0.00
  -13   -7    6     -0.11      0.00
  -12   -7    6      0.03      0.00
  -11   -7    6     -0.47      0.00
  -10   -7    6      0.37      0.00
   -9   -7    6     -0.20      0.00
   -8   -7    6     -0.99      0.00
   -7   -7    6      1.06      0.00
   -6   -7    6      0.67      0.00
   -5   -7    6     -0.66      0.00
   -4   -7    6     -1.16      0.00
   -3   -7    6      1.48      0.00
   -2   -7    6     -1.66      0.00
   -1   -7    6      0.18      0.00
    0   -7    6     -0.15      0.00
    1   -7    6     -0.63      0.00
    2   -7    6      1.02      0.00
    3   -7    6     -0.07      0.00
    4   -7    6     -0.69      0.00
    5   -7    6     -0.44      0.00
    6   -7    6      0.29      0.00
    7   -7    6     -0.39      0.00
    8   -7    6      0.11      0.00
    9   -7    6     -0.32      0.00
   10   -7    6     -0.15      0.00
   11   -7    6     -0.10      0.00
   12   -7    6     -0.76      0.00
   14   -7    6     -0.42      0.00
   15   -7    6      1.02      0.00
   16   -7    6      0.12      0.00
   17   -7    6      0.46      0.00
  -17   -6    6      0.04      0.00
  -16   -6    6      0.34      0.00
  -15   -6    6     -0.67      0.00
  -14   -6    6     -0.07      0.00
  -13   -6    6     -0.10      0.00
  -12   -6    6      0.57      0.00
  -11   -6    6     -0.18      0.00
  -10   -6    6      0.11      0.00
   -9   -6    6      1.52      0.00
   -8   -6    6     -0.70      0.00
   -7   -6    6      0.10      0.00
   -6   -6    6      0.58      0.00
   -5   -6    6     -1.03      0.00
   -4   -6    6     -0.28      0.00
   -3   -6    6      0.81      0.00
   -1   -6    6      1.74      0.00
    0   -6    6      2.90      0.00
    1   -6    6     -1.45      0.00
    2   -6    6      2.25      0.00
    3   -6    6     -0.94      0.00
    4   -6    6     -0.50      0.00
    5   -6    6      0.89      0.00
    6   -6    6      0.77      0.00
    7   -6    6      0.16      0.00
    8   -6    6      1.33      0.00
    9   -6    6     -0.16      0.00
   10   -6    6     -0.16      0.00
   12   -6    6      0.21      0.00
   13   -6    6     -0.34      0.00
   14   -6    6      0.37      0.00
   15   -6    6     -0.03      0.00
   16   -6    6      0.22      0.00
   17   -6    6     -0.13      0.00
  -17   -5    6      0.23      0.00
  -16   -5    6     -0.05      0.00
  -15   -5    6     -0.01      0.00
  -14   -5    6     -0.09      0.00
  -13   -5    6      0.15      0.00
  -12   -5    6     -0.05      0.00
  -11   -5    6      0.07      0.00
  -10   -5    6     -1.48      0.00
   -9   -5    6      0.70      0.00
   -8   -5    6      0.33      0.00
   -7   -5    6     -0.08      0.00
   -6   -5    6      1.70      0.00
   -5   -5    6     -0.05      0.00
   -4   -5    6     -3.43      0.00
   -3   -5    6      4.88      0.00
   -2   -5    6     -1.33      0.00
   -1   -5    6     -0.74      0.00
    0   -5    6      2.64      0.00
    1   -5    6     -1.51      0.00
    2   -5    6      0.84      0.00
    3   -5    6      0.36      0.00
    4   -5    6     -0.59      0.00
    5   -5    6     -0.34      0.00
    6   -5    6      1.22      0.00
    7   -5    6     -1.06      0.00
    8   -5    6      0.70      0.00
    9   -5    6      0.19      0.00
   11   -5    6     -0.53      0.00
   12   -5    6     -0.03      0.00
   13   -5    6     -1.39      0.00
   14   -5    6      0.12      0.00
   15   -5    6      0.57      0.00
   16   -5    6      0.56      0.00
   17   -5    6      0.53      0.00
  -18   -4    6      0.18      0.00
  -17   -4    6      0.56      0.00
  -16   -4    6     -0.23      0.00
  -15   -4    6     -0.01      0.00
  -14   -4    6     -0.43      0.00
  -13   -4    6     -0.51      0.00
  -12   -4    6     -0.64      0.00
  -11   -4    6      0.36      0.00
  -10   -4    6      0.26      0.00
   -9   -4    6      0.56      0.00
   -8   -4    6      0.47      0.00
   -7   -4    6     -0.10      0.00
   -6   -4    6      0.29      0.00
   -5   -4    6      1.30      0.00
   -4   -4    6     -3.09      0.00
   -3   -4    6      1.34      0.00
   -2   -4    6     -1.20      0.00
   -1   -4    6      1.97      0.00
    0   -4    6      3.15      0.00
    1   -4    6     -1.61      0.00
    2   -4    6      0.95      0.00
    3   -4    6     -2.54      0.00
    4   -4    6      0.31      0.00
    5   -4    6     -0.90      0.00
    6   -4    6      1.35      0.00
    7   -4    6     -0.47      0.00
    8   -4    6      0.73      0.00
    9   -4    6     -0.06      0.00
   10   -4    6      0.00      0.00
   11   -4    6     -0.13      0.00
   12   -4    6      0.20      0.00
   13   -4    6     -0.40      0.00
   14   -4    6     -0.34      0.00
   15   -4    6      0.00      0.00
   16   -4    6      0.46      0.00
  -18   -3    6      0.05      0.00
  -17   -3    6     -0.07      0.00
  -16   -3    6     -0.58      0.00
  -15   -3    6     -0.49      0.00
  -14   -3    6      0.25      0.00
  -13   -3    6     -0.22      0.00
  -12   -3    6      0.27      0.00
  -11   -3    6     -0.59      0.00
  -10   -3    6     -0.57      0.00
   -9   -3    6      0.69      0.00
   -8   -3    6     -0.26      0.00
   -7   -3    6      0.08      0.00
   -6   -3    6      1.11      0.00
   -5   -3    6      2.14      0.00
   -4   -3    6     -3.58      0.00
   -2   -3    6     -0.53      0.00
   -1   -3    6     -2.51      0.00
    0   -3    6      4.47      0.00
    1   -3    6     -1.69      0.00
    2   -3    6     -0.65      0.00
    3   -3    6      0.07      0.00
    4   -3    6     -0.53      0.00
    5   -3    6     -0.56      0.00
    6   -3    6      0.82      0.00
    7   -3    6     -0.74      0.00
    8   -3    6     -0.06      0.00
    9   -3    6      0.00      0.00
   10   -3    6      0.19      0.00
   11   -3    6     -0.32      0.00
   12   -3    6     -0.32      0.00
   13   -3    6     -0.34      0.00
   14   -3    6     -0.60      0.00
   15   -3    6      0.20      0.00
   16   -3    6      0.59      0.00
  -18   -2    6      0.13      0.00
  -17   -2    6      1.25      0.00
  -16   -2    6     -0.61      0.00
  -15   -2    6      0.08      0.00
  -14   -2    6      0.14      0.00
  -13   -2    6     -0.71      0.00
  -12   -2    6     -0.19      0.00
  -11   -2    6      0.49      0.00
  -10   -2    6     -1.14      0.00
   -9   -2    6      0.73      0.00
   -8   -2    6      0.97      0.00
   -7   -2    6     -1.52      0.00
   -6   -2    6      0.68      0.00
   -5   -2    6      0.96      0.00
   -4   -2    6     -5.33      0.00
   -3   -2    6     -3.47      0.00
   -2   -2    6      1.48      0.00
   -1   -2    6     -4.74      0.00
    0   -2    6      1.52      0.00
    1   -2    6      0.94      0.00
    2   -2    6     -2.66      0.00
    3   -2    6     -1.25      0.00
    4   -2    6     -0.55      0.00
    5   -2    6     -0.11      0.00
    6   -2    6     -0.02      0.00
    7   -2    6     -0.47      0.00
    8   -2    6     -0.15      0.00
    9   -2    6     -0.26      0.00
   10   -2    6      0.38      0.00
   11   -2    6      0.33      0.00
   12   -2    6      0.03      0.00
   13   -2    6     -0.18      0.00
   14   -2    6     -0.30      0.00
   15   -2    6     -0.42      0.00
   16   -2    6      0.46      0.00
  -19   -1    6     -0.58      0.00
  -18   -1    6     -0.19      0.00
  -17   -1    6      0.25      0.00
  -16   -1    6     -0.21      0.00
  -15   -1    6     -1.42      0.00
  -14   -1    6      1.04      0.00
  -13   -1    6     -0.28      0.00
  -12   -1    6      0.13      0.00
  -11   -1    6      0.51      0.00
  -10   -1    6     -0.37      0.00
   -9   -1    6     -0.44      0.00
   -8   -1    6      0.22      0.00
   -7   -1    6     -1.33      0.00
   -6   -1    6     -1.25      0.00
   -5   -1    6      1.93      0.00
   -4   -1    6     -2.84      0.00
   -3   -1    6     -1.78      0.00
   -2   -1    6      3.32      0.00
   -1   -1    6     -2.26      0.00
    0   -1    6      2.77      0.00
    1   -1    6      0.43      0.00
    2   -1    6     -0.95      0.00
    3   -1    6     -0.18      0.00
    4   -1    6     -0.41      0.00
    5   -1    6      0.45      0.00
    6   -1    6      0.40      0.00
    7   -1    6     -0.04      0.00
    8   -1    6     -1.08      0.00
    9   -1    6      0.45      0.00
   10   -1    6      0.23      0.00
   11   -1    6      0.41      0.00
   12   -1    6     -0.07      0.00
   13   -1    6     -0.04      0.00
   14   -1    6     -0.06      0.00
   15   -1    6      0.36      0.00
   16   -1    6      0.10      0.00
  -19    0    6     -0.34      0.00
  -18    0    6      0.23      0.00
  -17    0    6      0.50      0.00
  -16    0    6      0.44      0.00
  -15    0    6     -0.27      0.00
  -14    0    6      0.39      0.00
  -13    0    6      0.06      0.00
  -12    0    6      0.08      0.00
  -11    0    6      0.22      0.00
  -10    0    6      0.53      0.00
   -9    0    6     -0.12      0.00
   -8    0    6      1.59      0.00
   -7    0    6     -0.31      0.00
   -6    0    6     -0.89      0.00
   -5    0    6      1.78      0.00
   -4    0    6     -3.35      0.00
   -3    0    6     -2.46      0.00
   -2    0    6      2.23      0.00
   -1    0    6     -4.50      0.00
    0    0    6      3.07      0.00
    1    0    6      1.05      0.00
    2    0    6     -2.42      0.00
    3    0    6     -0.14      0.00
    4    0    6      0.57      0.00
    5    0    6      0.93      0.00
    6    0    6     -0.14      0.00
    7    0    6      1.04      0.00
    9    0    6      0.09      0.00
   10    0    6      0.29      0.00
   11    0    6      0.68      0.00
   12    0    6     -0.36      0.00
   13    0    6     -0.43      0.00
   14    0    6      0.29      0.00
   15    0    6     -0.37      0.00
  -19    1    6     -0.70      0.00
  -18    1    6      0.40      0.00
  -17    1    6     -0.58      0.00
  -16    1    6     -0.33      0.00
  -15    1    6     -0.72      0.00
  -14    1    6      0.43      0.00
  -13    1    6      0.11      0.00
  -12    1    6      0.32      0.00
  -11    1    6      0.31      0.00
  -10    1    6      0.65      0.00
   -9    1    6     -0.40      0.00
   -8    1    6      0.24      0.00
   -7    1    6     -0.18      0.00
   -6    1    6     -1.29      0.00
   -5    1    6      1.49      0.00
   -4    1    6     -1.45      0.00
   -3    1    6     -0.15      0.00
   -2    1    6      5.11      0.00
   -1    1    6      0.18      0.00
    0    1    6      0.06      0.00
    1    1    6      3.71      0.00
    2    1    6     -1.47      0.00
    3    1    6      0.04      0.00
    4    1    6      0.16      0.00
    5    1    6      1.29      0.00
    6    1    6     -0.83      0.00
    7    1    6     -0.06      0.00
    8    1    6     -0.48      0.00
    9    1    6     -0.40      0.00
   10    1    6      0.06      0.00
   11    1    6      0.30      0.00
   12    1    6     -0.42      0.00
   13    1    6     -0.69      0.00
   14    1    6      0.20      0.00
   15    1    6      1.08      0.00
  -19    2    6     -0.47      0.00
  -18    2    6      0.35      0.00
  -17    2    6      0.73      0.00
  -16    2    6     -0.04      0.00
  -15    2    6     -0.06      0.00
  -14    2    6     -0.03      0.00
  -13    2    6      0.06      0.00
  -12    2    6      0.08      0.00
  -11    2    6      0.59      0.00
  -10    2    6      0.71      0.00
   -9    2    6     -0.03      0.00
   -8    2    6      1.47      0.00
   -7    2    6     -0.10      0.00
   -6    2    6     -0.05      0.00
   -5    2    6      3.58      0.00
   -4    2    6     -1.77      0.00
   -3    2    6      2.00      0.00
   -2    2    6     -0.13      0.00
   -1    2    6      3.29      0.00
    0    2    6      0.41      0.00
    1    2    6      0.01      0.00
    2    2    6     -1.01      0.00
    3    2    6     -0.16      0.00
    4    2    6     -0.07      0.00
    5    2    6      1.47      0.00
    6    2    6      0.23      0.00
    7    2    6     -0.33      0.00
    8    2    6      0.40      0.00
    9    2    6     -0.07      0.00
   10    2    6      0.00      0.00
   11    2    6      0.35      0.00
   12    2    6     -0.54      0.00
   13    2    6     -0.15      0.00
   14    2    6      0.01      0.00
  -19    3    6     -0.15      0.00
  -18    3    6      0.24      0.00
  -17    3    6     -0.40      0.00
  -16    3    6      0.20      0.00
  -15    3    6     -0.45      0.00
  -14    3    6      0.13      0.00
  -13    3    6     -0.01      0.00
  -12    3    6     -0.10      0.00
  -11    3    6      0.35      0.00
  -10    3    6      0.05      0.00
   -9    3    6     -0.98      0.00
   -8    3    6      0.54      0.00
   -7    3    6      0.37      0.00
   -6    3    6     -1.19      0.00
   -5    3    6      1.97      0.00
   -4    3    6     -0.92      0.00
   -3    3    6      0.89      0.00
   -2    3    6      1.11      0.00
   -1    3    6     -1.84      0.00
    0    3    6      1.49      0.00
    1    3    6      0.99      0.00
    2    3    6     -0.89      0.00
    3    3    6      1.16      0.00
    4    3    6     -0.69      0.00
    5    3    6      0.92      0.00
    6    3    6     -0.21      0.00
    8    3    6      0.30      0.00
    9    3    6     -0.19      0.00
   10    3    6      0.39      0.00
   11    3    6     -0.05      0.00
   12    3    6     -0.11      0.00
   13    3    6     -1.02      0.00
   14    3    6      1.21      0.00
  -19    4    6      0.11      0.00
  -18    4    6      0.17      0.00
  -17    4    6      0.69      0.00
  -16    4    6     -0.51      0.00
  -15    4    6      0.25      0.00
  -14    4    6      0.03      0.00
  -13    4    6     -0.09      0.00
  -12    4    6      0.85      0.00
  -11    4    6      0.17      0.00
  -10    4    6      0.24      0.00
   -9    4    6     -0.54      0.00
   -8    4    6      0.03      0.00
   -7    4    6      0.95      0.00
   -6    4    6     -0.69      0.00
   -5    4    6      1.25      0.00
   -4    4    6     -1.10      0.00
   -3    4    6     -1.71      0.00
   -2    4    6      1.96      0.00
   -1    4    6      1.13      0.00
    0    4    6     -0.03      0.00
    1    4    6      0.30      0.00
    2    4    6     -0.32      0.00
    3    4    6     -0.41      0.00
    4    4    6     -1.01      0.00
    5    4    6      0.12      0.00
    6    4    6      0.27      0.00
    7    4    6     -0.85      0.00
    8    4    6      0.79      0.00
    9    4    6      0.78      0.00
   10    4    6      0.05      0.00
   11    4    6      0.84      0.00
   12    4    6     -0.04      0.00
   13    4    6     -0.28      0.00
  -19    5    6     -0.38      0.00
  -18    5    6     -0.41      0.00
  -17    5    6      0.68      0.00
  -16    5    6     -0.13      0.00
  -15    5    6     -0.61      0.00
  -14    5    6      0.34      0.00
  -13    5    6     -0.97      0.00
  -12    5    6      0.52      0.00
  -11    5    6     -0.07      0.00
  -10    5    6      0.10      0.00
   -9    5    6     -0.68      0.00
   -8    5    6     -0.23      0.00
   -7    5    6      0.39      0.00
   -6    5    6     -0.21      0.00
   -5    5    6     -0.14      0.00
   -4    5    6      2.70      0.00
   -3    5    6     -3.59      0.00
   -2    5    6      0.00      0.00
   -1    5    6     -1.83      0.00
    0    5    6      0.85      0.00
    1    5    6     -1.43      0.00
    2    5    6      0.44      0.00
    3    5    6      0.41      0.00
    4    5    6     -1.06      0.00
    5    5    6      0.37      0.00
    6    5    6      0.08      0.00
    7    5    6     -0.43      0.00
    8    5    6     -0.36      0.00
    9    5    6      1.08      0.00
   10    5    6      0.04      0.00
   12    5    6      0.72      0.00
   13    5    6     -1.02      0.00
  -19    6    6      0.65      0.00
  -18    6    6     -1.38      0.00
  -17    6    6     -0.05      0.00
  -16    6    6     -0.11      0.00
  -15    6    6     -0.74      0.00
  -14    6    6      0.26      0.00
  -13    6    6     -0.55      0.00
  -12    6    6      1.28      0.00
  -11    6    6     -0.44      0.00
  -10    6    6     -0.21      0.00
   -9    6    6     -0.10      0.00
   -8    6    6     -0.34      0.00
   -7    6    6      0.96      0.00
   -6    6    6     -0.31      0.00
   -5    6    6     -1.78      0.00
   -4    6    6      0.67      0.00
   -3    6    6     -0.55      0.00
   -2    6    6     -1.48      0.00
   -1    6    6      0.99      0.00
    0    6    6     -0.21      0.00
    1    6    6      0.55      0.00
    2    6    6     -0.04      0.00
    3    6    6      0.22      0.00
    4    6    6     -1.17      0.00
    5    6    6     -0.73      0.00
    6    6    6      1.01      0.00
    7    6    6     -0.51      0.00
    8    6    6      0.33      0.00
    9    6    6      0.62      0.00
   10    6    6      1.20      0.00
   11    6    6     -0.46      0.00
   12    6    6      0.72      0.00
  -19    7    6      0.88      0.00
  -18    7    6     -0.42      0.00
  -17    7    6      0.01      0.00
  -16    7    6      0.49      0.00
  -15    7    6     -0.48      0.00
  -14    7    6      0.37      0.00
  -13    7    6     -0.99      0.00
  -12    7    6      0.28      0.00
  -11    7    6     -0.07      0.00
  -10    7    6     -0.03      0.00
   -9    7    6     -0.61      0.00
   -8    7    6     -0.06      0.00
   -7    7    6      0.49      0.00
   -6    7    6     -0.65      0.00
   -5    7    6      0.77      0.00
   -4    7    6     -0.59      0.00
   -3    7    6      0.74      0.00
   -2    7    6     -2.39      0.00
   -1    7    6      0.03      0.00
    0    7    6     -0.40      0.00
    1    7    6     -0.24      0.00
    2    7    6     -0.18      0.00
    3    7    6      0.92      0.00
    4    7    6      0.04      0.00
    5    7    6     -0.50      0.00
    6    7    6      0.19      0.00
    7    7    6      0.36      0.00
    8    7    6     -0.45      0.00
    9    7    6     -0.43      0.00
   10    7    6      0.87      0.00
   11    7    6      0.04      0.00
  -19    8    6     -0.36      0.00
  -18    8    6     -0.16      0.00
  -17    8    6     -0.47      0.00
  -16    8    6      0.03      0.00
  -15    8    6      0.15      0.00
  -14    8    6     -0.71      0.00
  -13    8    6      0.29      0.00
  -12    8    6      0.38      0.00
  -11    8    6     -0.51      0.00
  -10    8    6      0.31      0.00
   -9    8    6     -0.08      0.00
   -8    8    6      0.02      0.00
   -7    8    6      0.60      0.00
   -6    8    6     -0.69      0.00
   -5    8    6     -0.48      0.00
   -4    8    6      0.89      0.00
   -3    8    6      0.36      0.00
   -2    8    6     -0.75      0.00
   -1    8    6      0.03      0.00
    0    8    6     -0.25      0.00
    2    8    6     -0.52      0.00
    3    8    6      0.50      0.00
    4    8    6     -0.65      0.00
    5    8    6      0.74      0.00
    6    8    6     -0.35      0.00
    7    8    6      0.36      0.00
    8    8    6      0.45      0.00
    9    8    6     -0.76      0.00
   10    8    6      0.17      0.00
  -18    9    6     -0.74      0.00
  -17    9    6      0.71      0.00
  -16    9    6      0.02      0.00
  -15    9    6      0.46      0.00
  -14    9    6      0.28      0.00
  -13    9    6     -0.35      0.00
  -12    9    6      0.04      0.00
  -11    9    6     -0.18      0.00
  -10    9    6     -0.33      0.00
   -9    9    6      0.65      0.00
   -8    9    6      0.40      0.00
   -7    9    6      1.43      0.00
   -6    9    6     -0.67      0.00
   -5    9    6     -0.08      0.00
   -4    9    6     -0.13      0.00
   -3    9    6     -0.56      0.00
   -2    9    6     -0.03      0.00
   -1    9    6      0.09      0.00
    0    9    6      0.41      0.00
    1    9    6      0.45      0.00
    2    9    6     -0.02      0.00
    3    9    6      0.60      0.00
    4    9    6     -0.44      0.00
    5    9    6      0.09      0.00
    6    9    6     -0.04      0.00
    7    9    6     -0.24      0.00
    8    9    6     -0.39      0.00
    9    9    6     -0.32      0.00
  -18   10    6      0.33      0.00
  -17   10    6     -0.38      0.00
  -16   10    6      1.11      0.00
  -15   10    6     -0.88      0.00
  -14   10    6     -0.31      0.00
  -13   10    6      0.56      0.00
  -12   10    6      0.43      0.00
  -11   10    6     -0.10      0.00
  -10   10    6     -0.22      0.00
   -9   10    6      0.53      0.00
   -8   10    6     -0.06      0.00
   -7   10    6     -0.66      0.00
   -6   10    6      0.58      0.00
   -5   10    6     -1.21      0.00
   -4   10    6      1.24      0.00
   -3   10    6      0.24      0.00
   -2   10    6      0.80      0.00
   -1   10    6      0.16      0.00
    0   10    6     -0.37      0.00
    1   10    6      0.56      0.00
    2   10    6     -0.76      0.00
    3   10    6     -0.13      0.00
    4   10    6     -0.19      0.00
    5   10    6     -0.29      0.00
    6   10    6     -0.20      0.00
    7   10    6      0.69      0.00
    8   10    6     -0.85      0.00
  -17   11    6     -0.20      0.00
  -16   11    6      0.42      0.00
  -15   11    6      0.15      0.00
  -14   11    6     -0.46      0.00
  -13   11    6     -0.61      0.00
  -12   11    6      0.28      0.00
  -11   11    6     -0.50      0.00
  -10   11    6     -0.71      0.00
   -9   11    6      0.58      0.00
   -8   11    6      1.08      0.00
   -7   11    6      0.41      0.00
   -6   11    6     -0.05      0.00
   -4   11    6     -1.38      0.00
   -3   11    6     -0.56      0.00
   -2   11    6      1.17      0.00
   -1   11    6      0.95      0.00
    0   11    6      0.35      0.00
    1   11    6      0.75      0.00
    2   11    6      0.06      0.00
    3   11    6     -0.89      0.00
    4   11    6      0.39      0.00
    5   11    6      0.58      0.00
    6   11    6     -0.84      0.00
    7   11    6      1.28      0.00
  -17   12    6      1.29      0.00
  -16   12    6     -1.45      0.00
  -15   12    6     -0.64      0.00
  -14   12    6     -0.62      0.00
  -13   12    6      0.32      0.00
  -12   12    6      0.35      0.00
  -11   12    6      0.63      0.00
  -10   12    6     -0.79      0.00
   -9   12    6      0.64      0.00
   -8   12    6     -0.01      0.00
   -7   12    6     -0.72      0.00
   -6   12    6     -0.17      0.00
   -5   12    6     -0.06      0.00
   -4   12    6     -0.19      0.00
   -3   12    6      0.20      0.00
   -2   12    6      0.27      0.00
   -1   12    6      0.69      0.00
    0   12    6     -1.10      0.00
    1   12    6      0.28      0.00
    2   12    6     -0.16      0.00
    3   12    6     -0.22      0.00
    4   12    6     -1.35      0.00
    5   12    6      0.80      0.00
    6   12    6     -0.83      0.00
  -16   13    6      1.05      0.00
  -15   13    6     -1.16      0.00
  -14   13    6      0.21      0.00
  -13   13    6     -0.26      0.00
  -12   13    6      0.12      0.00
  -11   13    6      0.13      0.00
  -10   13    6     -0.63      0.00
   -9   13    6      0.53      0.00
   -8   13    6      0.59      0.00
   -7   13    6      1.00      0.00
   -6   13    6     -0.97      0.00
   -5   13    6      0.61      0.00
   -4   13    6     -1.58      0.00
   -3   13    6      0.64      0.00
   -2   13    6      0.25      0.00
   -1   13    6      1.46      0.00
    0   13    6      0.62      0.00
    1   13    6     -0.12      0.00
    2   13    6     -0.41      0.00
    3   13    6     -0.44      0.00
    4   13    6      0.11      0.00
    5   13    6      0.08      0.00
  -15   14    6     -0.69      0.00
  -14   14    6     -0.64      0.00
  -13   14    6      0.01      0.00
  -12   14    6      0.44      0.00
  -11   14    6      0.13      0.00
  -10   14    6      0.27      0.00
   -9   14    6      0.42      0.00
   -8   14    6      0.10      0.00
   -7   14    6      0.51      0.00
   -6   14    6     -0.81      0.00
   -5   14    6      0.02      0.00
   -4   14    6     -0.29      0.00
   -3   14    6      0.21      0.00
   -2   14    6      0.39      0.00
   -1   14    6      0.00      0.00
    0   14    6     -0.96      0.00
    1   14    6      0.32      0.00
    2   14    6     -0.51      0.00
    3   14    6     -0.41      0.00
  -14   15    6      0.78      0.00
  -13   15    6      0.74      0.00
  -12   15    6     -0.04      0.00
  -11   15    6      0.48      0.00
  -10   15    6     -0.31      0.00
   -9   15    6      0.59      0.00
   -8   15    6     -0.77      0.00
   -7   15    6      0.34      0.00
   -6   15    6     -0.71      0.00
   -5   15    6     -0.26      0.00
   -4   15    6     -0.41      0.00
   -3   15    6     -0.15      0.00
   -2   15    6     -0.27      0.00
   -1   15    6      1.39      0.00
    0   15    6     -0.11      0.00
    1   15    6     -0.30      0.00
  -12   16    6     -0.76      0.00
  -11   16    6     -0.14      0.00
  -10   16    6     -0.05      0.00
   -9   16    6      0.37      0.00
   -8   16    6      0.10      0.00
   -7   16    6      0.43      0.00
   -6   16    6     -1.35      0.00
   -5   16    6     -0.29      0.00
   -4   16    6      0.39      0.00
   -3   16    6     -0.25      0.00
   -2   16    6      0.45      0.00
   -1  -21    7      0.36      0.00
    0  -21    7      0.17      0.00
    1  -21    7     -0.23      0.00
    2  -21    7     -0.77      0.00
    3  -21    7      0.59      0.00
    4  -21    7     -1.17      0.00
    5  -21    7      0.55      0.00
    6  -21    7      0.32      0.00
    7  -21    7     -0.92      0.00
    8  -21    7     -0.49      0.00
    9  -21    7      0.25      0.00
   -2  -20    7     -0.85      0.00
   -1  -20    7      1.51      0.00
    0  -20    7     -1.56      0.00
    1  -20    7      1.53      0.00
    3  -20    7      0.67      0.00
    4  -20    7      1.63      0.00
    5  -20    7     -1.64      0.00
    6  -20    7      0.49      0.00
    7  -20    7      0.11      0.00
    8  -20    7     -0.20      0.00
    9  -20    7      0.02      0.00
   10  -20    7      0.45      0.00
   11  -20    7     -0.22      0.00
   -5  -19    7      0.28      0.00
   -4  -19    7     -0.45      0.00
   -3  -19    7      0.12      0.00
   -2  -19    7     -0.89      0.00
   -1  -19    7      0.56      0.00
    2  -19    7      2.45      0.00
    4  -19    7      3.78      0.00
    5  -19    7     -1.01      0.00
    6  -19    7      0.09      0.00
    7  -19    7      0.78      0.00
    8  -19    7      0.36      0.00
    9  -19    7     -0.71      0.00
   10  -19    7      0.38      0.00
   11  -19    7      0.08      0.00
   12  -19    7      0.28      0.00
   -7  -18    7     -0.74      0.00
   -6  -18    7     -0.29      0.00
   -5  -18    7      0.30      0.00
   -4  -18    7      0.47      0.00
   -3  -18    7      0.66      0.00
   -2  -18    7     -0.57      0.00
   -1  -18    7      0.58      0.00
    0  -18    7     -0.59      0.00
    1  -18    7     -1.07      0.00
    2  -18    7      1.30      0.00
    3  -18    7     -1.04      0.00
    4  -18    7      0.83      0.00
    5  -18    7      0.64      0.00
    6  -18    7     -2.04      0.00
    8  -18    7      0.10      0.00
    9  -18    7      0.04      0.00
   10  -18    7     -0.34      0.00
   11  -18    7     -0.06      0.00
   12  -18    7      0.39      0.00
   13  -18    7     -0.40      0.00
   -8  -17    7     -0.12      0.00
   -7  -17    7      0.14      0.00
   -6  -17    7      0.40      0.00
   -5  -17    7     -0.09      0.00
   -4  -17    7      0.46      0.00
   -3  -17    7     -0.19      0.00
   -2  -17    7      0.21      0.00
   -1  -17    7     -0.62      0.00
    0  -17    7      0.44      0.00
    1  -17    7     -0.20      0.00
    3  -17    7     -2.13      0.00
    5  -17    7      0.82      0.00
    7  -17    7      1.28      0.00
    8  -17    7     -0.54      0.00
    9  -17    7     -0.15      0.00
   10  -17    7      0.70      0.00
   11  -17    7      0.23      0.00
   12  -17    7     -0.25      0.00
   13  -17    7     -0.64      0.00
   14  -17    7     -0.04      0.00
  -10  -16    7      0.77      0.00
   -9  -16    7      0.33      0.00
   -8  -16    7     -2.90      0.00
   -7  -16    7      0.14      0.00
   -6  -16    7     -0.24      0.00
   -5  -16    7     -0.42      0.00
   -4  -16    7     -0.15      0.00
   -3  -16    7      0.41      0.00
   -2  -16    7     -0.23      0.00
   -1  -16    7     -1.02      0.00
    0  -16    7     -0.25      0.00
    1  -16    7     -1.37      0.00
    2  -16    7      3.80      0.00
    4  -16    7     -0.07      0.00
    5  -16    7      0.16      0.00
    7  -16    7      2.50      0.00
    8  -16    7     -0.11      0.00
    9  -16    7     -0.23      0.00
   10  -16    7     -0.33      0.00
   11  -16    7      1.20      0.00
   12  -16    7     -0.47      0.00
   13  -16    7     -0.07      0.00
   14  -16    7     -0.90      0.00
   15  -16    7     -0.06      0.00
  -11  -15    7     -0.54      0.00
  -10  -15    7      1.03      0.00
   -9  -15    7      0.13      0.00
   -8  -15    7     -0.25      0.00
   -7  -15    7     -0.72      0.00
   -6  -15    7      0.42      0.00
   -5  -15    7     -0.47      0.00
   -4  -15    7     -0.44      0.00
   -3  -15    7      0.08      0.00
   -2  -15    7      1.50      0.00
   -1  -15    7     -1.28      0.00
    0  -15    7      1.16      0.00
    1  -15    7     -0.66      0.00
    2  -15    7      0.38      0.00
    3  -15    7     -0.83      0.00
    4  -15    7     -3.45      0.00
    5  -15    7      3.79      0.00
    6  -15    7     -1.59      0.00
    7  -15    7     -0.92      0.00
    8  -15    7      0.03      0.00
    9  -15    7      0.22      0.00
   10  -15    7     -1.06      0.00
   11  -15    7      1.10      0.00
   12  -15    7      0.15      0.00
   13  -15    7      0.19      0.00
   14  -15    7     -0.33      0.00
   15  -15    7     -0.32      0.00
  -12  -14    7      0.88      0.00
  -11  -14    7     -1.36      0.00
  -10  -14    7      0.71      0.00
   -9  -14    7      0.12      0.00
   -8  -14    7     -1.24      0.00
   -7  -14    7      0.38      0.00
   -6  -14    7      0.50      0.00
   -5  -14    7     -0.37      0.00
   -4  -14    7      0.44      0.00
   -3  -14    7      0.34      0.00
   -2  -14    7      0.66      0.00
   -1  -14    7     -1.42      0.00
    0  -14    7     -1.65      0.00
    1  -14    7      0.76      0.00
    3  -14    7      2.02      0.00
    5  -14    7     -0.89      0.00
    6  -14    7     -1.15      0.00
    7  -14    7     -0.06      0.00
    8  -14    7     -1.14      0.00
    9  -14    7      1.87      0.00
   10  -14    7     -0.06      0.00
   11  -14    7      0.19      0.00
   12  -14    7      0.63      0.00
   13  -14    7     -0.26      0.00
   14  -14    7      0.47      0.00
   15  -14    7     -1.28      0.00
   16  -14    7      1.26      0.00
  -13  -13    7     -0.51      0.00
  -12  -13    7     -0.59      0.00
  -11  -13    7      0.24      0.00
  -10  -13    7      0.21      0.00
   -9  -13    7      0.84      0.00
   -8  -13    7     -0.79      0.00
   -7  -13    7      0.09      0.00
   -6  -13    7      0.42      0.00
   -5  -13    7     -0.56      0.00
   -4  -13    7     -0.98      0.00
   -3  -13    7      0.48      0.00
   -2  -13    7      1.03      0.00
   -1  -13    7     -0.06      0.00
    0  -13    7      1.57      0.00
    1  -13    7     -0.63      0.00
    2  -13    7     -1.34      0.00
    3  -13    7     -0.42      0.00
    4  -13    7     -0.16      0.00
    5  -13    7      1.29      0.00
    6  -13    7     -0.48      0.00
    7  -13    7      0.39      0.00
    8  -13    7     -1.06      0.00
    9  -13    7      0.15      0.00
   10  -13    7      0.32      0.00
   11  -13    7     -0.23      0.00
   12  -13    7      1.34      0.00
   13  -13    7     -0.42      0.00
   14  -13    7      0.52      0.00
   15  -13    7     -0.37      0.00
   16  -13    7      0.21      0.00
  -13  -12    7      0.10      0.00
  -12  -12    7      0.22      0.00
  -11  -12    7     -0.62      0.00
  -10  -12    7      0.06      0.00
   -9  -12    7      0.80      0.00
   -8  -12    7     -0.38      0.00
   -7  -12    7     -0.12      0.00
   -6  -12    7      0.97      0.00
   -5  -12    7     -0.14      0.00
   -4  -12    7      0.13      0.00
   -3  -12    7     -0.29      0.00
   -2  -12    7      1.81      0.00
   -1  -12    7     -2.80      0.00
    0  -12    7      0.65      0.00
    1  -12    7      1.77      0.00
    2  -12    7     -1.23      0.00
    3  -12    7      1.65      0.00
    5  -12    7      0.48      0.00
    6  -12    7     -0.55      0.00
    7  -12    7     -0.36      0.00
    8  -12    7      0.16      0.00
    9  -12    7      0.33      0.00
   10  -12    7      0.49      0.00
   11  -12    7     -0.62      0.00
   12  -12    7      1.21      0.00
   13  -12    7     -0.26      0.00
   14  -12    7     -0.24      0.00
   15  -12    7      0.20      0.00
   16  -12    7     -0.49      0.00
  -14  -11    7     -0.36      0.00
  -13  -11    7     -0.58      0.00
  -12  -11    7      0.41      0.00
  -11  -11    7      0.56      0.00
  -10  -11    7     -0.21      0.00
   -9  -11    7      0.59      0.00
   -8  -11    7     -0.02      0.00
   -7  -11    7     -0.63      0.00
   -6  -11    7      0.62      0.00
   -5  -11    7     -0.13      0.00
   -4  -11    7     -0.77      0.00
   -3  -11    7     -0.66      0.00
   -2  -11    7      1.51      0.00
   -1  -11    7      0.69      0.00
    0  -11    7     -0.42      0.00
    1  -11    7      1.15      0.00
    2  -11    7      0.20      0.00
    3  -11    7     -1.40      0.00
    4  -11    7      1.36      0.00
    5  -11    7      0.95      0.00
    6  -11    7      0.00      0.00
    7  -11    7     -0.26      0.00
    8  -11    7      0.40      0.00
    9  -11    7      0.42      0.00
   10  -11    7      0.09      0.00
   11  -11    7     -0.74      0.00
   12  -11    7      0.33      0.00
   13  -11    7      0.32      0.00
   14  -11    7     -0.59      0.00
   15  -11    7      0.91      0.00
   16  -11    7     -0.33      0.00
  -15  -10    7      0.13      0.00
  -14  -10    7     -0.07      0.00
  -13  -10    7      0.40      0.00
  -12  -10    7     -0.27      0.00
  -11  -10    7      0.39      0.00
  -10  -10    7     -0.57      0.00
   -9  -10    7      0.22      0.00
   -8  -10    7     -0.27      0.00
   -7  -10    7     -0.26      0.00
   -6  -10    7     -0.39      0.00
   -5  -10    7     -0.18      0.00
   -4  -10    7     -0.29      0.00
   -3  -10    7     -1.51      0.00
   -2  -10    7      0.95      0.00
   -1  -10    7     -1.03      0.00
    0  -10    7      0.78      0.00
    1  -10    7     -0.45      0.00
    2  -10    7      0.08      0.00
    3  -10    7     -0.48      0.00
    4  -10    7      0.57      0.00
    5  -10    7      0.39      0.00
    6  -10    7      0.38      0.00
    7  -10    7     -0.76      0.00
    8  -10    7     -0.07      0.00
    9  -10    7     -0.02      0.00
   10  -10    7     -0.06      0.00
   11  -10    7      0.12      0.00
   12  -10    7      0.11      0.00
   13  -10    7      0.25      0.00
   14  -10    7     -0.44      0.00
   15  -10    7     -0.33      0.00
   17  -10    7     -0.32      0.00
  -15   -9    7      0.61      0.00
  -14   -9    7     -0.95      0.00
  -13   -9    7     -0.13      0.00
  -12   -9    7      0.49      0.00
  -11   -9    7     -0.42      0.00
  -10   -9    7     -0.12      0.00
   -9   -9    7      0.15      0.00
   -8   -9    7     -0.59      0.00
   -7   -9    7     -0.84      0.00
   -6   -9    7      1.10      0.00
   -5   -9    7     -0.52      0.00
   -4   -9    7      0.54      0.00
   -3   -9    7      0.29      0.00
   -2   -9    7      0.83      0.00
   -1   -9    7      0.63      0.00
    0   -9    7     -0.71      0.00
    1   -9    7     -0.05      0.00
    2   -9    7     -0.89      0.00
    3   -9    7     -1.26      0.00
    4   -9    7     -0.17      0.00
    5   -9    7     -0.60      0.00
    6   -9    7     -0.53      0.00
    7   -9    7     -0.37      0.00
    8   -9    7      0.34      0.00
    9   -9    7      0.07      0.00
   10   -9    7     -0.01      0.00
   11   -9    7     -0.11      0.00
   12   -9    7     -0.24      0.00
   13   -9    7     -0.20      0.00
   14   -9    7      0.61      0.00
   16   -9    7      0.73      0.00
   17   -9    7     -0.90      0.00
  -16   -8    7     -0.32      0.00
  -15   -8    7      0.95      0.00
  -14   -8    7     -0.12      0.00
  -13   -8    7      0.08      0.00
  -12   -8    7      0.10      0.00
  -11   -8    7      0.44      0.00
  -10   -8    7     -0.69      0.00
   -9   -8    7      0.16      0.00
   -8   -8    7      0.91      0.00
   -7   -8    7     -0.95      0.00
   -6   -8    7      0.50      0.00
   -5   -8    7      0.12      0.00
   -4   -8    7     -0.18      0.00
   -3   -8    7      0.00      0.00
   -2   -8    7      0.73      0.00
   -1   -8    7     -0.36      0.00
    0   -8    7      1.70      0.00
    1   -8    7     -0.42      0.00
    2   -8    7     -1.10      0.00
    3   -8    7      0.19      0.00
    4   -8    7      0.32      0.00
    5   -8    7      0.19      0.00
    6   -8    7      0.27      0.00
    7   -8    7     -0.32      0.00
    8   -8    7      0.49      0.00
    9   -8    7      0.10      0.00
   10   -8    7      0.08      0.00
   11   -8    7      0.55      0.00
   12   -8    7      0.38      0.00
   15   -8    7     -0.94      0.00
   16   -8    7      0.35      0.00
   17   -8    7     -0.26      0.00
  -17   -7    7      0.04      0.00
  -16   -7    7     -0.07      0.00
  -15   -7    7      1.05      0.00
  -14   -7    7     -0.36      0.00
  -13   -7    7      0.28      0.00
  -12   -7    7     -0.28      0.00
  -11   -7    7      0.06      0.00
  -10   -7    7      0.19      0.00
   -9   -7    7     -1.03      0.00
   -8   -7    7      0.83      0.00
   -7   -7    7     -0.28      0.00
   -6   -7    7      0.44      0.00
   -5   -7    7      0.90      0.00
   -4   -7    7     -0.09      0.00
   -3   -7    7      0.35      0.00
   -2   -7    7      2.90      0.00
    0   -7    7     -0.34      0.00
    1   -7    7      1.92      0.00
    2   -7    7     -1.36      0.00
    3   -7    7      0.69      0.00
    4   -7    7      0.62      0.00
    5   -7    7     -0.68      0.00
    6   -7    7     -0.74      0.00
    7   -7    7     -0.40      0.00
    8   -7    7     -0.18      0.00
    9   -7    7      0.39      0.00
   10   -7    7      0.20      0.00
   11   -7    7     -0.31      0.00
   13   -7    7     -0.87      0.00
   14   -7    7      0.19      0.00
   15   -7    7      0.43      0.00
   16   -7    7      0.30      0.00
  -17   -6    7     -0.02      0.00
  -16   -6    7     -0.31      0.00
  -15   -6    7      0.51      0.00
  -14   -6    7      0.37      0.00
  -13   -6    7     -0.39      0.00
  -12   -6    7     -0.03      0.00
  -11   -6    7      0.00      0.00
  -10   -6    7      1.15      0.00
   -9   -6    7     -0.35      0.00
   -8   -6    7      0.38      0.00
   -7   -6    7      0.37      0.00
   -6   -6    7     -1.02      0.00
   -5   -6    7      1.06      0.00
   -4   -6    7      1.53      0.00
   -3   -6    7     -1.62      0.00
   -2   -6    7      1.03      0.00
   -1   -6    7      1.94      0.00
    0   -6    7     -0.31      0.00
    1   -6    7      0.60      0.00
    2   -6    7     -0.47      0.00
    3   -6    7      0.19      0.00
    4   -6    7      0.23      0.00
    5   -6    7      0.82      0.00
    6   -6    7     -0.56      0.00
    7   -6    7      0.39      0.00
    8   -6    7      0.37      0.00
    9   -6    7      0.49      0.00
   10   -6    7      0.30      0.00
   11   -6    7      0.44      0.00
   12   -6    7      0.07      0.00
   13   -6    7      0.74      0.00
   14   -6    7     -0.32      0.00
   15   -6    7     -0.17      0.00
   16   -6    7      0.32      0.00
  -17   -5    7     -0.41      0.00
  -16   -5    7      0.08      0.00
  -15   -5    7      0.01      0.00
  -14   -5    7      0.26      0.00
  -13   -5    7      0.40      0.00
  -12   -5    7     -0.23      0.00
  -11   -5    7     -0.69      0.00
  -10   -5    7      0.68      0.00
   -9   -5    7     -1.27      0.00
   -8   -5    7      0.49      0.00
   -7   -5    7     -0.09      0.00
   -6   -5    7      0.52      0.00
   -5   -5    7     -0.19      0.00
   -4   -5    7      2.39      0.00
   -3   -5    7      0.04      0.00
   -2   -5    7      1.91      0.00
   -1   -5    7     -2.42      0.00
    0   -5    7      0.69      0.00
    1   -5    7      0.49      0.00
    2   -5    7      0.12      0.00
    3   -5    7      2.15      0.00
    4   -5    7      0.11      0.00
    5   -5    7      0.23      0.00
    6   -5    7     -0.65      0.00
    7   -5    7     -0.75      0.00
    8   -5    7     -0.11      0.00
    9   -5    7      0.25      0.00
   10   -5    7      0.00      0.00
   11   -5    7     -0.49      0.00
   12   -5    7      0.33      0.00
   13   -5    7     -0.38      0.00
   14   -5    7      0.19      0.00
   15   -5    7     -0.14      0.00
   16   -5    7     -0.16      0.00
  -18   -4    7      0.14      0.00
  -17   -4    7     -0.31      0.00
  -16   -4    7      0.20      0.00
  -15   -4    7      0.45      0.00
  -14   -4    7     -0.66      0.00
  -13   -4    7     -0.14      0.00
  -12   -4    7     -0.04      0.00
  -11   -4    7     -0.23      0.00
  -10   -4    7      0.98      0.00
   -9   -4    7     -0.15      0.00
   -8   -4    7     -0.58      0.00
   -7   -4    7      0.58      0.00
   -6   -4    7     -0.10      0.00
   -5   -4    7     -0.49      0.00
   -4   -4    7      3.01      0.00
   -2   -4    7      0.28      0.00
   -1   -4    7      0.68      0.00
    0   -4    7     -1.26      0.00
    1   -4    7     -0.85      0.00
    2   -4    7     -0.21      0.00
    3   -4    7     -0.51      0.00
    4   -4    7     -0.56      0.00
    5   -4    7      0.13      0.00
    6   -4    7     -1.02      0.00
    7   -4    7     -0.09      0.00
    8   -4    7     -0.73      0.00
    9   -4    7      0.27      0.00
   10   -4    7      0.03      0.00
   11   -4    7     -0.05      0.00
   12   -4    7      0.72      0.00
   13   -4    7      0.58      0.00
   14   -4    7     -0.20      0.00
   15   -4    7     -0.31      0.00
   16   -4    7     -0.56      0.00
  -18   -3    7     -0.68      0.00
  -17   -3    7     -0.50      0.00
  -16   -3    7     -0.55      0.00
  -15   -3    7      0.01      0.00
  -14   -3    7      0.16      0.00
  -13   -3    7     -0.26      0.00
  -12   -3    7      0.62      0.00
  -11   -3    7     -0.74      0.00
  -10   -3    7      0.58      0.00
   -9   -3    7     -0.39      0.00
   -8   -3    7     -0.88      0.00
   -7   -3    7      0.14      0.00
   -6   -3    7     -0.46      0.00
   -5   -3    7      0.10      0.00
   -4   -3    7      2.02      0.00
   -3   -3    7      1.50      0.00
   -2   -3    7     -2.47      0.00
   -1   -3    7     -1.47      0.00
    0   -3    7      0.94      0.00
    1   -3    7     -2.14      0.00
    2   -3    7      1.47      0.00
    3   -3    7      0.71      0.00
    4   -3    7      0.71      0.00
    5   -3    7     -0.70      0.00
    6   -3    7     -0.07      0.00
    7   -3    7     -0.09      0.00
    8   -3    7     -0.15      0.00
    9   -3    7     -0.08      0.00
   10   -3    7     -0.29      0.00
   11   -3    7     -0.32      0.00
   12   -3    7      0.09      0.00
   13   -3    7      0.41      0.00
   14   -3    7     -0.03      0.00
   15   -3    7     -0.03      0.00
   16   -3    7     -0.32      0.00
  -18   -2    7     -0.24      0.00
  -17   -2    7      0.57      0.00
  -16   -2    7      0.06      0.00
  -15   -2    7      0.45      0.00
  -14   -2    7      0.45      0.00
  -13   -2    7     -0.44      0.00
  -12   -2    7      0.09      0.00
  -11   -2    7     -0.28      0.00
  -10   -2    7     -0.15      0.00
   -9   -2    7      0.36      0.00
   -8   -2    7     -0.76      0.00
   -7   -2    7      0.94      0.00
   -6   -2    7     -0.64      0.00
   -5   -2    7     -1.83      0.00
   -4   -2    7      1.01      0.00
   -3   -2    7     -1.82      0.00
   -2   -2    7     -2.37      0.00
   -1   -2    7     -0.77      0.00
    0   -2    7     -0.43      0.00
    1   -2    7     -1.02      0.00
    2   -2    7      0.32      0.00
    3   -2    7     -0.95      0.00
    4   -2    7      0.44      0.00
    5   -2    7     -0.24      0.00
    6   -2    7     -0.64      0.00
    7   -2    7     -0.12      0.00
    8   -2    7      0.39      0.00
    9   -2    7     -0.33      0.00
   10   -2    7      0.10      0.00
   11   -2    7     -0.23      0.00
   12   -2    7      0.93      0.00
   13   -2    7      0.32      0.00
   14   -2    7     -0.10      0.00
   15   -2    7     -0.49      0.00
  -19   -1    7      0.93      0.00
  -18   -1    7     -0.54      0.00
  -17   -1    7     -0.28      0.00
  -16   -1    7     -0.01      0.00
  -15   -1    7     -0.62      0.00
  -13   -1    7      0.20      0.00
  -12   -1    7     -0.09      0.00
  -11   -1    7      0.62      0.00
  -10   -1    7     -0.51      0.00
   -9   -1    7      0.93      0.00
   -8   -1    7     -1.52      0.00
   -7   -1    7      0.03      0.00
   -6   -1    7     -1.23      0.00
   -5   -1    7     -0.31      0.00
   -4   -1    7      0.93      0.00
   -3   -1    7      0.91      0.00
   -2   -1    7     -2.11      0.00
   -1   -1    7      0.64      0.00
    0   -1    7      0.40      0.00
    1   -1    7     -1.22      0.00
    2   -1    7      1.32      0.00
    3   -1    7      0.13      0.00
    4   -1    7     -0.25      0.00
    5   -1    7     -0.48      0.00
    6   -1    7      0.40      0.00
    7   -1    7      0.12      0.00
    8   -1    7      0.51      0.00
    9   -1    7     -0.19      0.00
   10   -1    7      0.05      0.00
   11   -1    7     -0.78      0.00
   12   -1    7      0.10      0.00
   13   -1    7      1.09      0.00
   14   -1    7     -0.73      0.00
   15   -1    7      0.38      0.00
  -19    0    7      0.30      0.00
  -18    0    7     -0.31      0.00
  -17    0    7      0.30      0.00
  -16    0    7      0.67      0.00
  -15    0    7      0.46      0.00
  -14    0    7      0.46      0.00
  -13    0    7      0.13      0.00
  -12    0    7     -0.42      0.00
  -11    0    7      0.39      0.00
  -10    0    7     -0.28      0.00
   -9    0    7      0.21      0.00
   -8    0    7      0.91      0.00
   -7    0    7      0.33      0.00
   -6    0    7     -0.41      0.00
   -5    0    7     -0.77      0.00
   -3    0    7     -1.90      0.00
   -2    0    7      0.19      0.00
   -1    0    7     -0.81      0.00
    0    0    7      2.04      0.00
    1    0    7     -0.93      0.00
    2    0    7     -0.09      0.00
    3    0    7      0.27      0.00
    4    0    7      0.44      0.00
    5    0    7     -0.33      0.00
    6    0    7      0.04      0.00
    7    0    7      0.46      0.00
    8    0    7      0.49      0.00
    9    0    7     -0.58      0.00
   10    0    7      0.18      0.00
   11    0    7     -0.41      0.00
   12    0    7      0.02      0.00
   13    0    7      0.55      0.00
   14    0    7      0.04      0.00
   15    0    7     -1.68      0.00
  -19    1    7      0.88      0.00
  -18    1    7     -0.54      0.00
  -17    1    7     -0.45      0.00
  -16    1    7      0.23      0.00
  -15    1    7     -0.67      0.00
  -14    1    7      0.66      0.00
  -13    1    7     -0.23      0.00
  -12    1    7     -0.02      0.00
  -11    1    7     -0.19      0.00
  -10    1    7      0.27      0.00
   -9    1    7     -0.06      0.00
   -8    1    7     -0.52      0.00
   -7    1    7      0.66      0.00
   -6    1    7      0.32      0.00
   -5    1    7     -1.08      0.00
   -4    1    7      4.12      0.00
   -3    1    7     -1.43      0.00
   -2    1    7      1.43      0.00
   -1    1    7     -1.05      0.00
    0    1    7      0.12      0.00
    1    1    7      1.49      0.00
    2    1    7      0.76      0.00
    3    1    7     -0.68      0.00
    4    1    7      0.01      0.00
    5    1    7     -0.69      0.00
    6    1    7     -0.41      0.00
    7    1    7      0.68      0.00
    8    1    7     -0.40      0.00
    9    1    7     -0.27      0.00
   10    1    7     -0.71      0.00
   11    1    7     -0.21      0.00
   12    1    7      0.17      0.00
   13    1    7     -0.07      0.00
   14    1    7      0.39      0.00
  -19    2    7     -0.45      0.00
  -18    2    7      0.47      0.00
  -17    2    7      0.09      0.00
  -16    2    7      0.68      0.00
  -15    2    7      0.10      0.00
  -14    2    7      0.16      0.00
  -13    2    7      0.00      0.00
  -12    2    7      0.10      0.00
  -11    2    7     -0.29      0.00
  -10    2    7      0.00      0.00
   -9    2    7     -0.01      0.00
   -8    2    7      0.28      0.00
   -7    2    7     -0.55      0.00
   -6    2    7      0.85      0.00
   -5    2    7     -0.31      0.00
   -4    2    7      2.47      0.00
   -3    2    7     -0.71      0.00
   -2    2    7      0.02      0.00
   -1    2    7      1.44      0.00
    0    2    7      0.24      0.00
    1    2    7     -0.91      0.00
    2    2    7      1.41      0.00
    3    2    7     -0.97      0.00
    4    2    7      0.46      0.00
    5    2    7     -0.25      0.00
    6    2    7     -0.30      0.00
    7    2    7      0.46      0.00
    8    2    7      0.36      0.00
    9    2    7     -0.49      0.00
   10    2    7      0.09      0.00
   11    2    7     -0.32      0.00
   12    2    7      1.05      0.00
   13    2    7      0.30      0.00
   14    2    7     -0.97      0.00
  -19    3    7     -0.02      0.00
  -18    3    7      0.02      0.00
  -17    3    7      0.13      0.00
  -16    3    7      0.19      0.00
  -15    3    7      0.22      0.00
  -14    3    7     -0.49      0.00
  -13    3    7     -0.01      0.00
  -12    3    7     -0.59      0.00
  -11    3    7     -0.09      0.00
  -10    3    7     -0.24      0.00
   -9    3    7     -0.38      0.00
   -8    3    7     -0.07      0.00
   -7    3    7     -0.41      0.00
   -6    3    7      0.47      0.00
   -5    3    7      0.07      0.00
   -4    3    7      1.39      0.00
   -3    3    7      0.56      0.00
   -2    3    7     -2.20      0.00
   -1    3    7     -1.75      0.00
    0    3    7      0.58      0.00
    1    3    7      0.50      0.00
    2    3    7      0.62      0.00
    3    3    7     -0.21      0.00
    4    3    7      0.05      0.00
    5    3    7      0.10      0.00
    6    3    7      0.24      0.00
    7    3    7      0.07      0.00
    8    3    7     -0.09      0.00
    9    3    7     -0.76      0.00
   10    3    7     -0.02      0.00
   11    3    7     -0.14      0.00
   12    3    7      0.51      0.00
   13    3    7      0.92      0.00
  -19    4    7      0.22      0.00
  -18    4    7     -0.11      0.00
  -17    4    7     -0.15      0.00
  -16    4    7     -0.20      0.00
  -15    4    7      0.54      0.00
  -14    4    7     -0.05      0.00
  -13    4    7      0.15      0.00
  -12    4    7     -0.11      0.00
  -11    4    7     -0.14      0.00
  -10    4    7      0.23      0.00
   -9    4    7     -0.48      0.00
   -8    4    7      0.08      0.00
   -7    4    7     -0.39      0.00
   -6    4    7     -1.04      0.00
   -5    4    7      0.53      0.00
   -4    4    7     -2.93      0.00
   -3    4    7      2.41      0.00
   -2    4    7     -0.83      0.00
   -1    4    7      0.06      0.00
    0    4    7     -0.35      0.00
    1    4    7     -0.23      0.00
    2    4    7     -0.13      0.00
    3    4    7     -0.81      0.00
    4    4    7      0.25      0.00
    6    4    7      0.58      0.00
    7    4    7      0.18      0.00
    8    4    7      0.59      0.00
    9    4    7     -0.77      0.00
   10    4    7      0.54      0.00
   11    4    7      0.54      0.00
   12    4    7      0.38      0.00
  -19    5    7     -0.74      0.00
  -18    5    7      0.68      0.00
  -17    5    7      0.35      0.00
  -16    5    7     -0.42      0.00
  -15    5    7      0.40      0.00
  -14    5    7     -0.66      0.00
  -13    5    7      0.19      0.00
  -12    5    7     -1.23      0.00
  -11    5    7      0.28      0.00
  -10    5    7      0.50      0.00
   -9    5    7     -0.61      0.00
   -8    5    7     -0.52      0.00
   -7    5    7     -0.15      0.00
   -6    5    7     -1.20      0.00
   -5    5    7      1.80      0.00
   -4    5    7     -0.88      0.00
   -3    5    7     -0.47      0.00
   -2    5    7      0.72      0.00
   -1    5    7     -3.08      0.00
    0    5    7      0.58      0.00
    1    5    7     -0.78      0.00
    2    5    7     -0.51      0.00
    3    5    7     -0.18      0.00
    4    5    7      1.23      0.00
    5    5    7      0.64      0.00
    7    5    7      0.55      0.00
    8    5    7      0.15      0.00
    9    5    7     -0.95      0.00
   10    5    7     -0.29      0.00
   11    5    7      0.04      0.00
   12    5    7      0.41      0.00
  -19    6    7     -0.64      0.00
  -18    6    7     -0.83      0.00
  -17    6    7      0.00      0.00
  -16    6    7     -0.43      0.00
  -15    6    7      0.40      0.00
  -14    6    7     -0.16      0.00
  -13    6    7      0.23      0.00
  -12    6    7     -0.23      0.00
  -11    6    7     -0.50      0.00
  -10    6    7      0.35      0.00
   -9    6    7      0.20      0.00
   -8    6    7     -0.73      0.00
   -7    6    7      0.24      0.00
   -6    6    7     -0.91      0.00
   -5    6    7     -0.88      0.00
   -4    6    7      0.35      0.00
   -3    6    7     -0.74      0.00
   -2    6    7      2.61      0.00
   -1    6    7     -1.58      0.00
    0    6    7      0.45      0.00
    1    6    7     -0.61      0.00
    2    6    7     -0.02      0.00
    3    6    7     -0.47      0.00
    6    6    7      0.45      0.00
    7    6    7      0.02      0.00
    8    6    7      0.44      0.00
    9    6    7     -0.26      0.00
   10    6    7     -0.14      0.00
   11    6    7     -0.69      0.00
  -19    7    7      0.61      0.00
  -18    7    7     -0.15      0.00
  -17    7    7      0.27      0.00
  -16    7    7      0.17      0.00
  -15    7    7     -0.23      0.00
  -14    7    7      0.72      0.00
  -13    7    7     -0.61      0.00
  -12    7    7     -0.09      0.00
  -11    7    7      0.04      0.00
  -10    7    7      0.11      0.00
   -9    7    7     -0.59      0.00
   -8    7    7      0.01      0.00
   -7    7    7     -0.32      0.00
   -6    7    7      0.26      0.00
   -5    7    7     -0.13      0.00
   -4    7    7     -0.51      0.00
   -3    7    7     -0.94      0.00
   -2    7    7      1.44      0.00
   -1    7    7     -1.64      0.00
    0    7    7      0.51      0.00
    1    7    7     -0.63      0.00
    2    7    7     -0.07      0.00
    3    7    7      0.57      0.00
    5    7    7     -0.49      0.00
    6    7    7      0.11      0.00
    7    7    7      0.34      0.00
    8    7    7     -0.50      0.00
    9    7    7     -0.44      0.00
   10    7    7     -0.11      0.00
  -18    8    7      0.17      0.00
  -17    8    7     -0.32      0.00
  -16    8    7      0.41      0.00
  -15    8    7      0.23      0.00
  -14    8    7      0.12      0.00
  -13    8    7      0.27      0.00
  -12    8    7      0.17      0.00
  -11    8    7     -0.03      0.00
  -10    8    7      0.64      0.00
   -9    8    7     -0.36      0.00
   -8    8    7     -0.27      0.00
   -7    8    7     -0.48      0.00
   -6    8    7      1.17      0.00
   -5    8    7     -0.50      0.00
   -4    8    7      0.59      0.00
   -3    8    7      0.61      0.00
   -2    8    7      1.37      0.00
   -1    8    7     -0.12      0.00
    0    8    7     -0.29      0.00
    1    8    7      0.21      0.00
    2    8    7     -0.29      0.00
    3    8    7     -0.46      0.00
    4    8    7      0.57      0.00
    5    8    7      0.88      0.00
    6    8    7     -0.87      0.00
    7    8    7      0.07      0.00
    8    8    7      0.04      0.00
    9    8    7     -0.50      0.00
  -18    9    7     -0.16      0.00
  -17    9    7      0.49      0.00
  -16    9    7     -0.51      0.00
  -15    9    7      0.81      0.00
  -14    9    7      0.22      0.00
  -13    9    7     -0.36      0.00
  -12    9    7      0.36      0.00
  -11    9    7     -0.35      0.00
  -10    9    7      0.17      0.00
   -9    9    7     -0.69      0.00
   -8    9    7      0.74      0.00
   -7    9    7      0.73      0.00
   -6    9    7      0.09      0.00
   -5    9    7      0.58      0.00
   -4    9    7     -1.18      0.00
   -3    9    7      0.37      0.00
   -2    9    7     -0.26      0.00
   -1    9    7      0.41      0.00
    0    9    7      0.73      0.00
    1    9    7     -0.33      0.00
    2    9    7      0.98      0.00
    3    9    7      0.40      0.00
    4    9    7      0.13      0.00
    5    9    7      0.02      0.00
    6    9    7      0.11      0.00
    7    9    7     -1.31      0.00
    8    9    7      0.31      0.00
  -18   10    7     -0.08      0.00
  -17   10    7     -0.02      0.00
  -16   10    7     -0.57      0.00
  -15   10    7      0.36      0.00
  -14   10    7      0.17      0.00
  -13   10    7     -0.47      0.00
  -12   10    7      0.98      0.00
  -11   10    7     -0.04      0.00
  -10   10    7      0.44      0.00
   -9   10    7     -0.90      0.00
   -8   10    7     -0.99      0.00
   -7   10    7     -0.21      0.00
   -6   10    7      1.23      0.00
   -5   10    7     -0.95      0.00
   -4   10    7      1.06      0.00
   -3   10    7      1.43      0.00
   -2   10    7     -0.67      0.00
   -1   10    7     -0.76      0.00
    0   10    7      0.83      0.00
    1   10    7     -0.63      0.00
    2   10    7     -0.13      0.00
    3   10    7      0.65      0.00
    4   10    7     -0.46      0.00
    5   10    7     -0.70      0.00
    6   10    7      0.54      0.00
    7   10    7     -1.23      0.00
  -17   11    7     -1.04      0.00
  -16   11    7      0.67      0.00
  -15   11    7     -0.39      0.00
  -14   11    7      0.80      0.00
  -13   11    7     -1.23      0.00
  -12   11    7      0.17      0.00
  -11   11    7     -0.52      0.00
  -10   11    7      0.34      0.00
   -9   11    7     -1.22      0.00
   -8   11    7      0.65      0.00
   -7   11    7      0.62      0.00
   -6   11    7     -0.19      0.00
   -5   11    7      0.45      0.00
   -4   11    7     -0.74      0.00
   -3   11    7      0.04      0.00
   -2   11    7      0.49      0.00
   -1   11    7     -1.35      0.00
    0   11    7      1.84      0.00
    1   11    7     -0.27      0.00
    3   11    7      0.36      0.00
    4   11    7      0.95      0.00
    5   11    7     -0.76      0.00
    6   11    7      0.71      0.00
  -16   12    7     -0.88      0.00
  -15   12    7      0.60      0.00
  -14   12    7     -0.59      0.00
  -13   12    7     -0.35      0.00
  -12   12    7      0.52      0.00
  -11   12    7     -0.06      0.00
  -10   12    7      0.80      0.00
   -9   12    7     -0.47      0.00
   -8   12    7     -0.92      0.00
   -7   12    7      0.78      0.00
   -6   12    7      0.47      0.00
   -5   12    7     -0.45      0.00
   -4   12    7      2.07      0.00
   -3   12    7     -1.03      0.00
   -2   12    7      0.17      0.00
   -1   12    7     -2.00      0.00
    0   12    7      0.20      0.00
    1   12    7      0.40      0.00
    2   12    7      0.14      0.00
    3   12    7      0.20      0.00
    4   12    7     -0.11      0.00
    5   12    7     -0.25      0.00
  -15   13    7      0.63      0.00
  -14   13    7      1.07      0.00
  -13   13    7     -0.20      0.00
  -12   13    7     -0.15      0.00
  -11   13    7      0.52      0.00
  -10   13    7     -0.60      0.00
   -9   13    7      0.25      0.00
   -8   13    7      0.07      0.00
   -7   13    7     -0.01      0.00
   -6   13    7      0.41      0.00
   -5   13    7      0.12      0.00
   -4   13    7      0.41      0.00
   -3   13    7     -0.55      0.00
   -2   13    7      0.22      0.00
   -1   13    7     -0.70      0.00
    0   13    7      0.82      0.00
    1   13    7     -0.19      0.00
    2   13    7     -0.16      0.00
    3   13    7      0.09      0.00
  -14   14    7     -0.28      0.00
  -13   14    7     -1.14      0.00
  -12   14    7      0.47      0.00
  -11   14    7     -0.27      0.00
  -10   14    7      0.33      0.00
   -9   14    7     -0.69      0.00
   -8   14    7      0.60      0.00
   -7   14    7     -0.14      0.00
   -6   14    7     -0.24      0.00
   -5   14    7      0.48      0.00
   -4   14    7      0.67      0.00
   -3   14    7     -1.16      0.00
   -2   14    7      0.44      0.00
   -1   14    7     -2.49      0.00
    0   14    7      0.16      0.00
    1   14    7      0.28      0.00
    2   14    7      0.02      0.00
  -12   15    7      0.32      0.00
  -11   15    7      0.57      0.00
  -10   15    7     -0.47      0.00
   -9   15    7     -0.16      0.00
   -8   15    7     -0.34      0.00
   -7   15    7     -0.60      0.00
   -6   15    7      0.52      0.00
   -5   15    7      0.12      0.00
   -4   15    7      0.14      0.00
   -3   15    7     -0.93      0.00
   -2   15    7     -0.08      0.00
   -1   15    7     -0.08      0.00
  -10   16    7     -0.36      0.00
   -9   16    7     -0.09      0.00
   -8   16    7      0.79      0.00
   -7   16    7     -0.79      0.00
   -6   16    7     -0.43      0.00
   -5   16    7      0.59      0.00
   -4   16    7     -0.09      0.00
    4  -22    8      1.37      0.00
    5  -22    8     -2.05      0.00
   -1  -21    8     -0.73      0.00
    0  -21    8      1.58      0.00
    1  -21    8     -1.38      0.00
    2  -21    8      2.52      0.00
    3  -21    8     -2.18      0.00
    4  -21    8     -0.15      0.00
    5  -21    8      0.87      0.00
    6  -21    8     -0.30      0.00
    7  -21    8      0.79      0.00
    8  -21    8     -0.39      0.00
    9  -21    8      0.25      0.00
   -4  -20    8      1.37      0.00
   -3  -20    8      0.02      0.00
   -1  -20    8     -1.44      0.00
    0  -20    8      0.40      0.00
    3  -20    8      1.12      0.00
    4  -20    8     -1.54      0.00
    5  -20    8     -0.75      0.00
    6  -20    8     -0.31      0.00
    7  -20    8      0.95      0.00
    8  -20    8     -0.31      0.00
    9  -20    8      0.55      0.00
   10  -20    8     -0.36      0.00
   11  -20    8      0.21      0.00
   -6  -19    8      0.62      0.00
   -5  -19    8     -0.38      0.00
   -4  -19    8     -0.47      0.00
   -3  -19    8      0.42      0.00
   -2  -19    8      0.84      0.00
   -1  -19    8     -0.11      0.00
    0  -19    8     -0.26      0.00
    2  -19    8      1.37      0.00
    4  -19    8      1.93      0.00
    5  -19    8      0.95      0.00
    7  -19    8      0.83      0.00
    8  -19    8     -0.17      0.00
    9  -19    8     -0.10      0.00
   10  -19    8      0.38      0.00
   11  -19    8      0.13      0.00
   12  -19    8      0.10      0.00
   -7  -18    8     -1.97      0.00
   -6  -18    8     -0.48      0.00
   -5  -18    8      0.56      0.00
   -4  -18    8     -0.33      0.00
   -3  -18    8      0.24      0.00
   -2  -18    8     -0.79      0.00
   -1  -18    8      0.10      0.00
    0  -18    8      0.20      0.00
    1  -18    8     -0.72      0.00
    2  -18    8      1.65      0.00
    3  -18    8      0.85      0.00
    4  -18    8     -1.21      0.00
    5  -18    8      0.89      0.00
    6  -18    8     -1.13      0.00
    7  -18    8     -0.25      0.00
    8  -18    8      0.88      0.00
   10  -18    8     -0.50      0.00
   11  -18    8     -0.08      0.00
   12  -18    8      0.08      0.00
   13  -18    8      0.52      0.00
   -9  -17    8     -1.01      0.00
   -8  -17    8      3.07      0.00
   -7  -17    8     -1.01      0.00
   -6  -17    8     -0.47      0.00
   -5  -17    8     -0.06      0.00
   -4  -17    8     -0.58      0.00
   -3  -17    8      0.39      0.00
   -2  -17    8     -0.72      0.00
   -1  -17    8      1.22      0.00
    0  -17    8      0.60      0.00
    1  -17    8     -0.29      0.00
    2  -17    8     -0.71      0.00
    3  -17    8      2.20      0.00
    4  -17    8     -0.90      0.00
    5  -17    8      2.23      0.00
    6  -17    8      0.97      0.00
    7  -17    8     -1.48      0.00
    8  -17    8      0.11      0.00
    9  -17    8      0.07      0.00
   10  -17    8      0.28      0.00
   11  -17    8     -0.82      0.00
   12  -17    8      0.47      0.00
   13  -17    8     -0.24      0.00
   14  -17    8      0.72      0.00
  -10  -16    8     -0.18      0.00
   -9  -16    8     -0.41      0.00
   -8  -16    8      0.29      0.00
   -7  -16    8      0.05      0.00
   -6  -16    8     -0.32      0.00
   -5  -16    8      0.44      0.00
   -4  -16    8     -0.75      0.00
   -3  -16    8      0.38      0.00
   -2  -16    8     -2.14      0.00
   -1  -16    8      0.27      0.00
    1  -16    8     -2.26      0.00
    2  -16    8     -0.85      0.00
    3  -16    8      1.97      0.00
    4  -16    8     -0.87      0.00
    5  -16    8     -2.34      0.00
    6  -16    8     -0.29      0.00
    7  -16    8     -0.22      0.00
    8  -16    8      0.27      0.00
    9  -16    8     -0.36      0.00
   10  -16    8      0.11      0.00
   11  -16    8     -0.71      0.00
   12  -16    8      0.44      0.00
   13  -16    8      0.31      0.00
   14  -16    8     -0.47      0.00
  -11  -15    8      0.41      0.00
  -10  -15    8     -0.45      0.00
   -9  -15    8     -0.22      0.00
   -8  -15    8      2.27      0.00
   -7  -15    8     -0.68      0.00
   -6  -15    8     -0.37      0.00
   -5  -15    8      1.02      0.00
   -4  -15    8     -1.18      0.00
   -3  -15    8      0.25      0.00
   -2  -15    8      0.23      0.00
   -1  -15    8     -0.08      0.00
    0  -15    8      1.31      0.00
    1  -15    8     -0.70      0.00
    3  -15    8      0.12      0.00
    4  -15    8      0.69      0.00
    5  -15    8      0.90      0.00
    6  -15    8     -0.31      0.00
    7  -15    8     -0.61      0.00
    8  -15    8      0.10      0.00
    9  -15    8     -0.94      0.00
   10  -15    8     -0.27      0.00
   11  -15    8     -0.62      0.00
   12  -15    8      0.23      0.00
   13  -15    8      1.01      0.00
   14  -15    8     -0.07      0.00
   15  -15    8      0.48      0.00
  -12  -14    8      0.17      0.00
  -11  -14    8     -0.91      0.00
  -10  -14    8      0.47      0.00
   -8  -14    8      1.81      0.00
   -7  -14    8      0.69      0.00
   -6  -14    8     -0.47      0.00
   -5  -14    8      2.01      0.00
   -4  -14    8      0.68      0.00
   -3  -14    8     -0.71      0.00
   -2  -14    8     -0.34      0.00
   -1  -14    8      0.83      0.00
    0  -14    8     -2.65      0.00
    1  -14    8      1.46      0.00
    2  -14    8     -1.30      0.00
    3  -14    8      1.21      0.00
    4  -14    8     -1.05      0.00
    5  -14    8     -0.09      0.00
    6  -14    8     -0.71      0.00
    7  -14    8      0.12      0.00
    8  -14    8      0.61      0.00
    9  -14    8     -0.04      0.00
   10  -14    8      0.02      0.00
   11  -14    8     -0.05      0.00
   12  -14    8     -0.66      0.00
   13  -14    8      1.00      0.00
   14  -14    8     -0.23      0.00
   15  -14    8      0.18      0.00
  -13  -13    8     -0.31      0.00
  -12  -13    8     -0.12      0.00
  -11  -13    8     -0.15      0.00
  -10  -13    8      0.73      0.00
   -9  -13    8     -0.88      0.00
   -8  -13    8      0.59      0.00
   -6  -13    8     -0.58      0.00
   -5  -13    8      0.23      0.00
   -4  -13    8      0.91      0.00
   -3  -13    8     -0.46      0.00
   -2  -13    8     -1.26      0.00
   -1  -13    8      3.22      0.00
    0  -13    8     -1.13      0.00
    5  -13    8      1.33      0.00
    6  -13    8      1.16      0.00
    7  -13    8     -0.11      0.00
    8  -13    8      0.53      0.00
    9  -13    8     -0.70      0.00
   10  -13    8     -0.54      0.00
   11  -13    8      0.16      0.00
   12  -13    8     -0.76      0.00
   13  -13    8      0.84      0.00
   14  -13    8      0.29      0.00
   15  -13    8     -0.15      0.00
   16  -13    8      0.30      0.00
  -14  -12    8      0.26      0.00
  -13  -12    8     -0.05      0.00
  -12  -12    8      0.72      0.00
  -11  -12    8     -0.71      0.00
  -10  -12    8      0.48      0.00
   -9  -12    8      0.38      0.00
   -8  -12    8      0.06      0.00
   -7  -12    8      0.43      0.00
   -6  -12    8     -0.04      0.00
   -5  -12    8      0.32      0.00
   -4  -12    8      0.69      0.00
   -3  -12    8      0.31      0.00
   -2  -12    8     -1.28      0.00
   -1  -12    8     -0.41      0.00
    0  -12    8      0.74      0.00
    1  -12    8      1.37      0.00
    2  -12    8      0.25      0.00
    4  -12    8     -0.81      0.00
    5  -12    8      0.48      0.00
    6  -12    8      0.46      0.00
    7  -12    8      0.29      0.00
    8  -12    8     -0.17      0.00
    9  -12    8      0.08      0.00
   10  -12    8     -0.52      0.00
   11  -12    8      0.40      0.00
   12  -12    8     -1.04      0.00
   13  -12    8      0.12      0.00
   14  -12    8      0.62      0.00
   15  -12    8     -1.17      0.00
   16  -12    8      0.15      0.00
  -14  -11    8      0.28      0.00
  -13  -11    8     -0.51      0.00
  -12  -11    8      0.53      0.00
  -11  -11    8      0.34      0.00
  -10  -11    8      0.17      0.00
   -9  -11    8     -0.67      0.00
   -8  -11    8     -0.13      0.00
   -7  -11    8     -0.52      0.00
   -6  -11    8     -0.07      0.00
   -5  -11    8     -0.46      0.00
   -4  -11    8      0.68      0.00
   -3  -11    8      0.10      0.00
   -2  -11    8     -0.27      0.00
   -1  -11    8      0.71      0.00
    0  -11    8     -1.53      0.00
    1  -11    8      0.89      0.00
    2  -11    8     -1.21      0.00
    3  -11    8      0.87      0.00
    4  -11    8     -0.74      0.00
    5  -11    8      0.23      0.00
    6  -11    8      0.51      0.00
    7  -11    8      0.62      0.00
    8  -11    8      0.00      0.00
    9  -11    8     -0.13      0.00
   10  -11    8     -0.53      0.00
   11  -11    8      0.22      0.00
   12  -11    8     -0.69      0.00
   13  -11    8     -0.09      0.00
   14  -11    8      0.37      0.00
   15  -11    8     -0.29      0.00
  -15  -10    8     -0.30      0.00
  -14  -10    8      0.93      0.00
  -13  -10    8      0.26      0.00
  -12  -10    8     -0.58      0.00
  -11  -10    8     -0.09      0.00
  -10  -10    8      0.20      0.00
   -9  -10    8     -0.42      0.00
   -8  -10    8      0.02      0.00
   -7  -10    8     -0.23      0.00
   -6  -10    8     -0.47      0.00
   -5  -10    8      0.10      0.00
   -4  -10    8     -0.86      0.00
   -3  -10    8     -0.29      0.00
   -2  -10    8     -0.83      0.00
   -1  -10    8     -0.74      0.00
    0  -10    8      0.03      0.00
    1  -10    8      0.91      0.00
    2  -10    8     -0.17      0.00
    3  -10    8      0.90      0.00
    4  -10    8     -0.49      0.00
    5  -10    8      0.10      0.00
    6  -10    8      0.32      0.00
    7  -10    8     -0.02      0.00
    8  -10    8     -0.47      0.00
    9  -10    8      0.02      0.00
   10  -10    8     -0.39      0.00
   11  -10    8      0.38      0.00
   12  -10    8      0.13      0.00
   13  -10    8     -0.21      0.00
   14  -10    8     -0.43      0.00
   16  -10    8     -0.78      0.00
  -16   -9    8      0.49      0.00
  -15   -9    8     -0.38      0.00
  -14   -9    8      0.17      0.00
  -13   -9    8      0.11      0.00
  -12   -9    8      0.15      0.00
  -11   -9    8     -0.26      0.00
  -10   -9    8      0.28      0.00
   -9   -9    8     -0.52      0.00
   -8   -9    8     -0.59      0.00
   -7   -9    8      0.01      0.00
   -6   -9    8     -0.51      0.00
   -5   -9    8      0.91      0.00
   -4   -9    8      0.62      0.00
   -3   -9    8     -0.01      0.00
   -2   -9    8      0.07      0.00
   -1   -9    8      0.58      0.00
    0   -9    8     -2.61      0.00
    1   -9    8      0.78      0.00
    2   -9    8     -0.37      0.00
    3   -9    8     -0.58      0.00
    4   -9    8     -0.93      0.00
    5   -9    8     -0.41      0.00
    6   -9    8     -0.13      0.00
    7   -9    8     -0.12      0.00
    8   -9    8     -0.61      0.00
    9   -9    8      0.29      0.00
   10   -9    8     -0.15      0.00
   11   -9    8     -0.07      0.00
   12   -9    8     -0.08      0.00
   13   -9    8      1.00      0.00
   15   -9    8      0.91      0.00
   16   -9    8     -0.24      0.00
  -16   -8    8     -0.26      0.00
  -15   -8    8     -0.15      0.00
  -14   -8    8      0.91      0.00
  -13   -8    8      0.05      0.00
  -12   -8    8     -0.15      0.00
  -11   -8    8     -0.10      0.00
  -10   -8    8      0.11      0.00
   -9   -8    8      0.07      0.00
   -8   -8    8      0.51      0.00
   -7   -8    8      0.19      0.00
   -6   -8    8      0.02      0.00
   -5   -8    8      0.23      0.00
   -4   -8    8      0.12      0.00
   -3   -8    8     -0.23      0.00
   -2   -8    8     -1.41      0.00
   -1   -8    8      1.25      0.00
    0   -8    8     -0.68      0.00
    1   -8    8      0.04      0.00
    2   -8    8      0.57      0.00
    3   -8    8      0.67      0.00
    4   -8    8      0.32      0.00
    5   -8    8      0.28      0.00
    6   -8    8      1.01      0.00
    7   -8    8      0.19      0.00
    8   -8    8     -0.30      0.00
    9   -8    8      0.26      0.00
   10   -8    8     -0.04      0.00
   11   -8    8      0.81      0.00
   14   -8    8     -0.50      0.00
   15   -8    8     -0.06      0.00
   16   -8    8     -0.02      0.00
  -17   -7    8      0.05      0.00
  -16   -7    8      0.11      0.00
  -15   -7    8     -0.55      0.00
  -14   -7    8     -0.13      0.00
  -13   -7    8      0.38      0.00
  -12   -7    8      0.07      0.00
  -11   -7    8     -0.26      0.00
  -10   -7    8     -0.06      0.00
   -9   -7    8      0.14      0.00
   -8   -7    8     -0.11      0.00
   -7   -7    8     -0.03      0.00
   -6   -7    8      0.14      0.00
   -5   -7    8      0.10      0.00
   -4   -7    8      0.14      0.00
   -3   -7    8     -0.50      0.00
   -2   -7    8      0.64      0.00
   -1   -7    8     -0.28      0.00
    0   -7    8     -1.06      0.00
    1   -7    8      1.47      0.00
    2   -7    8      0.94      0.00
    3   -7    8     -0.29      0.00
    4   -7    8      1.39      0.00
    5   -7    8     -0.49      0.00
    6   -7    8      0.28      0.00
    7   -7    8      0.13      0.00
    8   -7    8     -0.94      0.00
    9   -7    8      0.10      0.00
   10   -7    8     -0.50      0.00
   11   -7    8     -0.12      0.00
   12   -7    8      0.33      0.00
   13   -7    8     -0.51      0.00
   14   -7    8      0.33      0.00
   15   -7    8      0.13      0.00
   16   -7    8     -0.33      0.00
  -17   -6    8      0.08      0.00
  -16   -6    8     -0.32      0.00
  -15   -6    8     -0.25      0.00
  -14   -6    8     -0.18      0.00
  -13   -6    8     -0.41      0.00
  -12   -6    8      0.31      0.00
  -11   -6    8      0.37      0.00
  -10   -6    8     -0.67      0.00
   -9   -6    8      1.32      0.00
   -8   -6    8     -0.81      0.00
   -7   -6    8      0.60      0.00
   -6   -6    8     -0.71      0.00
   -5   -6    8      0.56      0.00
   -4   -6    8      0.26      0.00
   -3   -6    8     -0.38      0.00
   -2   -6    8     -1.77      0.00
   -1   -6    8      3.22      0.00
    0   -6    8     -2.80      0.00
    1   -6    8      0.14      0.00
    2   -6    8      0.16      0.00
    3   -6    8     -1.44      0.00
    4   -6    8      0.58      0.00
    5   -6    8      0.49      0.00
    6   -6    8      0.06      0.00
    7   -6    8      0.88      0.00
    8   -6    8     -0.43      0.00
    9   -6    8     -0.30      0.00
   10   -6    8      0.05      0.00
   11   -6    8      0.44      0.00
   12   -6    8     -0.13      0.00
   13   -6    8      0.36      0.00
   14   -6    8      0.10      0.00
   15   -6    8      0.16      0.00
   16   -6    8     -0.13      0.00
  -18   -5    8     -0.86      0.00
  -17   -5    8      0.64      0.00
  -16   -5    8     -0.59      0.00
  -15   -5    8     -0.80      0.00
  -14   -5    8     -0.05      0.00
  -13   -5    8     -0.24      0.00
  -12   -5    8     -0.20      0.00
  -11   -5    8      0.01      0.00
  -10   -5    8     -0.51      0.00
   -9   -5    8     -0.03      0.00
   -8   -5    8      0.61      0.00
   -7   -5    8     -0.70      0.00
   -6   -5    8      0.26      0.00
   -5   -5    8     -0.15      0.00
   -4   -5    8     -0.87      0.00
   -3   -5    8      1.01      0.00
   -2   -5    8     -1.74      0.00
   -1   -5    8      0.47      0.00
    0   -5    8     -1.20      0.00
    1   -5    8      0.78      0.00
    2   -5    8      0.72      0.00
    3   -5    8     -0.94      0.00
    4   -5    8      1.39      0.00
    5   -5    8     -0.09      0.00
    6   -5    8      0.80      0.00
    7   -5    8     -0.47      0.00
    8   -5    8      0.51      0.00
    9   -5    8     -0.74      0.00
   10   -5    8     -0.86      0.00
   11   -5    8     -0.13      0.00
   12   -5    8      0.02      0.00
   13   -5    8     -0.87      0.00
   14   -5    8      0.58      0.00
   15   -5    8     -0.15      0.00
   16   -5    8      0.02      0.00
  -18   -4    8      0.44      0.00
  -17   -4    8      0.35      0.00
  -16   -4    8      0.45      0.00
  -15   -4    8     -0.76      0.00
  -14   -4    8     -0.70      0.00
  -13   -4    8      0.44      0.00
  -12   -4    8     -0.55      0.00
  -11   -4    8      0.39      0.00
  -10   -4    8     -0.57      0.00
   -9   -4    8      0.15      0.00
   -8   -4    8     -0.09      0.00
   -7   -4    8      0.35      0.00
   -6   -4    8      0.28      0.00
   -5   -4    8     -0.49      0.00
   -4   -4    8     -0.47      0.00
   -3   -4    8     -0.44      0.00
   -2   -4    8     -0.93      0.00
   -1   -4    8      2.32      0.00
    0   -4    8     -2.23      0.00
    1   -4    8     -0.12      0.00
    2   -4    8     -0.85      0.00
    3   -4    8     -1.54      0.00
    4   -4    8     -1.30      0.00
    5   -4    8      0.80      0.00
    6   -4    8     -0.47      0.00
    7   -4    8      0.06      0.00
    8   -4    8     -0.60      0.00
    9   -4    8      0.08      0.00
   10   -4    8      0.12      0.00
   11   -4    8     -0.12      0.00
   12   -4    8      0.67      0.00
   13   -4    8     -0.50      0.00
   14   -4    8      0.11      0.00
   15   -4    8     -0.24      0.00
  -18   -3    8      0.06      0.00
  -17   -3    8     -0.28      0.00
  -16   -3    8      0.11      0.00
  -15   -3    8     -0.34      0.00
  -14   -3    8     -1.23      0.00
  -13   -3    8      1.14      0.00
  -12   -3    8     -0.45      0.00
  -11   -3    8      0.02      0.00
  -10   -3    8      0.35      0.00
   -9   -3    8     -0.61      0.00
   -8   -3    8      1.25      0.00
   -7   -3    8     -1.75      0.00
   -6   -3    8      1.01      0.00
   -5   -3    8     -0.29      0.00
   -4   -3    8     -1.58      0.00
   -3   -3    8      0.73      0.00
   -2   -3    8     -0.83      0.00
   -1   -3    8     -0.50      0.00
    0   -3    8      0.24      0.00
    1   -3    8      0.31      0.00
    2   -3    8     -0.88      0.00
    3   -3    8      0.19      0.00
    4   -3    8     -0.49      0.00
    5   -3    8      0.56      0.00
    6   -3    8      0.87      0.00
    7   -3    8     -0.13      0.00
    8   -3    8      0.72      0.00
    9   -3    8     -0.19      0.00
   10   -3    8     -0.18      0.00
   11   -3    8     -0.31      0.00
   12   -3    8     -0.29      0.00
   13   -3    8     -0.68      0.00
   14   -3    8      0.34      0.00
   15   -3    8      0.14      0.00
  -18   -2    8      0.47      0.00
  -17   -2    8      0.12      0.00
  -16   -2    8      0.49      0.00
  -15   -2    8      0.87      0.00
  -14   -2    8     -0.95      0.00
  -13   -2    8      0.86      0.00
  -12   -2    8      0.35      0.00
  -11   -2    8     -1.10      0.00
  -10   -2    8      0.85      0.00
   -9   -2    8     -1.51      0.00
   -8   -2    8      1.28      0.00
   -7   -2    8     -0.50      0.00
   -6   -2    8      0.62      0.00
   -5   -2    8     -1.88      0.00
   -4   -2    8     -0.63      0.00
   -3   -2    8     -0.59      0.00
   -2   -2    8      0.40      0.00
   -1   -2    8      1.02      0.00
    0   -2    8     -1.11      0.00
    1   -2    8      1.22      0.00
    2   -2    8     -0.37      0.00
    3   -2    8     -0.21      0.00
    4   -2    8     -0.60      0.00
    5   -2    8      0.56      0.00
    6   -2    8      0.40      0.00
    7   -2    8     -0.61      0.00
    8   -2    8     -0.37      0.00
    9   -2    8      1.07      0.00
   10   -2    8     -0.26      0.00
   11   -2    8      0.18      0.00
   12   -2    8      0.56      0.00
   13   -2    8     -1.20      0.00
   14   -2    8      0.41      0.00
   15   -2    8     -0.02      0.00
  -19   -1    8      0.08      0.00
  -18   -1    8      0.01      0.00
  -17   -1    8     -0.04      0.00
  -16   -1    8     -0.50      0.00
  -15   -1    8      0.51      0.00
  -14   -1    8     -1.08      0.00
  -13   -1    8      0.81      0.00
  -12   -1    8      0.89      0.00
  -11   -1    8     -0.65      0.00
  -10   -1    8      0.94      0.00
   -9   -1    8      0.36      0.00
   -8   -1    8     -0.75      0.00
   -7   -1    8     -0.33      0.00
   -6   -1    8      0.95      0.00
   -5   -1    8      0.33      0.00
   -4   -1    8     -2.75      0.00
   -3   -1    8      3.79      0.00
   -2   -1    8     -2.32      0.00
   -1   -1    8      1.51      0.00
    0   -1    8     -0.08      0.00
    1   -1    8     -0.30      0.00
    2   -1    8      0.01      0.00
    3   -1    8     -0.17      0.00
    4   -1    8     -0.15      0.00
    5   -1    8     -0.43      0.00
    6   -1    8      0.86      0.00
    7   -1    8      0.00      0.00
    8   -1    8     -0.61      0.00
    9   -1    8      0.84      0.00
   10   -1    8     -0.05      0.00
   11   -1    8     -0.56      0.00
   12   -1    8      0.00      0.00
   13   -1    8     -0.36      0.00
   14   -1    8     -0.32      0.00
  -19    0    8     -0.83      0.00
  -18    0    8      0.05      0.00
  -17    0    8      0.45      0.00
  -16    0    8     -0.13      0.00
  -15    0    8      1.28      0.00
  -14    0    8     -0.95      0.00
  -13    0    8      0.41      0.00
  -12    0    8      0.61      0.00
  -11    0    8      0.11      0.00
  -10    0    8     -0.39      0.00
   -9    0    8      0.53      0.00
   -8    0    8     -0.21      0.00
   -7    0    8     -0.37      0.00
   -6    0    8      0.33      0.00
   -5    0    8      0.67      0.00
   -4    0    8     -1.92      0.00
   -3    0    8      3.59      0.00
   -2    0    8     -0.54      0.00
   -1    0    8     -0.12      0.00
    0    0    8      0.86      0.00
    1    0    8     -0.22      0.00
    2    0    8      0.07      0.00
    3    0    8      0.82      0.00
    4    0    8      0.63      0.00
    5    0    8      0.03      0.00
    6    0    8      0.19      0.00
    7    0    8     -0.79      0.00
    8    0    8     -0.03      0.00
    9    0    8      0.05      0.00
   10    0    8      0.56      0.00
   11    0    8     -0.40      0.00
   12    0    8     -0.28      0.00
   13    0    8     -0.06      0.00
   14    0    8     -0.23      0.00
  -19    1    8      1.02      0.00
  -18    1    8     -0.62      0.00
  -17    1    8      0.11      0.00
  -16    1    8     -0.49      0.00
  -15    1    8      0.20      0.00
  -14    1    8     -0.43      0.00
  -13    1    8     -0.13      0.00
  -12    1    8      0.02      0.00
  -11    1    8      0.26      0.00
  -10    1    8      0.10      0.00
   -9    1    8      0.23      0.00
   -8    1    8     -0.63      0.00
   -7    1    8      0.63      0.00
   -6    1    8      1.14      0.00
   -5    1    8      1.09      0.00
   -4    1    8     -1.20      0.00
   -3    1    8      2.75      0.00
   -2    1    8     -0.16      0.00
   -1    1    8     -0.56      0.00
    0    1    8      0.13      0.00
    1    1    8      1.03      0.00
    2    1    8     -0.58      0.00
    3    1    8      0.71      0.00
    4    1    8      0.31      0.00
    5    1    8     -0.42      0.00
    6    1    8      0.33      0.00
    7    1    8      0.11      0.00
    8    1    8     -1.26      0.00
    9    1    8      0.84      0.00
   10    1    8     -0.61      0.00
   11    1    8      0.49      0.00
   12    1    8     -1.13      0.00
   13    1    8      0.31      0.00
  -19    2    8      0.22      0.00
  -18    2    8      0.24      0.00
  -17    2    8     -0.21      0.00
  -16    2    8      0.16      0.00
  -15    2    8      0.05      0.00
  -14    2    8      0.15      0.00
  -13    2    8     -0.04      0.00
  -12    2    8      0.20      0.00
  -11    2    8     -0.03      0.00
  -10    2    8      0.35      0.00
   -9    2    8     -0.02      0.00
   -8    2    8     -0.37      0.00
   -7    2    8     -0.41      0.00
   -6    2    8      0.22      0.00
   -5    2    8     -0.50      0.00
   -4    2    8     -0.30      0.00
   -3    2    8      0.42      0.00
   -2    2    8      1.10      0.00
   -1    2    8     -0.14      0.00
    0    2    8     -0.39      0.00
    1    2    8     -0.13      0.00
    2    2    8     -0.48      0.00
    3    2    8      0.24      0.00
    4    2    8      1.02      0.00
    5    2    8     -0.46      0.00
    6    2    8     -0.98      0.00
    7    2    8      1.11      0.00
    8    2    8     -0.18      0.00
    9    2    8      0.64      0.00
   10    2    8      0.62      0.00
   11    2    8     -0.25      0.00
   12    2    8      0.29      0.00
   13    2    8     -0.68      0.00
  -19    3    8      0.24      0.00
  -18    3    8      0.27      0.00
  -17    3    8     -0.37      0.00
  -16    3    8      0.35      0.00
  -15    3    8     -0.29      0.00
  -14    3    8     -0.19      0.00
  -13    3    8     -0.26      0.00
  -12    3    8     -0.11      0.00
  -11    3    8     -0.04      0.00
  -10    3    8     -0.19      0.00
   -9    3    8      0.19      0.00
   -8    3    8     -0.05      0.00
   -7    3    8     -0.34      0.00
   -6    3    8      1.54      0.00
   -5    3    8     -1.15      0.00
   -4    3    8      1.25      0.00
   -3    3    8     -1.31      0.00
   -2    3    8     -0.25      0.00
   -1    3    8      0.24      0.00
    0    3    8     -1.22      0.00
    1    3    8      0.68      0.00
    2    3    8     -0.03      0.00
    3    3    8     -0.53      0.00
    4    3    8      0.24      0.00
    5    3    8      1.39      0.00
    6    3    8     -1.30      0.00
    7    3    8      0.77      0.00
    8    3    8     -0.27      0.00
    9    3    8      0.82      0.00
   10    3    8      0.04      0.00
   11    3    8     -0.19      0.00
   12    3    8     -0.41      0.00
  -19    4    8      0.16      0.00
  -18    4    8     -0.06      0.00
  -17    4    8     -1.24      0.00
  -16    4    8      0.35      0.00
  -15    4    8      0.01      0.00
  -14    4    8      0.62      0.00
  -13    4    8     -0.60      0.00
  -12    4    8      0.45      0.00
  -11    4    8     -0.24      0.00
  -10    4    8      0.03      0.00
   -9    4    8     -0.31      0.00
   -8    4    8      1.19      0.00
   -7    4    8     -1.02      0.00
   -6    4    8      0.67      0.00
   -5    4    8     -2.01      0.00
   -4    4    8      0.02      0.00
   -3    4    8      0.23      0.00
   -2    4    8     -1.00      0.00
   -1    4    8      2.19      0.00
    0    4    8     -1.02      0.00
    1    4    8     -1.30      0.00
    2    4    8      0.58      0.00
    3    4    8     -0.51      0.00
    4    4    8     -1.24      0.00
    5    4    8     -0.19      0.00
    6    4    8     -0.11      0.00
    7    4    8      0.56      0.00
    8    4    8      0.42      0.00
    9    4    8      1.09      0.00
   10    4    8      0.21      0.00
   11    4    8      0.30      0.00
   12    4    8     -0.67      0.00
  -19    5    8      0.03      0.00
  -18    5    8      0.72      0.00
  -17    5    8     -0.23      0.00
  -16    5    8     -0.74      0.00
  -15    5    8     -0.03      0.00
  -14    5    8      0.00      0.00
  -13    5    8     -0.03      0.00
  -12    5    8     -0.12      0.00
  -11    5    8     -0.01      0.00
  -10    5    8     -0.05      0.00
   -9    5    8     -0.96      0.00
   -8    5    8      0.77      0.00
   -7    5    8     -0.86      0.00
   -6    5    8      1.05      0.00
   -5    5    8     -0.73      0.00
   -4    5    8     -0.52      0.00
   -3    5    8      0.25      0.00
   -2    5    8     -2.55      0.00
   -1    5    8      1.38      0.00
    0    5    8     -0.89      0.00
    1    5    8      0.38      0.00
    2    5    8     -0.09      0.00
    3    5    8      0.22      0.00
    4    5    8      0.37      0.00
    5    5    8      0.08      0.00
    6    5    8     -0.70      0.00
    7    5    8      0.17      0.00
    8    5    8      0.84      0.00
    9    5    8      0.43      0.00
   10    5    8     -0.35      0.00
   11    5    8      0.20      0.00
  -19    6    8     -0.65      0.00
  -18    6    8     -0.18      0.00
  -17    6    8     -0.12      0.00
  -16    6    8     -0.10      0.00
  -15    6    8      0.31      0.00
  -14    6    8     -0.16      0.00
  -13    6    8      0.23      0.00
  -12    6    8      0.12      0.00
  -11    6    8     -0.27      0.00
  -10    6    8     -0.18      0.00
   -9    6    8      0.43      0.00
   -8    6    8      0.07      0.00
   -7    6    8      0.08      0.00
   -6    6    8      0.19      0.00
   -5    6    8      0.04      0.00
   -4    6    8     -0.79      0.00
   -3    6    8      1.70      0.00
   -2    6    8     -1.63      0.00
    0    6    8     -0.46      0.00
    1    6    8     -0.28      0.00
    2    6    8      1.46      0.00
    3    6    8     -0.95      0.00
    4    6    8     -1.31      0.00
    5    6    8      0.98      0.00
    6    6    8      0.24      0.00
    7    6    8     -0.94      0.00
    8    6    8      0.99      0.00
    9    6    8      0.49      0.00
   10    6    8     -0.96      0.00
  -18    7    8      0.44      0.00
  -17    7    8      0.00      0.00
  -16    7    8     -0.65      0.00
  -15    7    8      0.03      0.00
  -14    7    8     -0.02      0.00
  -13    7    8      0.16      0.00
  -12    7    8      0.11      0.00
  -11    7    8      0.12      0.00
  -10    7    8     -0.67      0.00
   -9    7    8     -0.04      0.00
   -8    7    8      0.87      0.00
   -7    7    8      0.31      0.00
   -6    7    8     -0.61      0.00
   -5    7    8      0.72      0.00
   -4    7    8     -1.34      0.00
   -3    7    8     -0.14      0.00
   -2    7    8     -1.32      0.00
   -1    7    8      0.09      0.00
    0    7    8      1.21      0.00
    1    7    8     -0.54      0.00
    2    7    8      1.69      0.00
    3    7    8      0.32      0.00
    4    7    8     -0.42      0.00
    5    7    8     -1.15      0.00
    6    7    8      0.93      0.00
    7    7    8     -0.95      0.00
    8    7    8      0.52      0.00
    9    7    8      0.27      0.00
  -18    8    8      0.65      0.00
  -17    8    8      0.29      0.00
  -16    8    8      0.30      0.00
  -15    8    8     -0.19      0.00
  -14    8    8      0.13      0.00
  -13    8    8      0.14      0.00
  -12    8    8     -0.03      0.00
  -11    8    8      0.57      0.00
  -10    8    8      0.39      0.00
   -9    8    8      0.14      0.00
   -8    8    8     -0.12      0.00
   -7    8    8      0.27      0.00
   -6    8    8      0.28      0.00
   -5    8    8      0.70      0.00
   -4    8    8      0.32      0.00
   -3    8    8      0.66      0.00
   -2    8    8      0.72      0.00
   -1    8    8      0.03      0.00
    0    8    8      0.51      0.00
    1    8    8     -0.15      0.00
    2    8    8      0.41      0.00
    5    8    8      0.11      0.00
    6    8    8     -0.34      0.00
    7    8    8     -0.05      0.00
    8    8    8      0.02      0.00
  -18    9    8      0.41      0.00
  -17    9    8      0.29      0.00
  -16    9    8      0.04      0.00
  -15    9    8     -0.57      0.00
  -14    9    8     -0.35      0.00
  -13    9    8      0.73      0.00
  -12    9    8     -1.40      0.00
  -11    9    8      0.17      0.00
  -10    9    8     -0.09      0.00
   -9    9    8      0.40      0.00
   -8    9    8      0.74      0.00
   -7    9    8      0.80      0.00
   -6    9    8     -2.31      0.00
   -5    9    8      2.25      0.00
   -4    9    8     -1.76      0.00
   -3    9    8     -0.68      0.00
   -2    9    8      0.65      0.00
   -1    9    8      0.44      0.00
    0    9    8      0.35      0.00
    1    9    8      0.13      0.00
    2    9    8      0.96      0.00
    3    9    8     -0.56      0.00
    4    9    8     -0.45      0.00
    5    9    8     -0.08      0.00
    6    9    8     -0.23      0.00
    7    9    8      0.14      0.00
  -17   10    8      0.47      0.00
  -16   10    8     -0.85      0.00
  -15   10    8      0.05      0.00
  -14   10    8     -1.20      0.00
  -13   10    8      0.62      0.00
  -12   10    8     -0.23      0.00
  -11   10    8      0.22      0.00
  -10   10    8     -0.09      0.00
   -9   10    8      0.90      0.00
   -8   10    8     -1.32      0.00
   -7   10    8     -0.01      0.00
   -6   10    8      0.18      0.00
   -5   10    8     -0.23      0.00
   -4   10    8      0.59      0.00
   -3   10    8      0.25      0.00
   -2   10    8     -0.18      0.00
   -1   10    8      0.67      0.00
    0   10    8     -0.77      0.00
    1   10    8     -0.01      0.00
    2   10    8      0.06      0.00
    3   10    8     -0.58      0.00
    4   10    8     -1.08      0.00
    5   10    8      0.40      0.00
    6   10    8     -0.23      0.00
  -16   11    8      0.11      0.00
  -15   11    8     -0.65      0.00
  -14   11    8      0.30      0.00
  -13   11    8      0.24      0.00
  -12   11    8     -0.89      0.00
  -11   11    8      0.19      0.00
  -10   11    8     -0.09      0.00
   -9   11    8      0.31      0.00
   -8   11    8      1.82      0.00
   -7   11    8     -2.03      0.00
   -6   11    8      0.26      0.00
   -5   11    8      0.89      0.00
   -4   11    8     -2.50      0.00
   -3   11    8      1.35      0.00
   -2   11    8      0.03      0.00
   -1   11    8      1.03      0.00
    0   11    8     -0.05      0.00
    1   11    8     -0.40      0.00
    2   11    8     -0.06      0.00
    3   11    8     -0.22      0.00
    4   11    8     -0.06      0.00
    5   11    8      0.05      0.00
  -16   12    8     -0.81      0.00
  -15   12    8     -0.11      0.00
  -14   12    8     -1.19      0.00
  -13   12    8      0.35      0.00
  -12   12    8      0.80      0.00
  -11   12    8     -0.90      0.00
  -10   12    8      1.37      0.00
   -9   12    8     -0.20      0.00
   -8   12    8      0.55      0.00
   -7   12    8     -0.30      0.00
   -6   12    8      0.08      0.00
   -5   12    8      0.96      0.00
   -4   12    8     -0.83      0.00
   -3   12    8      0.98      0.00
   -2   12    8     -0.07      0.00
   -1   12    8      0.00      0.00
    0   12    8     -0.48      0.00
    1   12    8      0.02      0.00
    2   12    8      0.06      0.00
    3   12    8     -0.32      0.00
    4   12    8     -0.10      0.00
  -15   13    8      0.57      0.00
  -14   13    8      0.63      0.00
  -13   13    8      1.04      0.00
  -12   13    8     -0.06      0.00
  -11   13    8      0.24      0.00
  -10   13    8     -0.38      0.00
   -9   13    8      0.70      0.00
   -8   13    8      0.32      0.00
   -7   13    8     -0.84      0.00
   -6   13    8      0.49      0.00
   -5   13    8     -0.37      0.00
   -4   13    8     -0.75      0.00
   -3   13    8      0.90      0.00
   -2   13    8      0.09      0.00
   -1   13    8      1.11      0.00
    0   13    8     -0.58      0.00
    1   13    8     -0.58      0.00
    2   13    8     -0.26      0.00
  -13   14    8      0.59      0.00
  -12   14    8      0.01      0.00
  -11   14    8     -0.64      0.00
  -10   14    8      0.27      0.00
   -9   14    8     -0.59      0.00
   -8   14    8      0.18      0.00
   -7   14    8     -0.23      0.00
   -6   14    8     -0.64      0.00
   -5   14    8     -0.36      0.00
   -4   14    8     -0.68      0.00
   -3   14    8      1.05      0.00
   -2   14    8     -0.42      0.00
   -1   14    8     -0.47      0.00
    0   14    8      0.12      0.00
  -11   15    8     -0.01      0.00
  -10   15    8     -0.07      0.00
   -9   15    8     -0.24      0.00
   -8   15    8     -0.28      0.00
   -7   15    8      0.35      0.00
   -6   15    8      0.16      0.00
   -5   15    8     -0.43      0.00
   -4   15    8     -0.35      0.00
   -3   15    8      0.78      0.00
    3  -22    9      1.39      0.00
    4  -22    9     -1.29      0.00
   -2  -21    9      0.53      0.00
   -1  -21    9      1.56      0.00
    0  -21    9     -1.45      0.00
    1  -21    9     -0.19      0.00
    2  -21    9     -1.00      0.00
    3  -21    9      0.74      0.00
    4  -21    9     -0.24      0.00
    5  -21    9      1.87      0.00
    6  -21    9      0.29      0.00
    7  -21    9     -0.71      0.00
    8  -21    9      0.00      0.00
   -4  -20    9      0.97      0.00
   -3  -20    9     -1.00      0.00
   -2  -20    9      0.11      0.00
    0  -20    9     -0.18      0.00
    3  -20    9      1.84      0.00
    4  -20    9     -1.71      0.00
    5  -20    9     -0.74      0.00
    6  -20    9      0.80      0.00
    7  -20    9     -0.90      0.00
    8  -20    9     -0.07      0.00
    9  -20    9      0.39      0.00
   10  -20    9     -0.66      0.00
   -6  -19    9     -0.13      0.00
   -5  -19    9     -1.01      0.00
   -4  -19    9      0.73      0.00
   -3  -19    9     -0.69      0.00
   -2  -19    9      1.10      0.00
   -1  -19    9      0.73      0.00
    0  -19    9     -1.14      0.00
    2  -19    9     -1.14      0.00
    3  -19    9      1.23      0.00
    4  -19    9      1.92      0.00
    5  -19    9      0.70      0.00
    6  -19    9      0.56      0.00
    8  -19    9     -1.12      0.00
    9  -19    9      0.90      0.00
   10  -19    9     -0.30      0.00
   11  -19    9      0.00      0.00
   12  -19    9      0.17      0.00
   -7  -18    9      0.63      0.00
   -6  -18    9      0.07      0.00
   -5  -18    9     -0.85      0.00
   -4  -18    9      0.65      0.00
   -3  -18    9     -1.79      0.00
   -2  -18    9      0.34      0.00
   -1  -18    9     -0.31      0.00
    0  -18    9     -0.02      0.00
    2  -18    9     -0.08      0.00
    3  -18    9     -1.28      0.00
    4  -18    9      1.45      0.00
    5  -18    9     -2.00      0.00
    6  -18    9      0.12      0.00
    7  -18    9      0.61      0.00
    8  -18    9     -0.73      0.00
    9  -18    9      0.33      0.00
   10  -18    9     -0.64      0.00
   11  -18    9     -0.11      0.00
   12  -18    9     -0.03      0.00
   13  -18    9      0.45      0.00
   -9  -17    9      0.37      0.00
   -8  -17    9     -0.51      0.00
   -7  -17    9      0.51      0.00
   -6  -17    9     -0.07      0.00
   -5  -17    9     -0.93      0.00
   -4  -17    9      0.49      0.00
   -3  -17    9     -0.59      0.00
   -2  -17    9      0.74      0.00
   -1  -17    9      1.12      0.00
    0  -17    9     -3.23      0.00
    1  -17    9      2.69      0.00
    2  -17    9      0.29      0.00
    3  -17    9     -3.40      0.00
    4  -17    9      1.72      0.00
    5  -17    9      1.07      0.00
    6  -17    9     -1.06      0.00
    7  -17    9      0.92      0.00
    8  -17    9     -0.94      0.00
    9  -17    9     -0.02      0.00
   10  -17    9      0.41      0.00
   11  -17    9     -0.32      0.00
   12  -17    9     -0.05      0.00
   13  -17    9     -0.34      0.00
  -10  -16    9      0.00      0.00
   -8  -16    9     -1.60      0.00
   -7  -16    9      0.78      0.00
   -6  -16    9      1.19      0.00
   -5  -16    9     -1.34      0.00
   -4  -16    9      1.14      0.00
   -3  -16    9     -0.19      0.00
   -2  -16    9     -0.88      0.00
   -1  -16    9      1.17      0.00
    0  -16    9     -0.91      0.00
    1  -16    9     -2.10      0.00
    2  -16    9      3.47      0.00
    3  -16    9     -3.19      0.00
    4  -16    9     -1.79      0.00
    5  -16    9     -0.49      0.00
    6  -16    9      0.03      0.00
    7  -16    9     -0.33      0.00
    8  -16    9      0.68      0.00
    9  -16    9     -0.63      0.00
   10  -16    9      0.65      0.00
   11  -16    9      0.20      0.00
   12  -16    9     -0.25      0.00
   13  -16    9     -0.08      0.00
   14  -16    9     -0.14      0.00
  -11  -15    9      0.44      0.00
  -10  -15    9     -1.25      0.00
   -9  -15    9      1.60      0.00
   -8  -15    9     -1.41      0.00
   -7  -15    9     -0.46      0.00
   -6  -15    9      1.21      0.00
   -5  -15    9     -1.23      0.00
   -4  -15    9     -0.14      0.00
   -3  -15    9      1.47      0.00
   -2  -15    9      0.06      0.00
   -1  -15    9     -1.36      0.00
    1  -15    9     -1.60      0.00
    2  -15    9     -0.05      0.00
    3  -15    9     -2.02      0.00
    4  -15    9      0.49      0.00
    5  -15    9     -0.26      0.00
    6  -15    9      1.20      0.00
    7  -15    9     -0.67      0.00
    8  -15    9      0.04      0.00
    9  -15    9     -0.11      0.00
   10  -15    9      0.23      0.00
   11  -15    9      0.44      0.00
   12  -15    9     -0.43      0.00
   13  -15    9     -0.07      0.00
   14  -15    9      0.63      0.00
  -12  -14    9     -0.28      0.00
  -11  -14    9      0.78      0.00
  -10  -14    9     -0.56      0.00
   -9  -14    9      0.77      0.00
   -8  -14    9      0.28      0.00
   -7  -14    9     -0.59      0.00
   -6  -14    9      0.85      0.00
   -5  -14    9      0.68      0.00
   -4  -14    9     -0.91      0.00
   -3  -14    9      1.63      0.00
   -2  -14    9      0.93      0.00
   -1  -14    9     -1.23      0.00
    0  -14    9      0.11      0.00
    1  -14    9      1.30      0.00
    3  -14    9     -1.57      0.00
    4  -14    9     -0.50      0.00
    5  -14    9     -0.06      0.00
    6  -14    9      0.05      0.00
    7  -14    9      0.36      0.00
    8  -14    9      0.17      0.00
    9  -14    9      0.50      0.00
   10  -14    9      0.65      0.00
   11  -14    9      0.60      0.00
   12  -14    9     -0.64      0.00
   13  -14    9     -0.38      0.00
   14  -14    9      0.29      0.00
   15  -14    9      0.45      0.00
  -13  -13    9      0.96      0.00
  -11  -13    9      0.22      0.00
   -9  -13    9     -0.86      0.00
   -8  -13    9     -0.17      0.00
   -7  -13    9     -0.18      0.00
   -6  -13    9     -0.66      0.00
   -5  -13    9     -0.17      0.00
   -4  -13    9     -0.48      0.00
   -3  -13    9      0.22      0.00
   -2  -13    9     -0.02      0.00
   -1  -13    9      1.64      0.00
    0  -13    9     -1.12      0.00
    1  -13    9     -0.79      0.00
    2  -13    9      1.51      0.00
    3  -13    9     -0.79      0.00
    4  -13    9      0.85      0.00
    5  -13    9      0.08      0.00
    6  -13    9      0.99      0.00
    7  -13    9     -0.57      0.00
    8  -13    9      0.97      0.00
    9  -13    9     -0.20      0.00
   10  -13    9      0.12      0.00
   11  -13    9      0.18      0.00
   12  -13    9     -0.08      0.00
   13  -13    9     -0.44      0.00
   14  -13    9     -0.30      0.00
   15  -13    9      0.81      0.00
  -14  -12    9     -0.34      0.00
  -13  -12    9      0.50      0.00
  -12  -12    9      0.83      0.00
  -11  -12    9     -0.63      0.00
  -10  -12    9      0.46      0.00
   -9  -12    9      1.10      0.00
   -8  -12    9     -0.56      0.00
   -7  -12    9     -0.06      0.00
   -6  -12    9     -0.37      0.00
   -5  -12    9     -0.24      0.00
   -4  -12    9     -1.79      0.00
   -3  -12    9      1.67      0.00
   -2  -12    9     -1.68      0.00
   -1  -12    9      1.10      0.00
    0  -12    9      2.01      0.00
    1  -12    9      0.57      0.00
    3  -12    9     -0.32      0.00
    4  -12    9      0.18      0.00
    5  -12    9     -0.48      0.00
    6  -12    9      0.31      0.00
    7  -12    9     -0.75      0.00
    8  -12    9     -0.06      0.00
    9  -12    9      0.71      0.00
   10  -12    9     -0.21      0.00
   11  -12    9      0.10      0.00
   12  -12    9     -0.19      0.00
   13  -12    9     -0.27      0.00
   14  -12    9     -0.01      0.00
   15  -12    9     -0.35      0.00
  -14  -11    9     -0.22      0.00
  -13  -11    9      0.06      0.00
  -12  -11    9      0.43      0.00
  -11  -11    9      0.56      0.00
  -10  -11    9     -0.82      0.00
   -9  -11    9     -0.19      0.00
   -8  -11    9     -0.27      0.00
   -7  -11    9     -0.47      0.00
   -6  -11    9     -0.80      0.00
   -5  -11    9      0.15      0.00
   -4  -11    9     -0.51      0.00
   -3  -11    9      0.75      0.00
   -2  -11    9      0.09      0.00
   -1  -11    9      0.25      0.00
    0  -11    9     -0.60      0.00
    3  -11    9     -1.04      0.00
    4  -11    9      0.14      0.00
    5  -11    9     -1.57      0.00
    6  -11    9      0.51      0.00
    7  -11    9     -0.27      0.00
    8  -11    9     -0.04      0.00
    9  -11    9      0.49      0.00
   10  -11    9     -0.18      0.00
   11  -11    9      0.08      0.00
   12  -11    9     -0.08      0.00
   13  -11    9     -0.41      0.00
   14  -11    9      0.07      0.00
  -15  -10    9      0.12      0.00
  -14  -10    9      0.03      0.00
  -13  -10    9      0.31      0.00
  -12  -10    9     -0.51      0.00
  -11  -10    9     -0.23      0.00
  -10  -10    9     -0.31      0.00
   -9  -10    9      0.00      0.00
   -8  -10    9      0.48      0.00
   -7  -10    9      0.18      0.00
   -6  -10    9     -0.01      0.00
   -5  -10    9     -0.81      0.00
   -4  -10    9     -0.96      0.00
   -3  -10    9     -0.10      0.00
   -2  -10    9     -0.26      0.00
   -1  -10    9     -0.35      0.00
    0  -10    9      1.77      0.00
    1  -10    9     -0.41      0.00
    2  -10    9     -0.20      0.00
    3  -10    9      0.02      0.00
    4  -10    9      0.78      0.00
    5  -10    9     -0.75      0.00
    6  -10    9     -0.35      0.00
    7  -10    9      0.47      0.00
    8  -10    9     -0.63      0.00
    9  -10    9      0.74      0.00
   10  -10    9     -0.16      0.00
   11  -10    9      0.06      0.00
   12  -10    9      0.42      0.00
   13  -10    9     -0.82      0.00
   15  -10    9     -0.72      0.00
   16  -10    9      0.13      0.00
  -16   -9    9      0.76      0.00
  -15   -9    9     -0.36      0.00
  -14   -9    9     -0.93      0.00
  -13   -9    9      0.52      0.00
  -12   -9    9      0.26      0.00
  -11   -9    9     -0.15      0.00
  -10   -9    9     -0.23      0.00
   -9   -9    9      0.44      0.00
   -8   -9    9     -0.63      0.00
   -7   -9    9      0.75      0.00
   -6   -9    9     -0.47      0.00
   -5   -9    9      0.34      0.00
   -4   -9    9      0.80      0.00
   -3   -9    9      0.33      0.00
   -2   -9    9      0.95      0.00
   -1   -9    9      0.01      0.00
    0   -9    9      0.06      0.00
    1   -9    9     -0.94      0.00
    2   -9    9     -0.26      0.00
    3   -9    9     -1.52      0.00
    4   -9    9      0.42      0.00
    5   -9    9     -0.74      0.00
    6   -9    9     -0.97      0.00
    7   -9    9      0.73      0.00
    8   -9    9     -0.32      0.00
    9   -9    9      0.21      0.00
   10   -9    9      0.21      0.00
   11   -9    9     -0.62      0.00
   12   -9    9      0.78      0.00
   14   -9    9      0.75      0.00
   15   -9    9      0.26      0.00
   16   -9    9     -0.08      0.00
  -16   -8    9      0.22      0.00
  -15   -8    9      0.86      0.00
  -14   -8    9     -0.60      0.00
  -13   -8    9      0.02      0.00
  -12   -8    9      0.17      0.00
  -11   -8    9     -0.33      0.00
  -10   -8    9     -0.25      0.00
   -9   -8    9      0.64      0.00
   -8   -8    9      0.57      0.00
   -7   -8    9      0.59      0.00
   -6   -8    9      0.58      0.00
   -5   -8    9     -0.81      0.00
   -4   -8    9      0.37      0.00
   -3   -8    9      1.38      0.00
   -2   -8    9     -0.98      0.00
   -1   -8    9      0.28      0.00
    0   -8    9      1.78      0.00
    1   -8    9     -0.91      0.00
    2   -8    9      0.30      0.00
    3   -8    9      0.45      0.00
    4   -8    9      0.00      0.00
    5   -8    9      0.57      0.00
    6   -8    9     -0.46      0.00
    7   -8    9      0.72      0.00
    8   -8    9      0.68      0.00
    9   -8    9     -0.18      0.00
   10   -8    9      0.61      0.00
   11   -8    9     -0.49      0.00
   12   -8    9     -0.23      0.00
   13   -8    9      0.55      0.00
   14   -8    9      0.16      0.00
   15   -8    9      0.53      0.00
  -17   -7    9     -0.01      0.00
  -16   -7    9     -0.30      0.00
  -15   -7    9      0.32      0.00
  -14   -7    9     -0.66      0.00
  -13   -7    9     -0.24      0.00
  -12   -7    9     -0.06      0.00
  -11   -7    9     -0.10      0.00
  -10   -7    9      0.30      0.00
   -9   -7    9     -0.26      0.00
   -8   -7    9      0.73      0.00
   -7   -7    9     -0.58      0.00
   -6   -7    9      0.42      0.00
   -5   -7    9     -1.03      0.00
   -4   -7    9     -0.52      0.00
   -3   -7    9      0.53      0.00
   -2   -7    9      1.12      0.00
   -1   -7    9     -1.51      0.00
    0   -7    9      2.56      0.00
    1   -7    9      0.21      0.00
    2   -7    9      0.29      0.00
    3   -7    9      0.23      0.00
    4   -7    9     -0.11      0.00
    5   -7    9     -0.02      0.00
    6   -7    9     -0.51      0.00
    7   -7    9      0.38      0.00
    8   -7    9      0.24      0.00
    9   -7    9     -0.13      0.00
   10   -7    9     -0.52      0.00
   11   -7    9     -0.20      0.00
   12   -7    9     -0.53      0.00
   13   -7    9      0.53      0.00
   14   -7    9     -0.03      0.00
   15   -7    9     -0.01      0.00
  -17   -6    9     -0.73      0.00
  -16   -6    9      0.39      0.00
  -15   -6    9      0.19      0.00
  -14   -6    9     -0.30      0.00
  -13   -6    9      0.10      0.00
  -11   -6    9      0.27      0.00
  -10   -6    9     -0.20      0.00
   -9   -6    9      0.05      0.00
   -8   -6    9     -0.22      0.00
   -7   -6    9      0.29      0.00
   -6   -6    9     -0.07      0.00
   -5   -6    9     -0.18      0.00
   -4   -6    9      0.96      0.00
   -3   -6    9      0.08      0.00
   -2   -6    9      0.71      0.00
   -1   -6    9     -1.18      0.00
    0   -6    9      1.11      0.00
    1   -6    9     -0.52      0.00
    2   -6    9     -0.88      0.00
    3   -6    9      0.01      0.00
    4   -6    9     -1.88      0.00
    5   -6    9      0.54      0.00
    6   -6    9     -1.57      0.00
    7   -6    9      0.86      0.00
    8   -6    9     -0.01      0.00
    9   -6    9      0.19      0.00
   10   -6    9      0.51      0.00
   11   -6    9      0.10      0.00
   12   -6    9     -0.44      0.00
   13   -6    9      0.87      0.00
   14   -6    9     -0.28      0.00
   15   -6    9      0.42      0.00
  -18   -5    9      0.15      0.00
  -17   -5    9     -0.60      0.00
  -16   -5    9     -0.12      0.00
  -15   -5    9      0.46      0.00
  -14   -5    9     -0.14      0.00
  -13   -5    9     -0.55      0.00
  -12   -5    9      0.02      0.00
  -11   -5    9     -0.16      0.00
  -10   -5    9      0.39      0.00
   -9   -5    9     -0.17      0.00
   -8   -5    9      0.70      0.00
   -7   -5    9     -0.52      0.00
   -6   -5    9      0.06      0.00
   -5   -5    9     -0.70      0.00
   -4   -5    9      0.10      0.00
   -3   -5    9     -0.85      0.00
   -2   -5    9      0.84      0.00
   -1   -5    9     -1.55      0.00
    0   -5    9      0.35      0.00
    1   -5    9      1.45      0.00
    2   -5    9     -0.01      0.00
    3   -5    9      0.15      0.00
    4   -5    9     -0.43      0.00
    5   -5    9     -0.17      0.00
    6   -5    9      0.28      0.00
    7   -5    9     -0.43      0.00
    8   -5    9      1.05      0.00
    9   -5    9     -0.19      0.00
   10   -5    9     -0.59      0.00
   11   -5    9      0.33      0.00
   12   -5    9     -0.78      0.00
   13   -5    9      0.55      0.00
   14   -5    9     -0.45      0.00
   15   -5    9      0.18      0.00
  -18   -4    9      0.41      0.00
  -17   -4    9     -0.19      0.00
  -16   -4    9     -0.41      0.00
  -15   -4    9      0.67      0.00
  -14   -4    9      0.88      0.00
  -13   -4    9     -0.69      0.00
  -12   -4    9      0.52      0.00
  -11   -4    9      0.15      0.00
  -10   -4    9     -0.60      0.00
   -9   -4    9      0.36      0.00
   -8   -4    9     -1.04      0.00
   -7   -4    9      1.67      0.00
   -6   -4    9     -1.25      0.00
   -5   -4    9      0.06      0.00
   -4   -4    9      1.41      0.00
   -3   -4    9     -0.27      0.00
   -2   -4    9     -0.34      0.00
   -1   -4    9      1.85      0.00
    0   -4    9     -1.12      0.00
    1   -4    9      0.01      0.00
    2   -4    9      1.16      0.00
    3   -4    9     -0.69      0.00
    4   -4    9     -0.93      0.00
    5   -4    9     -0.83      0.00
    6   -4    9     -0.65      0.00
    7   -4    9      0.22      0.00
    8   -4    9     -0.95      0.00
    9   -4    9      1.04      0.00
   10   -4    9      0.10      0.00
   11   -4    9      0.62      0.00
   12   -4    9     -0.27      0.00
   13   -4    9      0.51      0.00
   14   -4    9     -0.47      0.00
   15   -4    9     -0.23      0.00
  -18   -3    9     -0.18      0.00
  -17   -3    9      0.23      0.00
  -16   -3    9     -0.68      0.00
  -15   -3    9      0.24      0.00
  -14   -3    9      0.98      0.00
  -13   -3    9     -0.51      0.00
  -12   -3    9      0.11      0.00
  -11   -3    9      1.12      0.00
  -10   -3    9     -0.23      0.00
   -9   -3    9      1.32      0.00
   -8   -3    9     -0.62      0.00
   -7   -3    9      0.46      0.00
   -6   -3    9     -0.67      0.00
   -5   -3    9      0.12      0.00
   -4   -3    9      0.23      0.00
   -3   -3    9      0.26      0.00
   -2   -3    9     -0.89      0.00
   -1   -3    9     -0.37      0.00
    0   -3    9      0.66      0.00
    1   -3    9     -0.65      0.00
    2   -3    9      0.74      0.00
    3   -3    9     -0.42      0.00
    4   -3    9      0.26      0.00
    5   -3    9     -0.03      0.00
    6   -3    9     -0.35      0.00
    7   -3    9      0.51      0.00
    8   -3    9      0.80      0.00
    9   -3    9     -0.76      0.00
   10   -3    9      0.43      0.00
   11   -3    9      0.00      0.00
   12   -3    9     -0.61      0.00
   13   -3    9      0.31      0.00
   14   -3    9      0.18      0.00
  -18   -2    9     -0.07      0.00
  -17   -2    9     -0.14      0.00
  -16   -2    9      0.50      0.00
  -15   -2    9      0.02      0.00
  -14   -2    9      1.77      0.00
  -13   -2    9     -0.83      0.00
  -12   -2    9      0.27      0.00
  -11   -2    9      0.51      0.00
  -10   -2    9     -0.32      0.00
   -9   -2    9     -0.09      0.00
   -8   -2    9     -0.04      0.00
   -7   -2    9      0.07      0.00
   -6   -2    9     -1.17      0.00
   -5   -2    9     -1.29      0.00
   -4   -2    9      1.96      0.00
   -3   -2    9     -1.48      0.00
   -2   -2    9      1.44      0.00
   -1   -2    9      0.03      0.00
    0   -2    9     -0.51      0.00
    1   -2    9     -0.02      0.00
    2   -2    9      1.88      0.00
    3   -2    9      0.47      0.00
    4   -2    9     -1.03      0.00
    5   -2    9      0.72      0.00
    6   -2    9     -0.37      0.00
    7   -2    9     -0.68      0.00
    8   -2    9      0.28      0.00
    9   -2    9     -0.15      0.00
   10   -2    9     -0.20      0.00
   11   -2    9      0.58      0.00
   12   -2    9      0.01      0.00
   13   -2    9     -0.08      0.00
   14   -2    9      0.48      0.00
  -19   -1    9      0.43      0.00
  -18   -1    9      0.21      0.00
  -17   -1    9     -0.22      0.00
  -16   -1    9      0.06      0.00
  -15   -1    9     -0.61      0.00
  -14   -1    9      1.00      0.00
  -13   -1    9     -0.15      0.00
  -12   -1    9     -0.37      0.00
  -11   -1    9      0.41      0.00
  -10   -1    9      0.73      0.00
   -9   -1    9      0.10      0.00
   -8   -1    9      0.47      0.00
   -7   -1    9     -0.24      0.00
   -6   -1    9      0.60      0.00
   -5   -1    9     -0.18      0.00
   -4   -1    9      1.31      0.00
   -3   -1    9     -0.77      0.00
   -2   -1    9      0.70      0.00
   -1   -1    9      0.49      0.00
    0   -1    9      0.20      0.00
    1   -1    9     -1.13      0.00
    2   -1    9     -0.25      0.00
    3   -1    9      0.70      0.00
    4   -1    9     -0.80      0.00
    5   -1    9     -0.19      0.00
    6   -1    9      0.12      0.00
    7   -1    9      0.23      0.00
    8   -1    9     -0.25      0.00
    9   -1    9     -0.14      0.00
   10   -1    9     -0.36      0.00
   11   -1    9     -0.02      0.00
   12   -1    9      0.30      0.00
   13   -1    9      0.13      0.00
   14   -1    9      0.31      0.00
  -19    0    9     -0.63      0.00
  -18    0    9      0.20      0.00
  -17    0    9      0.23      0.00
  -16    0    9      0.29      0.00
  -15    0    9     -0.12      0.00
  -14    0    9      0.03      0.00
  -13    0    9      0.20      0.00
  -12    0    9     -0.03      0.00
  -11    0    9     -0.18      0.00
  -10    0    9     -0.05      0.00
   -9    0    9      0.06      0.00
   -8    0    9      0.53      0.00
   -7    0    9     -0.94      0.00
   -6    0    9     -0.84      0.00
   -5    0    9     -0.10      0.00
   -4    0    9      0.54      0.00
   -3    0    9     -0.32      0.00
   -2    0    9      0.81      0.00
   -1    0    9     -0.18      0.00
    0    0    9     -0.29      0.00
    1    0    9      0.20      0.00
    2    0    9      0.64      0.00
    3    0    9      0.30      0.00
    4    0    9     -0.34      0.00
    5    0    9      0.43      0.00
    6    0    9     -0.19      0.00
    7    0    9     -0.60      0.00
    8    0    9      0.69      0.00
    9    0    9     -0.77      0.00
   10    0    9      0.31      0.00
   11    0    9     -0.56      0.00
   12    0    9      0.80      0.00
   13    0    9     -0.21      0.00
  -19    1    9      0.22      0.00
  -18    1    9      0.04      0.00
  -17    1    9     -0.01      0.00
  -16    1    9      0.00      0.00
  -15    1    9     -0.13      0.00
  -14    1    9     -0.23      0.00
  -13    1    9     -0.20      0.00
  -12    1    9     -0.22      0.00
  -11    1    9     -0.40      0.00
  -10    1    9     -0.46      0.00
   -9    1    9      0.22      0.00
   -8    1    9      0.83      0.00
   -7    1    9      0.43      0.00
   -6    1    9     -0.13      0.00
   -5    1    9      1.65      0.00
   -4    1    9     -1.16      0.00
   -3    1    9      0.18      0.00
   -2    1    9      0.77      0.00
   -1    1    9      0.96      0.00
    0    1    9     -0.07      0.00
    1    1    9     -0.19      0.00
    2    1    9      0.53      0.00
    3    1    9      0.34      0.00
    4    1    9     -1.13      0.00
    5    1    9      0.29      0.00
    6    1    9      1.14      0.00
    7    1    9     -0.92      0.00
    8    1    9      0.04      0.00
    9    1    9     -0.08      0.00
   10    1    9     -0.38      0.00
   11    1    9      0.61      0.00
   12    1    9     -0.18      0.00
   13    1    9      0.67      0.00
  -19    2    9     -0.18      0.00
  -18    2    9      0.02      0.00
  -17    2    9      0.59      0.00
  -16    2    9     -0.70      0.00
  -15    2    9      0.26      0.00
  -14    2    9     -0.37      0.00
  -13    2    9      0.57      0.00
  -12    2    9     -0.35      0.00
  -11    2    9     -0.37      0.00
  -10    2    9     -0.22      0.00
   -9    2    9      0.55      0.00
   -8    2    9     -0.16      0.00
   -7    2    9      0.37      0.00
   -6    2    9     -1.89      0.00
   -5    2    9      0.29      0.00
   -4    2    9     -0.90      0.00
   -3    2    9     -0.58      0.00
   -2    2    9      0.57      0.00
   -1    2    9     -0.60      0.00
    0    2    9      0.67      0.00
    1    2    9     -0.68      0.00
    2    2    9     -0.83      0.00
    3    2    9      0.54      0.00
    4    2    9     -0.43      0.00
    5    2    9     -1.31      0.00
    6    2    9      1.32      0.00
    7    2    9     -0.47      0.00
    9    2    9     -0.07      0.00
   10    2    9      0.42      0.00
   11    2    9      0.52      0.00
   12    2    9      0.69      0.00
  -19    3    9      0.23      0.00
  -18    3    9     -0.33      0.00
  -17    3    9      0.69      0.00
  -16    3    9     -0.41      0.00
  -15    3    9     -0.31      0.00
  -14    3    9     -0.72      0.00
  -13    3    9      0.71      0.00
  -12    3    9      0.10      0.00
  -11    3    9     -0.67      0.00
  -10    3    9     -0.87      0.00
   -9    3    9      1.25      0.00
   -8    3    9     -1.32      0.00
   -7    3    9      0.46      0.00
   -6    3    9     -0.06      0.00
   -5    3    9      0.27      0.00
   -4    3    9     -1.29      0.00
   -3    3    9     -0.09      0.00
   -2    3    9      0.50      0.00
   -1    3    9     -1.03      0.00
    0    3    9     -0.66      0.00
    1    3    9      1.56      0.00
    2    3    9     -0.95      0.00
    3    3    9     -0.32      0.00
    4    3    9      0.88      0.00
    5    3    9      0.12      0.00
    6    3    9      0.27      0.00
    7    3    9     -0.63      0.00
    8    3    9     -0.14      0.00
    9    3    9      0.03      0.00
   10    3    9      0.17      0.00
   11    3    9      0.26      0.00
   12    3    9      0.35      0.00
  -19    4    9     -0.39      0.00
  -18    4    9      0.14      0.00
  -17    4    9     -0.60      0.00
  -16    4    9      0.80      0.00
  -15    4    9     -0.09      0.00
  -14    4    9     -0.49      0.00
  -13    4    9      0.29      0.00
  -12    4    9      0.00      0.00
  -11    4    9     -0.06      0.00
  -10    4    9     -0.77      0.00
   -9    4    9      1.44      0.00
   -8    4    9     -0.61      0.00
   -7    4    9     -0.15      0.00
   -6    4    9     -0.81      0.00
   -5    4    9      0.64      0.00
   -4    4    9     -0.59      0.00
   -3    4    9     -0.63      0.00
   -2    4    9      1.68      0.00
   -1    4    9     -0.62      0.00
    0    4    9     -0.20      0.00
    1    4    9     -0.45      0.00
    2    4    9      0.26      0.00
    3    4    9     -0.42      0.00
    4    4    9     -0.29      0.00
    5    4    9      0.13      0.00
    6    4    9      0.77      0.00
    7    4    9     -0.18      0.00
    8    4    9     -1.11      0.00
    9    4    9      0.10      0.00
   10    4    9      0.26      0.00
   11    4    9     -0.04      0.00
  -19    5    9      0.04      0.00
  -18    5    9      0.66      0.00
  -17    5    9     -0.47      0.00
  -16    5    9     -0.89      0.00
  -15    5    9      0.24      0.00
  -14    5    9     -0.77      0.00
  -13    5    9      0.60      0.00
  -12    5    9     -0.03      0.00
  -11    5    9      0.09      0.00
  -10    5    9     -0.39      0.00
   -9    5    9     -0.41      0.00
   -8    5    9     -0.36      0.00
   -7    5    9     -1.01      0.00
   -6    5    9      0.17      0.00
   -5    5    9     -0.52      0.00
   -4    5    9      0.41      0.00
   -3    5    9     -1.54      0.00
   -2    5    9      0.17      0.00
   -1    5    9     -1.09      0.00
    0    5    9     -0.39      0.00
    1    5    9      1.00      0.00
    2    5    9     -0.55      0.00
    3    5    9      0.97      0.00
    5    5    9     -0.40      0.00
    6    5    9     -0.01      0.00
    7    5    9      0.43      0.00
    8    5    9     -1.42      0.00
    9    5    9     -0.04      0.00
   10    5    9      0.73      0.00
  -18    6    9      0.47      0.00
  -17    6    9      0.53      0.00
  -16    6    9      0.41      0.00
  -15    6    9      0.41      0.00
  -14    6    9     -0.32      0.00
  -13    6    9     -0.09      0.00
  -12    6    9      0.13      0.00
  -11    6    9      0.06      0.00
  -10    6    9      0.82      0.00
   -9    6    9      0.24      0.00
   -8    6    9     -0.55      0.00
   -7    6    9     -0.40      0.00
   -6    6    9      1.00      0.00
   -5    6    9      0.13      0.00
   -4    6    9      0.95      0.00
   -3    6    9      0.14      0.00
   -2    6    9      0.69      0.00
   -1    6    9      0.62      0.00
    0    6    9     -0.78      0.00
    1    6    9      0.50      0.00
    2    6    9     -0.74      0.00
    3    6    9      0.30      0.00
    6    6    9     -0.52      0.00
    7    6    9      0.47      0.00
    8    6    9     -2.48      0.00
    9    6    9     -0.05      0.00
  -18    7    9      0.00      0.00
  -17    7    9      0.03      0.00
  -16    7    9     -0.71      0.00
  -15    7    9      0.82      0.00
  -14    7    9     -0.49      0.00
  -13    7    9      0.02      0.00
  -12    7    9     -0.09      0.00
  -11    7    9      0.05      0.00
  -10    7    9     -0.34      0.00
   -9    7    9      0.78      0.00
   -8    7    9     -0.29      0.00
   -7    7    9     -0.43      0.00
   -6    7    9      0.64      0.00
   -5    7    9     -0.80      0.00
   -4    7    9      1.24      0.00
   -3    7    9     -1.24      0.00
   -2    7    9     -0.58      0.00
   -1    7    9      0.53      0.00
    0    7    9     -0.34      0.00
    1    7    9      0.95      0.00
    2    7    9     -0.93      0.00
    3    7    9      1.22      0.00
    4    7    9      0.85      0.00
    5    7    9     -0.88      0.00
    6    7    9      0.19      0.00
    7    7    9      0.58      0.00
    8    7    9     -1.84      0.00
  -18    8    9      0.17      0.00
  -17    8    9      0.42      0.00
  -16    8    9      0.01      0.00
  -15    8    9      0.51      0.00
  -14    8    9      0.60      0.00
  -13    8    9     -1.39      0.00
  -12    8    9      1.24      0.00
  -11    8    9      0.01      0.00
  -10    8    9      0.15      0.00
   -9    8    9      0.41      0.00
   -8    8    9     -0.64      0.00
   -7    8    9     -1.42      0.00
   -5    8    9     -2.74      0.00
   -4    8    9      3.04      0.00
   -3    8    9      0.38      0.00
   -2    8    9     -0.46      0.00
   -1    8    9      1.03      0.00
    0    8    9     -0.72      0.00
    1    8    9      0.25      0.00
    2    8    9     -1.29      0.00
    3    8    9      0.08      0.00
    4    8    9      0.95      0.00
    5    8    9     -0.10      0.00
    6    8    9     -0.45      0.00
    7    8    9      0.55      0.00
  -17    9    9      0.25      0.00
  -16    9    9     -0.15      0.00
  -15    9    9      0.26      0.00
  -14    9    9      0.54      0.00
  -13    9    9     -0.73      0.00
  -12    9    9     -0.76      0.00
  -11    9    9      0.48      0.00
  -10    9    9     -0.71      0.00
   -9    9    9      0.11      0.00
   -8    9    9      0.86      0.00
   -7    9    9     -1.90      0.00
   -6    9    9      1.05      0.00
   -5    9    9     -0.24      0.00
   -4    9    9     -0.23      0.00
   -3    9    9      0.03      0.00
   -2    9    9     -0.66      0.00
   -1    9    9      0.53      0.00
    0    9    9      0.15      0.00
    1    9    9     -0.08      0.00
    2    9    9     -0.33      0.00
    5    9    9     -0.37      0.00
    6    9    9     -0.52      0.00
  -17   10    9     -0.82      0.00
  -16   10    9     -0.47      0.00
  -15   10    9      0.11      0.00
  -14   10    9     -0.05      0.00
  -13   10    9     -0.32      0.00
  -12   10    9      0.25      0.00
  -11   10    9      0.51      0.00
  -10   10    9     -0.67      0.00
   -9   10    9     -0.10      0.00
   -8   10    9     -1.49      0.00
   -7   10    9      1.21      0.00
   -6   10    9      0.47      0.00
   -5   10    9     -0.70      0.00
   -4   10    9      2.23      0.00
   -3   10    9     -0.84      0.00
   -2   10    9     -0.51      0.00
   -1   10    9      0.13      0.00
    0   10    9     -0.42      0.00
    1   10    9     -0.07      0.00
    2   10    9     -0.06      0.00
    4   10    9     -0.01      0.00
    5   10    9      0.71      0.00
  -16   11    9      0.83      0.00
  -15   11    9      0.06      0.00
  -14   11    9      1.34      0.00
  -13   11    9      0.24      0.00
  -12   11    9     -1.37      0.00
  -11   11    9      2.00      0.00
  -10   11    9     -0.75      0.00
   -9   11    9      0.25      0.00
   -8   11    9     -0.12      0.00
   -7   11    9      0.26      0.00
   -6   11    9      0.55      0.00
   -5   11    9     -0.97      0.00
   -4   11    9      0.81      0.00
   -3   11    9     -0.38      0.00
   -2   11    9     -0.58      0.00
   -1   11    9      0.75      0.00
    0   11    9      0.03      0.00
    1   11    9     -0.61      0.00
    2   11    9      0.40      0.00
    3   11    9      0.45      0.00
    4   11    9     -0.02      0.00
  -15   12    9     -0.34      0.00
  -14   12    9     -0.33      0.00
  -13   12    9      0.31      0.00
  -12   12    9     -0.17      0.00
  -11   12    9      0.53      0.00
  -10   12    9      0.33      0.00
   -9   12    9     -0.61      0.00
   -8   12    9     -0.79      0.00
   -7   12    9      1.05      0.00
   -6   12    9     -0.06      0.00
   -5   12    9      0.58      0.00
   -4   12    9     -0.13      0.00
   -3   12    9      0.40      0.00
   -2   12    9     -1.09      0.00
   -1   12    9     -0.15      0.00
    0   12    9     -0.02      0.00
    1   12    9     -0.16      0.00
    2   12    9      0.13      0.00
  -13   13    9     -0.75      0.00
  -12   13    9     -0.10      0.00
  -11   13    9      0.63      0.00
  -10   13    9      0.02      0.00
   -9   13    9     -0.49      0.00
   -8   13    9      0.30      0.00
   -7   13    9     -0.08      0.00
   -6   13    9      0.36      0.00
   -5   13    9      0.03      0.00
   -4   13    9     -0.33      0.00
   -3   13    9     -0.86      0.00
   -2   13    9     -0.05      0.00
   -1   13    9      0.25      0.00
    0   13    9     -0.59      0.00
  -11   14    9      0.06      0.00
  -10   14    9      0.20      0.00
   -9   14    9     -0.85      0.00
   -8   14    9     -0.69      0.00
   -7   14    9     -0.60      0.00
   -6   14    9     -0.33      0.00
   -5   14    9     -0.13      0.00
   -4   14    9     -0.73      0.00
   -3   14    9     -0.44      0.00
   -2   14    9     -1.07      0.00
    3  -22   10     -1.04      0.00
   -1  -21   10     -0.37      0.00
    0  -21   10     -0.10      0.00
    1  -21   10      0.11      0.00
    2  -21   10     -0.22      0.00
    3  -21   10      0.25      0.00
    4  -21   10      1.72      0.00
    5  -21   10      0.55      0.00
    6  -21   10      0.10      0.00
    7  -21   10      0.58      0.00
    8  -21   10      0.32      0.00
   -4  -20   10     -0.43      0.00
   -3  -20   10      0.37      0.00
   -2  -20   10     -1.02      0.00
   -1  -20   10     -0.09      0.00
    0  -20   10      0.74      0.00
    1  -20   10      1.02      0.00
    2  -20   10     -0.51      0.00
    3  -20   10     -0.15      0.00
    6  -20   10      0.77      0.00
    7  -20   10     -0.26      0.00
    8  -20   10      1.01      0.00
    9  -20   10     -1.36      0.00
   10  -20   10      0.68      0.00
   -6  -19   10     -0.13      0.00
   -5  -19   10      0.60      0.00
   -4  -19   10     -0.53      0.00
   -3  -19   10      0.62      0.00
   -2  -19   10     -0.35      0.00
   -1  -19   10      0.06      0.00
    0  -19   10     -0.90      0.00
    1  -19   10      1.29      0.00
    2  -19   10      0.60      0.00
    3  -19   10      1.23      0.00
    4  -19   10      0.23      0.00
    5  -19   10      0.78      0.00
    6  -19   10      0.43      0.00
    7  -19   10     -0.22      0.00
    8  -19   10      1.39      0.00
   10  -19   10      1.07      0.00
   11  -19   10     -0.05      0.00
   -7  -18   10     -0.77      0.00
   -6  -18   10      0.15      0.00
   -5  -18   10     -0.45      0.00
   -4  -18   10      0.13      0.00
   -3  -18   10     -1.14      0.00
   -2  -18   10     -0.20      0.00
   -1  -18   10     -0.52      0.00
    0  -18   10      1.98      0.00
    2  -18   10     -0.78      0.00
    3  -18   10      1.29      0.00
    4  -18   10     -1.23      0.00
    5  -18   10     -1.73      0.00
    6  -18   10      1.34      0.00
    7  -18   10     -1.13      0.00
    8  -18   10      0.62      0.00
    9  -18   10     -0.06      0.00
   10  -18   10     -0.37      0.00
   11  -18   10      0.57      0.00
   12  -18   10     -0.77      0.00
   -9  -17   10      0.33      0.00
   -8  -17   10      0.36      0.00
   -7  -17   10      0.02      0.00
   -6  -17   10     -0.88      0.00
   -5  -17   10      0.89      0.00
   -4  -17   10     -0.25      0.00
   -3  -17   10     -0.21      0.00
   -2  -17   10     -0.08      0.00
   -1  -17   10     -0.55      0.00
    0  -17   10     -1.43      0.00
    1  -17   10      2.04      0.00
    2  -17   10     -1.83      0.00
    3  -17   10     -0.85      0.00
    4  -17   10      0.97      0.00
    5  -17   10     -1.10      0.00
    6  -17   10     -0.77      0.00
    7  -17   10      0.86      0.00
    8  -17   10     -0.99      0.00
    9  -17   10      0.60      0.00
   10  -17   10      0.04      0.00
   11  -17   10      0.21      0.00
   12  -17   10     -0.35      0.00
   13  -17   10     -0.09      0.00
  -10  -16   10      0.94      0.00
   -9  -16   10     -0.28      0.00
   -8  -16   10      1.19      0.00
   -7  -16   10      0.65      0.00
   -6  -16   10     -0.11      0.00
   -5  -16   10      0.32      0.00
   -4  -16   10      1.49      0.00
   -3  -16   10     -0.85      0.00
   -2  -16   10     -0.34      0.00
   -1  -16   10      2.16      0.00
    0  -16   10     -1.05      0.00
    1  -16   10     -1.76      0.00
    2  -16   10      1.87      0.00
    3  -16   10     -0.70      0.00
    4  -16   10     -1.08      0.00
    5  -16   10      0.52      0.00
    6  -16   10     -1.32      0.00
    7  -16   10      0.56      0.00
    8  -16   10      0.00      0.00
    9  -16   10     -0.12      0.00
   10  -16   10      0.38      0.00
   11  -16   10     -0.02      0.00
   12  -16   10      0.54      0.00
   13  -16   10     -0.02      0.00
  -11  -15   10     -0.28      0.00
  -10  -15   10     -0.39      0.00
   -8  -15   10     -0.17      0.00
   -7  -15   10      0.69      0.00
   -6  -15   10      0.02      0.00
   -5  -15   10     -0.62      0.00
   -4  -15   10      1.51      0.00
   -3  -15   10     -0.75      0.00
   -2  -15   10     -1.92      0.00
   -1  -15   10      0.17      0.00
    0  -15   10      1.31      0.00
    1  -15   10     -2.21      0.00
    2  -15   10     -0.94      0.00
    3  -15   10      1.31      0.00
    4  -15   10      0.48      0.00
    5  -15   10     -0.16      0.00
    6  -15   10     -0.41      0.00
    7  -15   10      0.25      0.00
    8  -15   10     -0.21      0.00
    9  -15   10      0.08      0.00
   10  -15   10     -0.02      0.00
   11  -15   10     -0.27      0.00
   12  -15   10      0.74      0.00
   13  -15   10     -0.02      0.00
   14  -15   10     -0.27      0.00
  -12  -14   10      0.06      0.00
  -11  -14   10      1.94      0.00
  -10  -14   10     -1.41      0.00
   -9  -14   10      1.57      0.00
   -8  -14   10      0.85      0.00
   -7  -14   10     -0.35      0.00
   -6  -14   10      1.05      0.00
   -5  -14   10     -0.21      0.00
   -4  -14   10      0.59      0.00
   -3  -14   10      0.35      0.00
   -2  -14   10      0.61      0.00
   -1  -14   10     -1.62      0.00
    0  -14   10      3.60      0.00
    1  -14   10      0.45      0.00
    4  -14   10      0.39      0.00
    5  -14   10      0.62      0.00
    6  -14   10     -0.91      0.00
    7  -14   10      0.85      0.00
    8  -14   10     -0.73      0.00
    9  -14   10     -0.01      0.00
   10  -14   10      0.14      0.00
   11  -14   10     -0.17      0.00
   12  -14   10      0.52      0.00
   13  -14   10      0.08      0.00
   14  -14   10     -0.26      0.00
  -13  -13   10      0.27      0.00
  -10  -13   10     -0.63      0.00
   -9  -13   10     -1.03      0.00
   -8  -13   10      0.84      0.00
   -7  -13   10     -0.04      0.00
   -6  -13   10     -0.39      0.00
   -5  -13   10      0.23      0.00
   -4  -13   10      1.14      0.00
   -3  -13   10     -2.33      0.00
   -2  -13   10      1.47      0.00
   -1  -13   10     -1.69      0.00
    0  -13   10      0.13      0.00
    1  -13   10     -0.66      0.00
    4  -13   10      0.36      0.00
    5  -13   10      0.28      0.00
    6  -13   10     -0.48      0.00
    7  -13   10      0.51      0.00
    8  -13   10     -0.10      0.00
    9  -13   10     -1.01      0.00
   10  -13   10      0.18      0.00
   11  -13   10     -0.35      0.00
   12  -13   10      0.45      0.00
   13  -13   10     -0.09      0.00
   14  -13   10     -0.99      0.00
   15  -13   10      0.00      0.00
  -14  -12   10      0.24      0.00
  -13  -12   10      0.13      0.00
  -12  -12   10      0.00      0.00
  -11  -12   10      0.00      0.00
  -10  -12   10      0.53      0.00
   -9  -12   10     -0.11      0.00
   -8  -12   10     -0.17      0.00
   -7  -12   10      0.16      0.00
   -6  -12   10      0.23      0.00
   -5  -12   10     -0.96      0.00
   -4  -12   10      0.33      0.00
   -3  -12   10     -1.11      0.00
   -2  -12   10      0.18      0.00
   -1  -12   10     -0.64      0.00
    0  -12   10      2.42      0.00
    2  -12   10     -0.07      0.00
    3  -12   10      0.49      0.00
    4  -12   10      0.26      0.00
    5  -12   10      1.10      0.00
    6  -12   10     -1.04      0.00
    7  -12   10      0.14      0.00
    8  -12   10     -0.48      0.00
    9  -12   10     -0.96      0.00
   10  -12   10      0.08      0.00
   11  -12   10      0.15      0.00
   12  -12   10     -0.09      0.00
   13  -12   10      0.56      0.00
   14  -12   10     -0.19      0.00
  -14  -11   10      0.21      0.00
  -13  -11   10     -0.27      0.00
  -12  -11   10      0.02      0.00
  -11  -11   10      0.37      0.00
  -10  -11   10     -0.43      0.00
   -9  -11   10     -0.37      0.00
   -8  -11   10     -0.77      0.00
   -7  -11   10      0.27      0.00
   -6  -11   10     -0.31      0.00
   -5  -11   10      0.99      0.00
   -4  -11   10      0.95      0.00
   -3  -11   10     -0.35      0.00
   -2  -11   10      0.16      0.00
   -1  -11   10     -0.98      0.00
    0  -11   10     -2.37      0.00
    1  -11   10     -1.03      0.00
    3  -11   10     -1.24      0.00
    4  -11   10     -0.39      0.00
    5  -11   10      0.33      0.00
    6  -11   10      0.00      0.00
    7  -11   10     -0.74      0.00
    8  -11   10      0.83      0.00
    9  -11   10     -1.14      0.00
   10  -11   10      0.45      0.00
   11  -11   10      0.43      0.00
   12  -11   10     -0.05      0.00
   13  -11   10     -0.10      0.00
  -15  -10   10      0.55      0.00
  -14  -10   10      0.86      0.00
  -13  -10   10     -0.85      0.00
  -12  -10   10     -0.66      0.00
  -11  -10   10      0.02      0.00
  -10  -10   10     -0.20      0.00
   -9  -10   10     -0.37      0.00
   -8  -10   10      0.34      0.00
   -7  -10   10      0.24      0.00
   -6  -10   10      0.92      0.00
   -5  -10   10     -0.62      0.00
   -4  -10   10     -0.18      0.00
   -3  -10   10     -0.25      0.00
   -2  -10   10     -0.91      0.00
   -1  -10   10     -0.12      0.00
    0  -10   10      0.32      0.00
    2  -10   10      0.63      0.00
    3  -10   10      0.55      0.00
    4  -10   10     -0.40      0.00
    5  -10   10      1.49      0.00
    6  -10   10      0.20      0.00
    7  -10   10     -0.72      0.00
    8  -10   10      0.29      0.00
    9  -10   10     -0.04      0.00
   10  -10   10     -0.01      0.00
   11  -10   10      0.50      0.00
   12  -10   10     -0.30      0.00
   14  -10   10     -0.46      0.00
   15  -10   10      0.03      0.00
  -16   -9   10      0.22      0.00
  -15   -9   10     -1.08      0.00
  -14   -9   10      0.80      0.00
  -13   -9   10     -0.09      0.00
  -12   -9   10     -0.92      0.00
  -11   -9   10      0.97      0.00
  -10   -9   10      0.30      0.00
   -9   -9   10     -0.37      0.00
   -8   -9   10     -0.58      0.00
   -7   -9   10      0.32      0.00
   -6   -9   10      0.30      0.00
   -5   -9   10      0.91      0.00
   -4   -9   10      0.44      0.00
   -3   -9   10     -0.31      0.00
   -2   -9   10      0.65      0.00
   -1   -9   10     -0.08      0.00
    0   -9   10     -0.62      0.00
    1   -9   10      0.08      0.00
    2   -9   10     -0.06      0.00
    3   -9   10      0.23      0.00
    4   -9   10     -0.80      0.00
    5   -9   10      0.54      0.00
    6   -9   10      0.43      0.00
    7   -9   10     -0.72      0.00
    8   -9   10     -0.06      0.00
    9   -9   10      0.20      0.00
   10   -9   10     -0.25      0.00
   11   -9   10      0.83      0.00
   12   -9   10     -0.35      0.00
   13   -9   10     -0.07      0.00
   14   -9   10      0.00      0.00
   15   -9   10     -0.23      0.00
  -16   -8   10      1.31      0.00
  -15   -8   10     -0.50      0.00
  -14   -8   10      0.42      0.00
  -13   -8   10      0.34      0.00
  -12   -8   10     -0.72      0.00
  -11   -8   10      0.05      0.00
  -10   -8   10      0.19      0.00
   -9   -8   10      0.06      0.00
   -8   -8   10     -0.34      0.00
   -7   -8   10      0.37      0.00
   -6   -8   10      0.51      0.00
   -5   -8   10      0.51      0.00
   -4   -8   10      0.00      0.00
   -3   -8   10      0.32      0.00
   -2   -8   10     -0.76      0.00
   -1   -8   10     -0.35      0.00
    0   -8   10     -0.53      0.00
    1   -8   10      0.78      0.00
    2   -8   10      0.02      0.00
    3   -8   10      1.21      0.00
    4   -8   10     -0.37      0.00
    5   -8   10      0.41      0.00
    6   -8   10      0.71      0.00
    7   -8   10     -0.94      0.00
    8   -8   10      0.05      0.00
    9   -8   10      0.39      0.00
   10   -8   10      0.35      0.00
   11   -8   10     -0.34      0.00
   12   -8   10      0.59      0.00
   13   -8   10     -0.66      0.00
   14   -8   10      0.41      0.00
  -17   -7   10     -0.20      0.00
  -16   -7   10     -0.12      0.00
  -15   -7   10      0.02      0.00
  -14   -7   10     -0.48      0.00
  -13   -7   10     -0.43      0.00
  -12   -7   10      0.17      0.00
  -11   -7   10     -0.16      0.00
  -10   -7   10      0.44      0.00
   -9   -7   10     -0.44      0.00
   -8   -7   10     -0.22      0.00
   -7   -7   10     -0.55      0.00
   -6   -7   10     -0.09      0.00
   -5   -7   10      0.25      0.00
   -4   -7   10     -1.75      0.00
   -3   -7   10     -0.70      0.00
   -2   -7   10      0.29      0.00
   -1   -7   10      0.29      0.00
    0   -7   10     -1.03      0.00
    1   -7   10      0.98      0.00
    2   -7   10      0.11      0.00
    3   -7   10      0.74      0.00
    4   -7   10      0.54      0.00
    5   -7   10     -0.82      0.00
    6   -7   10      1.37      0.00
    7   -7   10     -0.83      0.00
    8   -7   10     -0.52      0.00
    9   -7   10      0.02      0.00
   10   -7   10     -0.16      0.00
   11   -7   10      0.31      0.00
   12   -7   10      0.05      0.00
   13   -7   10     -0.31      0.00
   14   -7   10     -0.05      0.00
   15   -7   10     -0.59      0.00
  -17   -6   10      0.11      0.00
  -16   -6   10     -0.44      0.00
  -15   -6   10      0.17      0.00
  -14   -6   10     -0.16      0.00
  -13   -6   10      0.24      0.00
  -12   -6   10      0.17      0.00
  -11   -6   10     -0.06      0.00
  -10   -6   10     -0.02      0.00
   -9   -6   10     -0.55      0.00
   -8   -6   10     -0.66      0.00
   -7   -6   10      0.20      0.00
   -6   -6   10     -0.32      0.00
   -5   -6   10      1.51      0.00
   -4   -6   10     -0.40      0.00
   -3   -6   10      0.58      0.00
   -2   -6   10     -0.61      0.00
   -1   -6   10     -0.48      0.00
    0   -6   10     -0.36      0.00
    1   -6   10     -1.40      0.00
    2   -6   10     -0.18      0.00
    3   -6   10     -0.42      0.00
    4   -6   10      0.82      0.00
    5   -6   10     -0.89      0.00
    6   -6   10     -0.38      0.00
    7   -6   10      0.21      0.00
    8   -6   10     -0.94      0.00
    9   -6   10      0.61      0.00
   10   -6   10      0.66      0.00
   11   -6   10      0.14      0.00
   12   -6   10      0.31      0.00
   13   -6   10     -0.55      0.00
   14   -6   10      0.09      0.00
   15   -6   10      0.00      0.00
  -17   -5   10      0.17      0.00
  -16   -5   10      0.09      0.00
  -15   -5   10     -0.27      0.00
  -14   -5   10     -0.38      0.00
  -13   -5   10     -0.16      0.00
  -12   -5   10      0.48      0.00
  -11   -5   10     -0.31      0.00
  -10   -5   10      0.78      0.00
   -9   -5   10     -0.20      0.00
   -8   -5   10      0.37      0.00
   -7   -5   10     -0.49      0.00
   -6   -5   10      0.95      0.00
   -5   -5   10     -0.36      0.00
   -4   -5   10     -0.99      0.00
   -3   -5   10     -0.60      0.00
   -2   -5   10      1.32      0.00
   -1   -5   10     -1.89      0.00
    0   -5   10     -0.24      0.00
    1   -5   10      0.01      0.00
    2   -5   10     -0.43      0.00
    3   -5   10      0.50      0.00
    4   -5   10      0.78      0.00
    5   -5   10      0.73      0.00
    6   -5   10      0.10      0.00
    7   -5   10      0.05      0.00
    8   -5   10      0.24      0.00
    9   -5   10     -0.77      0.00
   10   -5   10      0.30      0.00
   11   -5   10      0.04      0.00
   12   -5   10     -0.42      0.00
   13   -5   10     -0.04      0.00
   14   -5   10     -0.58      0.00
  -18   -4   10     -0.10      0.00
  -17   -4   10     -0.11      0.00
  -16   -4   10      0.08      0.00
  -15   -4   10     -0.07      0.00
  -14   -4   10      0.05      0.00
  -13   -4   10      0.23      0.00
  -12   -4   10      0.32      0.00
  -11   -4   10     -0.12      0.00
  -10   -4   10     -0.22      0.00
   -9   -4   10     -0.26      0.00
   -8   -4   10      0.22      0.00
   -7   -4   10     -0.69      0.00
   -6   -4   10      1.20      0.00
   -5   -4   10     -0.35      0.00
   -4   -4   10     -0.24      0.00
   -3   -4   10      0.42      0.00
   -2   -4   10      0.86      0.00
   -1   -4   10      0.67      0.00
    0   -4   10     -0.82      0.00
    1   -4   10     -0.26      0.00
    2   -4   10     -0.48      0.00
    3   -4   10      0.89      0.00
    4   -4   10      0.33      0.00
    5   -4   10     -0.20      0.00
    6   -4   10     -0.16      0.00
    7   -4   10      0.08      0.00
    8   -4   10     -0.63      0.00
    9   -4   10      0.37      0.00
   10   -4   10     -0.41      0.00
   11   -4   10      0.62      0.00
   12   -4   10     -0.77      0.00
   13   -4   10      0.18      0.00
   14   -4   10     -0.74      0.00
  -18   -3   10      0.07      0.00
  -17   -3   10      0.73      0.00
  -16   -3   10     -0.11      0.00
  -15   -3   10     -0.03      0.00
  -14   -3   10     -0.63      0.00
  -13   -3   10      0.96      0.00
  -12   -3   10     -0.64      0.00
  -11   -3   10      0.81      0.00
  -10   -3   10     -0.13      0.00
   -9   -3   10      0.15      0.00
   -8   -3   10      0.78      0.00
   -7   -3   10     -0.59      0.00
   -6   -3   10      1.13      0.00
   -5   -3   10      0.64      0.00
   -4   -3   10     -1.68      0.00
   -3   -3   10      0.98      0.00
   -2   -3   10     -0.09      0.00
   -1   -3   10     -0.64      0.00
    0   -3   10     -0.57      0.00
    1   -3   10      0.36      0.00
    2   -3   10     -1.98      0.00
    3   -3   10     -0.07      0.00
    4   -3   10      1.50      0.00
    5   -3   10      0.14      0.00
    6   -3   10     -0.44      0.00
    7   -3   10      0.73      0.00
    8   -3   10      0.00      0.00
    9   -3   10     -0.21      0.00
   10   -3   10     -0.27      0.00
   11   -3   10      0.14      0.00
   12   -3   10     -0.64      0.00
   13   -3   10      0.34      0.00
   14   -3   10     -0.40      0.00
  -18   -2   10     -0.55      0.00
  -17   -2   10      0.42      0.00
  -16   -2   10      0.38      0.00
  -15   -2   10      0.21      0.00
  -14   -2   10     -0.23      0.00
  -13   -2   10      0.06      0.00
  -12   -2   10      0.02      0.00
  -11   -2   10     -0.17      0.00
  -10   -2   10     -0.37      0.00
   -9   -2   10     -0.68      0.00
   -8   -2   10     -0.09      0.00
   -7   -2   10     -0.07      0.00
   -6   -2   10     -0.68      0.00
   -5   -2   10     -0.04      0.00
   -4   -2   10     -1.17      0.00
   -3   -2   10      0.20      0.00
   -2   -2   10     -0.01      0.00
   -1   -2   10      0.38      0.00
    0   -2   10     -1.55      0.00
    1   -2   10      1.01      0.00
    2   -2   10      0.69      0.00
    3   -2   10     -0.62      0.00
    4   -2   10      0.54      0.00
    5   -2   10      0.54      0.00
    6   -2   10     -0.24      0.00
    7   -2   10     -0.25      0.00
    8   -2   10      0.02      0.00
    9   -2   10      0.10      0.00
   10   -2   10     -0.69      0.00
   11   -2   10      0.48      0.00
   12   -2   10     -0.56      0.00
   13   -2   10      0.15      0.00
  -18   -1   10      0.12      0.00
  -17   -1   10      0.11      0.00
  -16   -1   10      0.04      0.00
  -15   -1   10     -0.20      0.00
  -14   -1   10      0.44      0.00
  -13   -1   10     -0.37      0.00
  -12   -1   10     -0.49      0.00
  -11   -1   10      0.01      0.00
  -10   -1   10     -0.28      0.00
   -9   -1   10     -0.58      0.00
   -8   -1   10      0.06      0.00
   -7   -1   10      1.26      0.00
   -6   -1   10      0.96      0.00
   -5   -1   10      0.49      0.00
   -4   -1   10      0.43      0.00
   -3   -1   10     -0.38      0.00
   -2   -1   10     -0.21      0.00
   -1   -1   10      0.90      0.00
    0   -1   10      0.11      0.00
    1   -1   10     -0.60      0.00
    2   -1   10     -0.46      0.00
    3   -1   10      0.26      0.00
    4   -1   10      0.20      0.00
    5   -1   10     -0.27      0.00
    6   -1   10      0.13      0.00
    7   -1   10      0.06      0.00
    8   -1   10     -0.32      0.00
    9   -1   10      0.29      0.00
   10   -1   10     -0.39      0.00
   11   -1   10      0.26      0.00
   12   -1   10     -0.17      0.00
   13   -1   10      0.16      0.00
  -19    0   10     -0.14      0.00
  -18    0   10     -0.15      0.00
  -17    0   10      0.16      0.00
  -16    0   10      0.07      0.00
  -15    0   10     -0.55      0.00
  -14    0   10      0.13      0.00
  -13    0   10      0.04      0.00
  -12    0   10     -0.37      0.00
  -11    0   10     -0.04      0.00
  -10    0   10     -0.10      0.00
   -9    0   10     -0.50      0.00
   -8    0   10     -0.80      0.00
   -7    0   10      0.77      0.00
   -6    0   10      0.05      0.00
   -5    0   10     -1.37      0.00
   -4    0   10      1.13      0.00
   -3    0   10     -0.53      0.00
   -2    0   10     -1.65      0.00
   -1    0   10     -0.37      0.00
    0    0   10      0.50      0.00
    1    0   10      0.63      0.00
    2    0   10     -0.35      0.00
    3    0   10     -0.10      0.00
    4    0   10      0.60      0.00
    5    0   10     -0.09      0.00
    6    0   10     -0.35      0.00
    7    0   10      0.36      0.00
    8    0   10     -0.11      0.00
    9    0   10      0.32      0.00
   10    0   10      0.12      0.00
   11    0   10     -0.23      0.00
   12    0   10     -0.06      0.00
   13    0   10     -0.06      0.00
  -19    1   10      0.14      0.00
  -18    1   10     -0.03      0.00
  -17    1   10     -0.76      0.00
  -16    1   10      0.71      0.00
  -15    1   10     -0.50      0.00
  -14    1   10      0.51      0.00
  -13    1   10     -0.85      0.00
  -12    1   10      0.11      0.00
  -11    1   10     -0.18      0.00
  -10    1   10     -0.24      0.00
   -9    1   10     -0.77      0.00
   -8    1   10      0.05      0.00
   -7    1   10      0.77      0.00
   -6    1   10      1.46      0.00
   -5    1   10      0.09      0.00
   -4    1   10      0.02      0.00
   -3    1   10      0.41      0.00
   -2    1   10     -0.57      0.00
   -1    1   10      0.21      0.00
    0    1   10      0.00      0.00
    1    1   10      0.28      0.00
    2    1   10      0.29      0.00
    3    1   10     -0.08      0.00
    4    1   10     -0.02      0.00
    5    1   10      0.77      0.00
    6    1   10     -0.55      0.00
    7    1   10      0.55      0.00
    8    1   10     -0.43      0.00
    9    1   10      0.19      0.00
   10    1   10      0.28      0.00
   11    1   10      0.10      0.00
   12    1   10     -0.42      0.00
  -19    2   10     -0.01      0.00
  -18    2   10     -0.03      0.00
  -17    2   10     -0.15      0.00
  -16    2   10      0.14      0.00
  -15    2   10     -0.14      0.00
  -14    2   10      0.41      0.00
  -13    2   10     -0.26      0.00
  -12    2   10     -0.85      0.00
  -11    2   10      1.01      0.00
  -10    2   10      0.16      0.00
   -9    2   10     -0.75      0.00
   -8    2   10      0.54      0.00
   -7    2   10      0.49      0.00
   -6    2   10     -0.71      0.00
   -5    2   10     -0.02      0.00
   -4    2   10      0.95      0.00
   -3    2   10     -1.14      0.00
   -2    2   10     -0.98      0.00
   -1    2   10      0.01      0.00
    0    2   10      0.86      0.00
    1    2   10     -1.47      0.00
    2    2   10     -0.19      0.00
    3    2   10      0.30      0.00
    4    2   10     -0.67      0.00
    5    2   10     -0.08      0.00
    6    2   10      0.21      0.00
    7    2   10      0.40      0.00
    8    2   10      0.69      0.00
    9    2   10     -0.06      0.00
   10    2   10      0.11      0.00
   11    2   10      0.35      0.00
  -19    3   10      0.77      0.00
  -18    3   10     -1.00      0.00
  -17    3   10      0.23      0.00
  -16    3   10     -0.23      0.00
  -15    3   10     -0.28      0.00
  -14    3   10      0.21      0.00
  -13    3   10     -0.10      0.00
  -12    3   10     -0.16      0.00
  -11    3   10      0.37      0.00
  -10    3   10      0.28      0.00
   -9    3   10     -1.60      0.00
   -8    3   10     -0.16      0.00
   -7    3   10      0.56      0.00
   -6    3   10     -0.32      0.00
   -5    3   10      0.02      0.00
   -4    3   10      0.24      0.00
   -3    3   10      0.29      0.00
   -2    3   10     -1.36      0.00
   -1    3   10     -0.94      0.00
    0    3   10      0.72      0.00
    1    3   10     -0.02      0.00
    2    3   10     -0.58      0.00
    3    3   10      0.87      0.00
    4    3   10     -0.03      0.00
    5    3   10      0.10      0.00
    6    3   10     -0.01      0.00
    8    3   10      0.62      0.00
    9    3   10      0.13      0.00
   10    3   10     -0.71      0.00
   11    3   10      0.12      0.00
  -19    4   10      0.13      0.00
  -18    4   10     -0.50      0.00
  -17    4   10      0.37      0.00
  -16    4   10      1.41      0.00
  -15    4   10     -0.47      0.00
  -14    4   10      0.47      0.00
  -13    4   10     -0.51      0.00
  -12    4   10     -0.35      0.00
  -11    4   10      0.29      0.00
  -10    4   10      0.46      0.00
   -9    4   10      0.02      0.00
   -8    4   10     -0.22      0.00
   -7    4   10      1.49      0.00
   -6    4   10     -1.30      0.00
   -5    4   10      0.74      0.00
   -4    4   10      0.78      0.00
   -3    4   10     -0.82      0.00
   -2    4   10      1.24      0.00
   -1    4   10     -0.40      0.00
    0    4   10      0.84      0.00
    1    4   10     -0.18      0.00
    2    4   10     -0.57      0.00
    3    4   10      0.74      0.00
    4    4   10     -1.21      0.00
    5    4   10      0.35      0.00
    6    4   10      0.21      0.00
    7    4   10      0.35      0.00
    8    4   10      0.49      0.00
    9    4   10     -0.66      0.00
   10    4   10     -1.00      0.00
  -18    5   10     -0.69      0.00
  -17    5   10     -0.79      0.00
  -16    5   10      0.01      0.00
  -15    5   10     -0.25      0.00
  -14    5   10     -0.04      0.00
  -13    5   10      0.11      0.00
  -12    5   10     -0.13      0.00
  -11    5   10      0.02      0.00
  -10    5   10     -0.71      0.00
   -9    5   10     -0.01      0.00
   -8    5   10     -0.59      0.00
   -7    5   10      0.72      0.00
   -6    5   10     -1.13      0.00
   -5    5   10     -0.60      0.00
   -4    5   10      0.65      0.00
   -3    5   10     -1.05      0.00
   -2    5   10     -0.60      0.00
   -1    5   10     -0.39      0.00
    0    5   10      0.16      0.00
    1    5   10      0.90      0.00
    2    5   10     -0.03      0.00
    3    5   10      0.41      0.00
    4    5   10     -0.22      0.00
    5    5   10     -0.78      0.00
    6    5   10      0.20      0.00
    7    5   10      0.13      0.00
    8    5   10      2.41      0.00
    9    5   10     -0.98      0.00
  -18    6   10      0.23      0.00
  -17    6   10      0.64      0.00
  -16    6   10      1.14      0.00
  -15    6   10     -0.41      0.00
  -14    6   10      0.37      0.00
  -13    6   10      0.12      0.00
  -12    6   10      0.13      0.00
  -11    6   10     -0.26      0.00
  -10    6   10      0.75      0.00
   -9    6   10      0.11      0.00
   -8    6   10      0.56      0.00
   -7    6   10      1.02      0.00
   -6    6   10     -0.72      0.00
   -5    6   10      0.99      0.00
   -4    6   10     -0.20      0.00
   -3    6   10      1.04      0.00
   -2    6   10      0.81      0.00
   -1    6   10      0.23      0.00
    0    6   10      0.40      0.00
    1    6   10     -0.04      0.00
    2    6   10      0.54      0.00
    4    6   10     -1.31      0.00
    5    6   10      0.81      0.00
    6    6   10     -0.63      0.00
    7    6   10     -0.57      0.00
    8    6   10      1.77      0.00
  -18    7   10     -0.73      0.00
  -17    7   10     -0.18      0.00
  -16    7   10      0.21      0.00
  -15    7   10      0.21      0.00
  -14    7   10     -1.04      0.00
  -13    7   10      1.34      0.00
  -12    7   10     -1.07      0.00
  -11    7   10     -0.15      0.00
  -10    7   10     -0.20      0.00
   -9    7   10      0.48      0.00
   -8    7   10      0.42      0.00
   -7    7   10      1.52      0.00
   -6    7   10     -3.73      0.00
   -5    7   10      2.22      0.00
   -4    7   10     -1.35      0.00
   -3    7   10      0.37      0.00
   -2    7   10      0.54      0.00
   -1    7   10     -0.33      0.00
    0    7   10      0.28      0.00
    1    7   10      0.61      0.00
    2    7   10      0.35      0.00
    4    7   10     -1.65      0.00
    5    7   10     -0.46      0.00
    6    7   10      0.21      0.00
    7    7   10     -0.44      0.00
  -17    8   10     -1.03      0.00
  -16    8   10      0.51      0.00
  -15    8   10     -0.61      0.00
  -14    8   10     -0.22      0.00
  -13    8   10      0.44      0.00
  -12    8   10      0.83      0.00
  -11    8   10     -1.50      0.00
  -10    8   10      1.08      0.00
   -9    8   10     -0.18      0.00
   -8    8   10     -0.59      0.00
   -7    8   10      2.07      0.00
   -6    8   10     -1.61      0.00
   -5    8   10     -0.15      0.00
   -4    8   10      0.99      0.00
   -3    8   10      0.37      0.00
   -2    8   10      0.88      0.00
   -1    8   10     -0.12      0.00
    0    8   10     -0.52      0.00
    1    8   10      0.42      0.00
    2    8   10      0.13      0.00
    3    8   10     -0.54      0.00
    4    8   10     -0.58      0.00
    5    8   10     -0.37      0.00
    6    8   10      0.72      0.00
  -17    9   10      0.29      0.00
  -16    9   10     -0.06      0.00
  -15    9   10      0.09      0.00
  -14    9   10     -0.54      0.00
  -13    9   10      0.11      0.00
  -12    9   10      0.37      0.00
  -11    9   10     -0.99      0.00
  -10    9   10      0.21      0.00
   -9    9   10      1.17      0.00
   -8    9   10      0.13      0.00
   -7    9   10     -1.00      0.00
   -6    9   10     -0.84      0.00
   -5    9   10     -0.72      0.00
   -4    9   10     -0.80      0.00
   -3    9   10      0.76      0.00
   -2    9   10      0.32      0.00
   -1    9   10     -0.23      0.00
    0    9   10     -0.07      0.00
    1    9   10      0.53      0.00
    2    9   10     -0.37      0.00
    3    9   10     -0.42      0.00
    4    9   10     -0.03      0.00
    5    9   10     -1.46      0.00
  -16   10   10     -1.02      0.00
  -15   10   10     -0.30      0.00
  -14   10   10     -0.54      0.00
  -13   10   10     -0.15      0.00
  -12   10   10      1.59      0.00
  -11   10   10     -1.21      0.00
  -10   10   10     -0.17      0.00
   -9   10   10      0.67      0.00
   -8   10   10      0.67      0.00
   -7   10   10     -0.75      0.00
   -6   10   10     -0.03      0.00
   -5   10   10     -0.20      0.00
   -4   10   10      0.25      0.00
   -3   10   10      0.47      0.00
   -2   10   10      0.34      0.00
   -1   10   10     -0.31      0.00
    0   10   10     -0.79      0.00
    1   10   10      1.28      0.00
    2   10   10     -0.75      0.00
    3   10   10     -0.27      0.00
    4   10   10      0.71      0.00
  -15   11   10      0.43      0.00
  -14   11   10      0.42      0.00
  -13   11   10     -0.15      0.00
  -12   11   10      0.75      0.00
  -11   11   10     -0.27      0.00
  -10   11   10      0.56      0.00
   -9   11   10      1.07      0.00
   -8   11   10      1.55      0.00
   -7   11   10     -1.11      0.00
   -6   11   10      0.41      0.00
   -5   11   10     -1.31      0.00
   -4   11   10      0.73      0.00
   -3   11   10     -0.54      0.00
   -2   11   10      0.54      0.00
   -1   11   10      0.01      0.00
    0   11   10      0.05      0.00
    1   11   10      0.30      0.00
    2   11   10     -0.11      0.00
  -14   12   10     -1.79      0.00
  -13   12   10      1.05      0.00
  -12   12   10      0.22      0.00
  -11   12   10     -0.48      0.00
  -10   12   10     -1.02      0.00
   -9   12   10      1.73      0.00
   -8   12   10     -0.89      0.00
   -7   12   10     -0.85      0.00
   -6   12   10     -0.06      0.00
   -5   12   10     -0.34      0.00
   -4   12   10      0.21      0.00
   -3   12   10      0.46      0.00
   -2   12   10     -0.46      0.00
   -1   12   10     -0.34      0.00
    0   12   10      0.03      0.00
  -12   13   10     -0.32      0.00
  -11   13   10     -0.28      0.00
  -10   13   10     -0.89      0.00
   -9   13   10      1.20      0.00
   -8   13   10      1.25      0.00
   -7   13   10     -0.52      0.00
   -6   13   10     -0.19      0.00
   -5   13   10      0.11      0.00
   -4   13   10      0.39      0.00
   -3   13   10     -0.52      0.00
   -2   13   10      0.17      0.00
   -8   14   10     -0.67      0.00
   -7   14   10     -0.59      0.00
   -2  -21   11      0.68      0.00
   -1  -21   11     -1.05      0.00
    1  -21   11     -1.24      0.00
    5  -21   11      1.04      0.00
    6  -21   11      0.35      0.00
    7  -21   11     -0.25      0.00
   -4  -20   11     -0.47      0.00
   -3  -20   11      0.21      0.00
   -2  -20   11      0.01      0.00
   -1  -20   11     -0.53      0.00
    0  -20   11      1.92      0.00
    1  -20   11     -1.38      0.00
    2  -20   11      0.52      0.00
    4  -20   11     -0.20      0.00
    6  -20   11     -0.39      0.00
    7  -20   11      0.47      0.00
    8  -20   11     -1.64      0.00
    9  -20   11      1.56      0.00
   -6  -19   11     -0.85      0.00
   -5  -19   11      1.31      0.00
   -4  -19   11     -1.59      0.00
   -3  -19   11      0.98      0.00
   -2  -19   11     -0.11      0.00
   -1  -19   11     -1.19      0.00
    0  -19   11     -0.02      0.00
    1  -19   11      0.50      0.00
    2  -19   11      0.85      0.00
    4  -19   11      0.09      0.00
    5  -19   11      0.43      0.00
    6  -19   11     -0.43      0.00
    7  -19   11      0.22      0.00
    8  -19   11     -0.28      0.00
    9  -19   11     -0.02      0.00
   11  -19   11     -0.18      0.00
   -8  -18   11      0.44      0.00
   -7  -18   11     -0.30      0.00
   -6  -18   11     -0.44      0.00
   -5  -18   11      0.00      0.00
   -4  -18   11     -0.33      0.00
   -3  -18   11     -0.09      0.00
   -2  -18   11      1.28      0.00
   -1  -18   11     -0.64      0.00
    0  -18   11      1.11      0.00
    1  -18   11     -1.56      0.00
    2  -18   11     -1.61      0.00
    3  -18   11      2.09      0.00
    4  -18   11     -0.89      0.00
    5  -18   11     -0.75      0.00
    6  -18   11      0.30      0.00
    7  -18   11     -0.80      0.00
    8  -18   11     -0.24      0.00
    9  -18   11      0.12      0.00
   10  -18   11     -0.59      0.00
   11  -18   11      0.28      0.00
   12  -18   11      1.00      0.00
   -9  -17   11     -0.31      0.00
   -8  -17   11     -0.44      0.00
   -7  -17   11      0.70      0.00
   -6  -17   11     -0.45      0.00
   -5  -17   11      0.90      0.00
   -4  -17   11     -0.78      0.00
   -3  -17   11      0.09      0.00
   -2  -17   11      0.79      0.00
   -1  -17   11     -2.54      0.00
    0  -17   11     -0.41      0.00
    1  -17   11      2.37      0.00
    2  -17   11     -3.60      0.00
    4  -17   11      1.04      0.00
    5  -17   11     -1.75      0.00
    6  -17   11      0.41      0.00
    7  -17   11     -0.01      0.00
    8  -17   11     -0.41      0.00
    9  -17   11      0.24      0.00
   10  -17   11     -0.36      0.00
   11  -17   11     -0.01      0.00
   12  -17   11      0.40      0.00
  -10  -16   11      1.41      0.00
   -9  -16   11     -0.52      0.00
   -8  -16   11      0.33      0.00
   -7  -16   11      0.55      0.00
   -6  -16   11      0.44      0.00
   -5  -16   11      0.67      0.00
   -4  -16   11      0.10      0.00
   -3  -16   11      0.75      0.00
   -1  -16   11     -0.30      0.00
    0  -16   11     -1.79      0.00
    1  -16   11      1.13      0.00
    2  -16   11      0.39      0.00
    3  -16   11      0.98      0.00
    4  -16   11      0.37      0.00
    5  -16   11      0.19      0.00
    6  -16   11      0.29      0.00
    7  -16   11      0.22      0.00
    8  -16   11      0.08      0.00
    9  -16   11     -0.38      0.00
   10  -16   11     -0.09      0.00
   11  -16   11      0.13      0.00
   12  -16   11      0.19      0.00
   13  -16   11      0.50      0.00
  -10  -15   11      1.67      0.00
   -9  -15   11     -1.11      0.00
   -8  -15   11     -0.63      0.00
   -7  -15   11      0.70      0.00
   -6  -15   11     -0.38      0.00
   -5  -15   11      0.51      0.00
   -4  -15   11     -0.86      0.00
   -3  -15   11     -0.47      0.00
   -2  -15   11      0.09      0.00
   -1  -15   11     -0.02      0.00
    0  -15   11     -2.34      0.00
    1  -15   11      0.99      0.00
    2  -15   11     -1.85      0.00
    3  -15   11      1.56      0.00
    4  -15   11      0.40      0.00
    5  -15   11     -0.41      0.00
    6  -15   11      0.29      0.00
    7  -15   11      0.37      0.00
    8  -15   11      0.48      0.00
    9  -15   11     -0.21      0.00
   10  -15   11     -0.29      0.00
   11  -15   11     -0.20      0.00
   12  -15   11     -0.27      0.00
   13  -15   11      0.39      0.00
  -11  -14   11     -1.12      0.00
  -10  -14   11      0.82      0.00
   -9  -14   11      0.12      0.00
   -8  -14   11     -0.93      0.00
   -7  -14   11     -0.29      0.00
   -6  -14   11      0.41      0.00
   -5  -14   11     -0.51      0.00
   -4  -14   11     -0.49      0.00
   -3  -14   11      0.83      0.00
   -2  -14   11      2.01      0.00
   -1  -14   11      0.54      0.00
    0  -14   11     -0.19      0.00
    1  -14   11      2.28      0.00
    2  -14   11      2.06      0.00
    3  -14   11     -0.83      0.00
    4  -14   11      1.05      0.00
    5  -14   11      0.51      0.00
    6  -14   11     -0.02      0.00
    7  -14   11      0.21      0.00
    8  -14   11      0.27      0.00
    9  -14   11     -0.35      0.00
   10  -14   11     -0.29      0.00
   11  -14   11     -0.29      0.00
   12  -14   11     -0.26      0.00
   13  -14   11      0.28      0.00
   14  -14   11      0.71      0.00
  -12  -13   11      0.16      0.00
  -11  -13   11     -0.28      0.00
  -10  -13   11     -0.05      0.00
   -9  -13   11     -0.51      0.00
   -8  -13   11     -0.39      0.00
   -7  -13   11     -0.19      0.00
   -6  -13   11     -0.48      0.00
   -5  -13   11      0.17      0.00
   -4  -13   11     -0.01      0.00
   -3  -13   11     -0.70      0.00
   -2  -13   11      0.79      0.00
   -1  -13   11      0.99      0.00
    0  -13   11     -4.31      0.00
    1  -13   11     -0.80      0.00
    2  -13   11      0.48      0.00
    3  -13   11     -0.26      0.00
    4  -13   11     -0.99      0.00
    5  -13   11      0.40      0.00
    6  -13   11     -0.15      0.00
    7  -13   11      0.17      0.00
    8  -13   11      0.66      0.00
    9  -13   11     -0.11      0.00
   10  -13   11      0.13      0.00
   11  -13   11     -1.14      0.00
   12  -13   11      0.05      0.00
   13  -13   11     -0.29      0.00
   14  -13   11     -0.49      0.00
  -14  -12   11     -0.03      0.00
  -13  -12   11      0.34      0.00
  -12  -12   11      0.57      0.00
  -10  -12   11      0.08      0.00
   -9  -12   11     -0.29      0.00
   -8  -12   11     -0.26      0.00
   -7  -12   11     -0.81      0.00
   -6  -12   11      0.50      0.00
   -5  -12   11     -2.15      0.00
   -4  -12   11     -0.21      0.00
   -3  -12   11     -0.50      0.00
   -2  -12   11      0.55      0.00
   -1  -12   11      0.95      0.00
    0  -12   11      1.21      0.00
    1  -12   11     -0.45      0.00
    2  -12   11      0.96      0.00
    3  -12   11      0.55      0.00
    4  -12   11     -1.00      0.00
    5  -12   11      0.63      0.00
    6  -12   11     -0.33      0.00
    7  -12   11      0.48      0.00
    8  -12   11     -0.12      0.00
    9  -12   11     -0.10      0.00
   10  -12   11      0.14      0.00
   11  -12   11     -0.49      0.00
   12  -12   11     -0.74      0.00
   13  -12   11      1.48      0.00
  -14  -11   11     -0.15      0.00
  -13  -11   11      0.16      0.00
  -12  -11   11      0.34      0.00
  -11  -11   11     -0.46      0.00
  -10  -11   11     -0.16      0.00
   -9  -11   11     -0.14      0.00
   -8  -11   11      0.01      0.00
   -7  -11   11     -0.67      0.00
   -6  -11   11      0.34      0.00
   -5  -11   11      0.22      0.00
   -4  -11   11      0.95      0.00
   -3  -11   11     -0.18      0.00
   -2  -11   11      0.75      0.00
   -1  -11   11     -0.88      0.00
    0  -11   11     -2.29      0.00
    1  -11   11     -0.54      0.00
    2  -11   11     -2.12      0.00
    3  -11   11      0.31      0.00
    4  -11   11     -1.24      0.00
    5  -11   11     -0.76      0.00
    6  -11   11      0.15      0.00
    7  -11   11      0.14      0.00
    8  -11   11      1.35      0.00
    9  -11   11     -0.49      0.00
   10  -11   11      0.56      0.00
   11  -11   11      0.15      0.00
   12  -11   11     -0.55      0.00
   13  -11   11     -0.57      0.00
  -15  -10   11      0.74      0.00
  -14  -10   11     -0.23      0.00
  -13  -10   11     -0.50      0.00
  -12  -10   11      0.50      0.00
  -11  -10   11     -1.13      0.00
  -10  -10   11     -0.18      0.00
   -9  -10   11      0.22      0.00
   -8  -10   11      1.08      0.00
   -7  -10   11     -0.56      0.00
   -6  -10   11      0.36      0.00
   -5  -10   11     -0.61      0.00
   -4  -10   11     -0.69      0.00
   -3  -10   11      0.49      0.00
   -2  -10   11     -0.24      0.00
   -1  -10   11      0.78      0.00
    0  -10   11     -0.48      0.00
    1  -10   11      1.13      0.00
    2  -10   11      0.25      0.00
    3  -10   11      0.50      0.00
    4  -10   11      0.48      0.00
    5  -10   11     -0.74      0.00
    6  -10   11      0.53      0.00
    7  -10   11      0.03      0.00
    8  -10   11      0.82      0.00
    9  -10   11     -0.11      0.00
   10  -10   11     -0.46      0.00
   11  -10   11     -0.17      0.00
   12  -10   11      0.39      0.00
   13  -10   11     -0.13      0.00
   14  -10   11      0.94      0.00
  -16   -9   11     -1.48      0.00
  -15   -9   11     -0.03      0.00
  -14   -9   11     -0.02      0.00
  -13   -9   11     -0.49      0.00
  -12   -9   11      0.56      0.00
  -11   -9   11      0.05      0.00
  -10   -9   11      0.06      0.00
   -9   -9   11     -0.06      0.00
   -8   -9   11      0.48      0.00
   -7   -9   11     -0.03      0.00
   -6   -9   11     -0.58      0.00
   -5   -9   11      0.43      0.00
   -4   -9   11      0.22      0.00
   -3   -9   11     -0.38      0.00
   -2   -9   11      0.98      0.00
   -1   -9   11      1.13      0.00
    0   -9   11      0.22      0.00
    1   -9   11     -0.27      0.00
    2   -9   11      0.41      0.00
    3   -9   11     -0.51      0.00
    4   -9   11      0.20      0.00
    5   -9   11     -1.21      0.00
    6   -9   11      0.34      0.00
    7   -9   11      0.18      0.00
    8   -9   11      0.44      0.00
    9   -9   11     -0.41      0.00
   10   -9   11     -0.64      0.00
   11   -9   11      0.54      0.00
   12   -9   11     -0.27      0.00
   13   -9   11      0.20      0.00
   14   -9   11      0.08      0.00
  -16   -8   11     -0.05      0.00
  -15   -8   11     -0.94      0.00
  -14   -8   11      0.72      0.00
  -13   -8   11      0.14      0.00
  -12   -8   11     -0.26      0.00
  -11   -8   11     -0.04      0.00
  -10   -8   11      0.01      0.00
   -9   -8   11      0.53      0.00
   -8   -8   11     -0.07      0.00
   -7   -8   11      0.25      0.00
   -6   -8   11     -0.55      0.00
   -5   -8   11     -0.46      0.00
   -4   -8   11      0.84      0.00
   -3   -8   11      0.40      0.00
   -2   -8   11     -0.52      0.00
   -1   -8   11      0.04      0.00
    0   -8   11      0.25      0.00
    1   -8   11     -0.36      0.00
    2   -8   11      0.32      0.00
    3   -8   11     -0.64      0.00
    4   -8   11      0.32      0.00
    5   -8   11     -0.73      0.00
    6   -8   11      0.04      0.00
    7   -8   11      0.17      0.00
    8   -8   11      0.17      0.00
    9   -8   11      0.19      0.00
   10   -8   11     -0.69      0.00
   11   -8   11     -0.26      0.00
   12   -8   11      0.52      0.00
   13   -8   11     -0.08      0.00
   14   -8   11      0.36      0.00
  -17   -7   11     -0.15      0.00
  -16   -7   11      0.47      0.00
  -15   -7   11     -1.29      0.00
  -14   -7   11      0.08      0.00
  -13   -7   11      0.23      0.00
  -12   -7   11     -0.30      0.00
  -11   -7   11     -0.04      0.00
   -9   -7   11      0.63      0.00
   -8   -7   11     -0.27      0.00
   -7   -7   11      0.11      0.00
   -6   -7   11     -0.29      0.00
   -5   -7   11     -1.82      0.00
   -4   -7   11     -0.03      0.00
   -3   -7   11     -1.00      0.00
   -2   -7   11      0.62      0.00
   -1   -7   11      1.31      0.00
    0   -7   11     -0.49      0.00
    1   -7   11      0.36      0.00
    2   -7   11     -0.13      0.00
    3   -7   11      0.27      0.00
    4   -7   11     -0.56      0.00
    5   -7   11     -0.06      0.00
    6   -7   11      0.50      0.00
    7   -7   11      0.44      0.00
    8   -7   11     -0.05      0.00
    9   -7   11     -0.67      0.00
   10   -7   11     -0.22      0.00
   11   -7   11      0.14      0.00
   12   -7   11      0.44      0.00
   13   -7   11      0.13      0.00
   14   -7   11     -0.05      0.00
  -17   -6   11     -0.52      0.00
  -16   -6   11      0.16      0.00
  -15   -6   11     -0.40      0.00
  -14   -6   11      0.01      0.00
  -13   -6   11      1.24      0.00
  -12   -6   11     -0.74      0.00
  -11   -6   11      0.48      0.00
  -10   -6   11     -0.24      0.00
   -9   -6   11      0.63      0.00
   -8   -6   11     -0.07      0.00
   -7   -6   11      0.14      0.00
   -6   -6   11     -0.41      0.00
   -5   -6   11      0.38      0.00
   -4   -6   11      0.44      0.00
   -3   -6   11      0.88      0.00
   -2   -6   11     -0.87      0.00
   -1   -6   11      1.64      0.00
    0   -6   11      0.09      0.00
    1   -6   11     -0.68      0.00
    2   -6   11     -0.84      0.00
    3   -6   11     -0.52      0.00
    4   -6   11      0.30      0.00
    5   -6   11     -0.72      0.00
    6   -6   11      0.19      0.00
    7   -6   11      0.21      0.00
    8   -6   11      0.39      0.00
    9   -6   11      0.23      0.00
   10   -6   11     -0.30      0.00
   11   -6   11     -0.41      0.00
   12   -6   11      1.03      0.00
   13   -6   11     -0.94      0.00
   14   -6   11      0.62      0.00
  -17   -5   11     -0.52      0.00
  -16   -5   11      0.72      0.00
  -15   -5   11     -0.11      0.00
  -14   -5   11      0.00      0.00
  -13   -5   11      0.66      0.00
  -12   -5   11      0.08      0.00
  -11   -5   11     -0.35      0.00
  -10   -5   11      0.76      0.00
   -9   -5   11      0.55      0.00
   -8   -5   11      0.04      0.00
   -7   -5   11      1.57      0.00
   -6   -5   11     -1.25      0.00
   -5   -5   11      0.65      0.00
   -4   -5   11      0.12      0.00
   -3   -5   11     -0.59      0.00
   -2   -5   11      0.47      0.00
   -1   -5   11      0.12      0.00
    0   -5   11      0.44      0.00
    1   -5   11      0.29      0.00
    2   -5   11      0.19      0.00
    3   -5   11     -0.66      0.00
    4   -5   11     -0.01      0.00
    5   -5   11      0.30      0.00
    6   -5   11      0.54      0.00
    7   -5   11     -0.09      0.00
    8   -5   11      0.12      0.00
    9   -5   11     -0.38      0.00
   10   -5   11      0.02      0.00
   11   -5   11     -0.81      0.00
   12   -5   11      0.97      0.00
   13   -5   11     -0.74      0.00
   14   -5   11      0.29      0.00
  -18   -4   11      0.25      0.00
  -17   -4   11     -1.11      0.00
  -16   -4   11      0.11      0.00
  -15   -4   11      0.86      0.00
  -14   -4   11      0.17      0.00
  -13   -4   11     -0.06      0.00
  -12   -4   11      0.84      0.00
  -11   -4   11     -1.04      0.00
  -10   -4   11      0.68      0.00
   -9   -4   11      0.59      0.00
   -8   -4   11     -0.63      0.00
   -7   -4   11      0.45      0.00
   -6   -4   11     -0.68      0.00
   -5   -4   11     -0.17      0.00
   -4   -4   11      0.80      0.00
   -3   -4   11     -0.74      0.00
   -2   -4   11      0.32      0.00
   -1   -4   11      1.57      0.00
    0   -4   11      1.09      0.00
    1   -4   11     -1.20      0.00
    2   -4   11      0.87      0.00
    3   -4   11     -0.14      0.00
    4   -4   11     -0.54      0.00
    5   -4   11     -0.47      0.00
    6   -4   11      0.52      0.00
    7   -4   11     -0.36      0.00
    8   -4   11      0.01      0.00
    9   -4   11     -0.07      0.00
   10   -4   11     -0.38      0.00
   11   -4   11     -0.60      0.00
   12   -4   11      0.74      0.00
   13   -4   11     -0.67      0.00
  -18   -3   11      1.35      0.00
  -17   -3   11     -0.23      0.00
  -16   -3   11     -0.22      0.00
  -15   -3   11      0.79      0.00
  -14   -3   11      0.38      0.00
  -13   -3   11      0.01      0.00
  -12   -3   11      0.43      0.00
  -11   -3   11     -0.21      0.00
  -10   -3   11     -0.30      0.00
   -9   -3   11      0.58      0.00
   -8   -3   11     -0.23      0.00
   -7   -3   11      0.29      0.00
   -6   -3   11     -0.31      0.00
   -5   -3   11      1.28      0.00
   -4   -3   11      0.38      0.00
   -3   -3   11     -0.67      0.00
   -2   -3   11     -0.31      0.00
   -1   -3   11     -0.45      0.00
    0   -3   11      1.71      0.00
    1   -3   11     -0.67      0.00
    2   -3   11     -0.72      0.00
    3   -3   11      0.28      0.00
    4   -3   11     -0.41      0.00
    5   -3   11     -0.26      0.00
    6   -3   11     -0.07      0.00
    7   -3   11      0.05      0.00
    8   -3   11     -0.28      0.00
    9   -3   11     -0.06      0.00
   10   -3   11      0.56      0.00
   11   -3   11     -0.60      0.00
   12   -3   11      1.03      0.00
   13   -3   11      0.16      0.00
  -18   -2   11      0.34      0.00
  -17   -2   11     -0.15      0.00
  -16   -2   11     -0.18      0.00
  -15   -2   11      0.58      0.00
  -14   -2   11     -0.30      0.00
  -13   -2   11      0.14      0.00
  -12   -2   11      0.26      0.00
  -11   -2   11     -0.15      0.00
  -10   -2   11     -0.11      0.00
   -9   -2   11     -0.02      0.00
   -8   -2   11     -0.70      0.00
   -7   -2   11     -0.84      0.00
   -6   -2   11     -0.90      0.00
   -5   -2   11     -0.06      0.00
   -4   -2   11     -0.45      0.00
   -3   -2   11     -0.65      0.00
   -2   -2   11     -0.05      0.00
   -1   -2   11     -0.08      0.00
    0   -2   11      0.51      0.00
    1   -2   11      0.29      0.00
    2   -2   11      0.46      0.00
    3   -2   11     -0.34      0.00
    4   -2   11     -0.14      0.00
    5   -2   11      0.00      0.00
    6   -2   11     -0.28      0.00
    7   -2   11      0.26      0.00
    8   -2   11     -0.22      0.00
    9   -2   11     -0.37      0.00
   10   -2   11      0.28      0.00
   11   -2   11      0.16      0.00
   12   -2   11     -0.09      0.00
   13   -2   11      0.51      0.00
  -18   -1   11      0.27      0.00
  -17   -1   11      0.21      0.00
  -16   -1   11     -0.60      0.00
  -15   -1   11      0.65      0.00
  -14   -1   11     -0.23      0.00
  -13   -1   11     -0.09      0.00
  -12   -1   11      0.09      0.00
  -11   -1   11     -0.04      0.00
  -10   -1   11     -0.41      0.00
   -9   -1   11     -0.07      0.00
   -8   -1   11      0.36      0.00
   -7   -1   11     -0.69      0.00
   -6   -1   11      0.57      0.00
   -5   -1   11      1.52      0.00
   -4   -1   11     -0.16      0.00
   -3   -1   11     -0.08      0.00
   -2   -1   11      0.82      0.00
   -1   -1   11      0.74      0.00
    0   -1   11      0.12      0.00
    1   -1   11     -0.28      0.00
    2   -1   11      0.37      0.00
    3   -1   11     -0.03      0.00
    4   -1   11     -0.03      0.00
    5   -1   11      0.00      0.00
    6   -1   11     -0.21      0.00
    7   -1   11     -0.12      0.00
    8   -1   11      0.26      0.00
    9   -1   11     -0.69      0.00
   10   -1   11      0.15      0.00
   11   -1   11      0.53      0.00
   12   -1   11      0.29      0.00
  -18    0   11     -0.26      0.00
  -17    0   11      0.62      0.00
  -16    0   11     -0.91      0.00
  -15    0   11     -0.22      0.00
  -14    0   11     -0.50      0.00
  -13    0   11      0.47      0.00
  -12    0   11     -0.19      0.00
  -11    0   11      0.66      0.00
  -10    0   11      0.07      0.00
   -9    0   11      0.07      0.00
   -8    0   11      0.15      0.00
   -7    0   11     -0.84      0.00
   -6    0   11     -0.90      0.00
   -5    0   11      0.06      0.00
   -4    0   11     -0.23      0.00
   -3    0   11     -0.34      0.00
   -2    0   11     -0.37      0.00
   -1    0   11      0.67      0.00
    0    0   11      0.00      0.00
    1    0   11     -0.25      0.00
    2    0   11     -0.03      0.00
    3    0   11     -0.47      0.00
    4    0   11      0.29      0.00
    5    0   11     -0.33      0.00
    6    0   11      0.34      0.00
    7    0   11     -0.19      0.00
    8    0   11      0.38      0.00
    9    0   11      0.39      0.00
   10    0   11     -0.27      0.00
   11    0   11      0.39      0.00
   12    0   11      0.20      0.00
  -18    1   11      0.00      0.00
  -17    1   11      0.05      0.00
  -16    1   11     -0.15      0.00
  -15    1   11     -0.15      0.00
  -14    1   11     -0.29      0.00
  -13    1   11     -0.28      0.00
  -12    1   11      0.78      0.00
  -11    1   11     -0.45      0.00
  -10    1   11      0.78      0.00
   -9    1   11     -0.49      0.00
   -8    1   11     -0.07      0.00
   -7    1   11     -0.52      0.00
   -6    1   11      0.25      0.00
   -5    1   11      0.28      0.00
   -4    1   11     -0.49      0.00
   -3    1   11      1.01      0.00
   -2    1   11      0.61      0.00
   -1    1   11      0.06      0.00
    0    1   11     -0.84      0.00
    1    1   11      0.41      0.00
    2    1   11     -0.12      0.00
    3    1   11     -0.36      0.00
    4    1   11      0.46      0.00
    5    1   11      0.11      0.00
    6    1   11     -0.15      0.00
    7    1   11      0.66      0.00
    8    1   11     -0.70      0.00
    9    1   11      0.24      0.00
   10    1   11      0.39      0.00
   11    1   11     -0.38      0.00
  -18    2   11      0.54      0.00
  -17    2   11      0.46      0.00
  -15    2   11     -0.13      0.00
  -14    2   11      0.19      0.00
  -13    2   11     -0.16      0.00
  -12    2   11      0.22      0.00
  -11    2   11     -0.04      0.00
  -10    2   11      0.46      0.00
   -9    2   11      1.05      0.00
   -8    2   11     -0.29      0.00
   -7    2   11     -0.46      0.00
   -6    2   11     -0.05      0.00
   -5    2   11     -0.58      0.00
   -4    2   11      0.28      0.00
   -3    2   11     -0.32      0.00
   -2    2   11      0.76      0.00
   -1    2   11      1.29      0.00
    0    2   11     -1.16      0.00
    1    2   11      0.09      0.00
    2    2   11      0.15      0.00
    3    2   11     -0.88      0.00
    4    2   11      0.51      0.00
    5    2   11     -0.19      0.00
    6    2   11     -0.28      0.00
    7    2   11      0.46      0.00
    8    2   11      0.21      0.00
    9    2   11     -0.52      0.00
   10    2   11      1.00      0.00
  -18    3   11     -0.37      0.00
  -17    3   11     -0.07      0.00
  -16    3   11     -1.08      0.00
  -15    3   11      0.08      0.00
  -14    3   11     -0.12      0.00
  -13    3   11      0.18      0.00
  -12    3   11      0.32      0.00
  -11    3   11      0.09      0.00
  -10    3   11     -0.51      0.00
   -9    3   11     -0.16      0.00
   -8    3   11     -0.55      0.00
   -7    3   11     -1.35      0.00
   -6    3   11      0.45      0.00
   -5    3   11     -0.28      0.00
   -4    3   11     -1.19      0.00
   -3    3   11      1.77      0.00
   -2    3   11     -2.03      0.00
   -1    3   11      0.97      0.00
    0    3   11     -0.96      0.00
    1    3   11     -0.01      0.00
    2    3   11      1.05      0.00
    3    3   11     -0.91      0.00
    4    3   11      1.26      0.00
    5    3   11     -0.10      0.00
    6    3   11     -0.24      0.00
    7    3   11     -0.23      0.00
    8    3   11      0.00      0.00
    9    3   11      0.07      0.00
   10    3   11      0.48      0.00
  -18    4   11     -0.21      0.00
  -17    4   11      1.04      0.00
  -16    4   11      0.26      0.00
  -15    4   11     -0.23      0.00
  -14    4   11      0.68      0.00
  -13    4   11      0.15      0.00
  -12    4   11     -0.30      0.00
  -11    4   11      0.19      0.00
  -10    4   11      0.54      0.00
   -9    4   11     -0.03      0.00
   -8    4   11      0.47      0.00
   -7    4   11     -0.40      0.00
   -6    4   11      0.09      0.00
   -5    4   11      0.15      0.00
   -4    4   11     -0.73      0.00
   -3    4   11      1.13      0.00
   -2    4   11      0.36      0.00
   -1    4   11      0.42      0.00
    0    4   11      0.38      0.00
    1    4   11     -0.38      0.00
    2    4   11      0.83      0.00
    3    4   11     -0.47      0.00
    4    4   11      0.53      0.00
    5    4   11      0.27      0.00
    6    4   11     -0.57      0.00
    8    4   11     -1.36      0.00
    9    4   11      0.17      0.00
  -18    5   11     -0.59      0.00
  -17    5   11     -1.58      0.00
  -16    5   11      0.11      0.00
  -15    5   11     -0.48      0.00
  -14    5   11      0.17      0.00
  -13    5   11      0.26      0.00
  -12    5   11     -0.42      0.00
  -11    5   11      0.40      0.00
  -10    5   11     -0.75      0.00
   -9    5   11     -0.11      0.00
   -8    5   11     -0.19      0.00
   -7    5   11     -0.44      0.00
   -6    5   11      0.60      0.00
   -5    5   11     -0.79      0.00
   -4    5   11     -0.48      0.00
   -3    5   11      0.29      0.00
   -2    5   11     -0.63      0.00
   -1    5   11     -0.23      0.00
    0    5   11      0.00      0.00
    1    5   11     -0.25      0.00
    2    5   11      0.42      0.00
    3    5   11     -0.14      0.00
    4    5   11      1.30      0.00
    5    5   11     -0.60      0.00
    6    5   11      0.17      0.00
    7    5   11     -0.73      0.00
    8    5   11     -0.34      0.00
  -18    6   11      1.11      0.00
  -17    6   11     -0.54      0.00
  -16    6   11      0.53      0.00
  -15    6   11     -0.37      0.00
  -14    6   11      0.81      0.00
  -13    6   11      0.20      0.00
  -12    6   11      0.19      0.00
  -11    6   11      0.16      0.00
  -10    6   11      0.70      0.00
   -9    6   11     -0.44      0.00
   -8    6   11      0.64      0.00
   -7    6   11      0.03      0.00
   -6    6   11      1.72      0.00
   -5    6   11     -0.73      0.00
   -4    6   11      0.68      0.00
   -3    6   11      0.14      0.00
   -2    6   11      0.76      0.00
   -1    6   11     -0.05      0.00
    0    6   11      0.57      0.00
    1    6   11     -0.71      0.00
    2    6   11      0.10      0.00
    3    6   11     -0.04      0.00
    4    6   11      0.91      0.00
    5    6   11      0.23      0.00
    6    6   11     -0.38      0.00
    7    6   11     -0.91      0.00
  -17    7   11      0.08      0.00
  -16    7   11     -0.07      0.00
  -15    7   11      0.60      0.00
  -14    7   11     -0.80      0.00
  -13    7   11      0.22      0.00
  -12    7   11     -0.45      0.00
  -11    7   11      0.77      0.00
  -10    7   11     -0.89      0.00
   -9    7   11     -0.13      0.00
   -8    7   11      0.53      0.00
   -7    7   11     -0.20      0.00
   -6    7   11      0.59      0.00
   -5    7   11      0.24      0.00
   -4    7   11     -0.38      0.00
   -3    7   11     -0.04      0.00
   -2    7   11      0.20      0.00
   -1    7   11     -0.08      0.00
    0    7   11      0.19      0.00
    1    7   11     -0.68      0.00
    2    7   11     -0.57      0.00
    3    7   11      0.48      0.00
    4    7   11      0.17      0.00
    5    7   11      0.54      0.00
    6    7   11     -0.82      0.00
  -17    8   11     -1.50      0.00
  -14    8   11     -0.33      0.00
  -13    8   11      0.50      0.00
  -12    8   11     -0.29      0.00
  -11    8   11     -0.33      0.00
  -10    8   11      0.70      0.00
   -9    8   11     -2.13      0.00
   -8    8   11      0.28      0.00
   -7    8   11      1.86      0.00
   -6    8   11     -0.19      0.00
   -5    8   11      0.68      0.00
   -4    8   11      0.25      0.00
   -3    8   11     -0.75      0.00
   -2    8   11     -0.09      0.00
   -1    8   11      0.36      0.00
    0    8   11      0.08      0.00
    1    8   11     -1.13      0.00
    2    8   11      0.47      0.00
    3    8   11      0.36      0.00
    4    8   11     -0.06      0.00
    5    8   11      1.89      0.00
  -16    9   11      0.02      0.00
  -14    9   11     -0.89      0.00
  -13    9   11      0.18      0.00
  -12    9   11      0.78      0.00
  -11    9   11     -1.05      0.00
  -10    9   11      0.84      0.00
   -9    9   11     -0.34      0.00
   -8    9   11     -1.38      0.00
   -7    9   11      2.28      0.00
   -6    9   11     -0.32      0.00
   -5    9   11      0.38      0.00
   -4    9   11     -0.72      0.00
   -3    9   11     -0.52      0.00
   -2    9   11     -0.32      0.00
   -1    9   11     -0.09      0.00
    0    9   11      1.28      0.00
    1    9   11     -2.02      0.00
    2    9   11      0.60      0.00
    3    9   11      0.43      0.00
    4    9   11     -0.84      0.00
  -15   10   11      0.16      0.00
  -14   10   11      0.43      0.00
  -13   10   11     -0.58      0.00
  -12   10   11      0.99      0.00
  -11   10   11     -0.14      0.00
  -10   10   11     -1.15      0.00
   -9   10   11      0.05      0.00
   -8   10   11     -1.43      0.00
   -7   10   11      2.13      0.00
   -6   10   11      0.00      0.00
   -5   10   11      1.45      0.00
   -4   10   11     -0.75      0.00
   -3   10   11      0.02      0.00
   -2   10   11     -0.46      0.00
   -1   10   11     -0.10      0.00
    0   10   11      0.12      0.00
    1   10   11     -0.57      0.00
    2   10   11      0.31      0.00
  -14   11   11      1.54      0.00
  -13   11   11     -0.85      0.00
  -12   11   11      0.37      0.00
  -11   11   11     -0.04      0.00
  -10   11   11      0.74      0.00
   -9   11   11     -1.07      0.00
   -8   11   11      0.59      0.00
   -7   11   11      2.00      0.00
   -6   11   11      0.34      0.00
   -5   11   11     -0.09      0.00
   -4   11   11     -0.29      0.00
   -3   11   11     -0.89      0.00
   -2   11   11      0.00      0.00
   -1   11   11     -0.40      0.00
    0   11   11      0.83      0.00
    1   11   11     -0.56      0.00
  -12   12   11      0.82      0.00
  -11   12   11     -0.48      0.00
  -10   12   11     -0.56      0.00
   -9   12   11     -1.23      0.00
   -8   12   11     -2.22      0.00
   -7   12   11      0.45      0.00
   -6   12   11      0.62      0.00
   -5   12   11     -0.90      0.00
   -4   12   11     -0.24      0.00
   -3   12   11     -0.08      0.00
   -2   12   11      0.09      0.00
   -9   13   11     -0.37      0.00
   -8   13   11      0.53      0.00
   -7   13   11      0.71      0.00
   -6   13   11      0.92      0.00
   -2  -21   12      0.30      0.00
   -1  -21   12      0.03      0.00
    0  -21   12     -1.34      0.00
    1  -21   12      2.04      0.00
    2  -21   12     -0.70      0.00
    5  -21   12      0.02      0.00
    6  -21   12      0.85      0.00
    7  -21   12     -0.79      0.00
   -4  -20   12      1.03      0.00
   -3  -20   12     -1.30      0.00
   -2  -20   12      0.38      0.00
   -1  -20   12      1.25      0.00
    0  -20   12     -0.90      0.00
    1  -20   12      0.42      0.00
    2  -20   12     -0.68      0.00
    3  -20   12      0.57      0.00
    4  -20   12      0.72      0.00
    5  -20   12     -0.19      0.00
    6  -20   12     -0.76      0.00
    7  -20   12      0.46      0.00
    8  -20   12     -0.35      0.00
    9  -20   12      0.36      0.00
   -6  -19   12      0.88      0.00
   -5  -19   12     -0.93      0.00
   -4  -19   12      0.04      0.00
   -3  -19   12     -0.07      0.00
   -2  -19   12     -1.52      0.00
   -1  -19   12      0.48      0.00
    0  -19   12     -0.64      0.00
    1  -19   12     -0.01      0.00
    2  -19   12      1.45      0.00
    4  -19   12      0.07      0.00
    5  -19   12      0.71      0.00
    6  -19   12     -0.14      0.00
    7  -19   12     -0.28      0.00
    8  -19   12      0.58      0.00
    9  -19   12     -0.37      0.00
   10  -19   12      0.77      0.00
   -8  -18   12      0.98      0.00
   -7  -18   12     -0.49      0.00
   -6  -18   12      0.56      0.00
   -5  -18   12     -0.11      0.00
   -4  -18   12      0.13      0.00
   -3  -18   12      1.31      0.00
   -2  -18   12      0.04      0.00
   -1  -18   12      0.98      0.00
    0  -18   12      0.14      0.00
    1  -18   12     -2.67      0.00
    2  -18   12      1.77      0.00
    3  -18   12      0.33      0.00
    4  -18   12     -0.26      0.00
    5  -18   12      0.61      0.00
    6  -18   12     -0.50      0.00
    7  -18   12     -0.14      0.00
    8  -18   12     -0.06      0.00
    9  -18   12      0.00      0.00
   10  -18   12      0.39      0.00
   11  -18   12     -0.16      0.00
   -9  -17   12      0.54      0.00
   -8  -17   12      0.56      0.00
   -7  -17   12      0.23      0.00
   -6  -17   12     -0.17      0.00
   -5  -17   12      0.47      0.00
   -4  -17   12     -0.12      0.00
   -3  -17   12     -0.81      0.00
   -2  -17   12     -0.95      0.00
   -1  -17   12     -0.04      0.00
    0  -17   12      0.23      0.00
    1  -17   12      0.36      0.00
    2  -17   12     -1.12      0.00
    3  -17   12     -3.11      0.00
    4  -17   12      1.02      0.00
    5  -17   12      0.20      0.00
    6  -17   12     -0.16      0.00
    7  -17   12     -0.44      0.00
    8  -17   12      0.44      0.00
    9  -17   12      0.69      0.00
   10  -17   12      0.30      0.00
   11  -17   12     -0.87      0.00
   12  -17   12      0.01      0.00
  -10  -16   12     -0.48      0.00
   -9  -16   12      1.27      0.00
   -8  -16   12      0.21      0.00
   -7  -16   12      0.17      0.00
   -6  -16   12      0.11      0.00
   -5  -16   12      0.08      0.00
   -4  -16   12      1.36      0.00
   -3  -16   12      0.58      0.00
   -2  -16   12     -0.10      0.00
   -1  -16   12      2.08      0.00
    0  -16   12     -0.05      0.00
    1  -16   12     -0.20      0.00
    2  -16   12      3.16      0.00
    3  -16   12     -2.00      0.00
    4  -16   12      0.97      0.00
    5  -16   12      0.81      0.00
    6  -16   12      0.53      0.00
    7  -16   12     -0.60      0.00
    8  -16   12     -0.29      0.00
    9  -16   12      0.70      0.00
   10  -16   12      0.71      0.00
   11  -16   12     -0.74      0.00
   12  -16   12      0.09      0.00
  -11  -15   12     -0.02      0.00
   -9  -15   12      0.66      0.00
   -8  -15   12      0.28      0.00
   -7  -15   12      0.04      0.00
   -6  -15   12     -0.84      0.00
   -5  -15   12      0.22      0.00
   -4  -15   12     -0.38      0.00
   -3  -15   12     -0.52      0.00
   -1  -15   12      1.62      0.00
    0  -15   12      1.02      0.00
    1  -15   12     -1.14      0.00
    2  -15   12     -1.89      0.00
    3  -15   12      0.21      0.00
    4  -15   12     -0.55      0.00
    5  -15   12      0.02      0.00
    6  -15   12      0.09      0.00
    7  -15   12     -0.23      0.00
    8  -15   12     -0.43      0.00
    9  -15   12      1.02      0.00
   10  -15   12      0.48      0.00
   11  -15   12     -0.61      0.00
   12  -15   12     -0.48      0.00
   13  -15   12     -0.17      0.00
  -12  -14   12      1.04      0.00
  -11  -14   12      0.03      0.00
  -10  -14   12     -0.39      0.00
   -9  -14   12      0.52      0.00
   -8  -14   12     -0.48      0.00
   -7  -14   12     -0.44      0.00
   -6  -14   12     -0.41      0.00
   -5  -14   12     -0.48      0.00
   -4  -14   12     -0.04      0.00
   -3  -14   12      0.50      0.00
   -2  -14   12     -0.43      0.00
   -1  -14   12      0.62      0.00
    0  -14   12      4.75      0.00
    1  -14   12      1.03      0.00
    2  -14   12     -0.90      0.00
    3  -14   12     -0.30      0.00
    5  -14   12     -0.90      0.00
    6  -14   12      0.59      0.00
    7  -14   12     -0.72      0.00
    8  -14   12     -0.72      0.00
    9  -14   12      0.19      0.00
   10  -14   12      0.28      0.00
   11  -14   12      0.55      0.00
   12  -14   12     -0.72      0.00
   13  -14   12     -0.01      0.00
  -11  -13   12      0.26      0.00
  -10  -13   12      0.14      0.00
   -9  -13   12      0.17      0.00
   -8  -13   12      0.17      0.00
   -7  -13   12      0.01      0.00
   -6  -13   12     -0.79      0.00
   -5  -13   12      1.45      0.00
   -4  -13   12     -0.32      0.00
   -3  -13   12      0.13      0.00
   -2  -13   12     -1.73      0.00
   -1  -13   12     -0.46      0.00
    0  -13   12     -0.67      0.00
    1  -13   12      0.55      0.00
    2  -13   12     -3.21      0.00
    3  -13   12     -0.30      0.00
    4  -13   12      0.40      0.00
    5  -13   12     -0.93      0.00
    6  -13   12     -0.10      0.00
    7  -13   12     -0.60      0.00
    8  -13   12      0.06      0.00
    9  -13   12      0.70      0.00
   10  -13   12      0.25      0.00
   11  -13   12      0.15      0.00
   12  -13   12      0.28      0.00
   13  -13   12     -1.70      0.00
  -14  -12   12     -0.49      0.00
  -12  -12   12     -0.35      0.00
  -11  -12   12     -0.40      0.00
  -10  -12   12     -0.25      0.00
   -9  -12   12      0.41      0.00
   -8  -12   12     -0.75      0.00
   -7  -12   12      0.39      0.00
   -6  -12   12     -0.98      0.00
   -5  -12   12      0.22      0.00
   -4  -12   12     -1.43      0.00
   -3  -12   12     -0.14      0.00
   -2  -12   12     -0.78      0.00
   -1  -12   12      0.54      0.00
    0  -12   12      2.46      0.00
    1  -12   12     -0.19      0.00
    2  -12   12      0.60      0.00
    3  -12   12     -1.04      0.00
    4  -12   12      1.66      0.00
    5  -12   12     -0.73      0.00
    6  -12   12      0.03      0.00
    7  -12   12     -0.31      0.00
    8  -12   12     -1.07      0.00
    9  -12   12      0.87      0.00
   10  -12   12     -0.06      0.00
   11  -12   12      0.35      0.00
   12  -12   12      0.43      0.00
   13  -12   12      0.94      0.00
  -14  -11   12      0.00      0.00
  -13  -11   12     -0.30      0.00
  -12  -11   12     -0.10      0.00
  -11  -11   12      0.24      0.00
  -10  -11   12      0.01      0.00
   -9  -11   12      0.45      0.00
   -8  -11   12     -0.52      0.00
   -7  -11   12      0.45      0.00
   -6  -11   12      0.22      0.00
   -5  -11   12      1.21      0.00
   -4  -11   12      1.51      0.00
   -3  -11   12     -1.32      0.00
   -2  -11   12      0.46      0.00
    0  -11   12      1.27      0.00
    1  -11   12     -1.14      0.00
    2  -11   12     -0.98      0.00
    3  -11   12     -0.46      0.00
    4  -11   12      0.09      0.00
    5  -11   12      0.05      0.00
    6  -11   12     -0.87      0.00
    7  -11   12      0.24      0.00
    8  -11   12      0.00      0.00
    9  -11   12      0.32      0.00
   10  -11   12      1.25      0.00
   11  -11   12      0.00      0.00
   12  -11   12     -0.50      0.00
   13  -11   12      0.62      0.00
   14  -11   12     -0.59      0.00
  -15  -10   12     -0.11      0.00
  -14  -10   12     -0.07      0.00
  -13  -10   12     -0.23      0.00
  -12  -10   12     -0.33      0.00
  -11  -10   12      0.04      0.00
  -10  -10   12      0.11      0.00
   -9  -10   12      0.73      0.00
   -8  -10   12      0.28      0.00
   -7  -10   12     -0.39      0.00
   -6  -10   12      0.59      0.00
   -5  -10   12     -0.21      0.00
   -4  -10   12      0.28      0.00
   -3  -10   12     -0.54      0.00
   -2  -10   12      0.59      0.00
   -1  -10   12     -0.48      0.00
    0  -10   12     -0.16      0.00
    1  -10   12      1.81      0.00
    2  -10   12     -0.24      0.00
    3  -10   12      0.68      0.00
    4  -10   12      0.47      0.00
    5  -10   12      0.54      0.00
    6  -10   12     -0.77      0.00
    7  -10   12      0.01      0.00
    8  -10   12     -0.45      0.00
    9  -10   12      0.22      0.00
   10  -10   12      0.03      0.00
   11  -10   12      0.25      0.00
   12  -10   12     -0.24      0.00
   13  -10   12      0.58      0.00
   14  -10   12     -0.09      0.00
  -16   -9   12     -0.60      0.00
  -15   -9   12      0.57      0.00
  -14   -9   12     -0.76      0.00
  -13   -9   12     -0.19      0.00
  -12   -9   12      0.18      0.00
  -11   -9   12      0.32      0.00
  -10   -9   12     -0.11      0.00
   -9   -9   12     -0.32      0.00
   -8   -9   12      0.35      0.00
   -7   -9   12     -0.06      0.00
   -6   -9   12      0.02      0.00
   -5   -9   12      0.36      0.00
   -4   -9   12      0.63      0.00
   -3   -9   12     -1.69      0.00
   -2   -9   12      1.00      0.00
   -1   -9   12      1.10      0.00
    0   -9   12      0.01      0.00
    1   -9   12      0.47      0.00
    2   -9   12     -0.34      0.00
    3   -9   12      0.13      0.00
    4   -9   12     -0.24      0.00
    5   -9   12      0.82      0.00
    6   -9   12     -1.18      0.00
    7   -9   12      0.01      0.00
    8   -9   12      0.08      0.00
    9   -9   12     -0.53      0.00
   11   -9   12     -0.19      0.00
   12   -9   12     -0.17      0.00
   13   -9   12      0.11      0.00
   14   -9   12     -0.34      0.00
  -16   -8   12     -0.55      0.00
  -15   -8   12      0.44      0.00
  -14   -8   12      0.29      0.00
  -13   -8   12     -0.78      0.00
  -12   -8   12      0.37      0.00
  -11   -8   12      0.43      0.00
  -10   -8   12      0.46      0.00
   -9   -8   12     -0.52      0.00
   -8   -8   12      0.41      0.00
   -7   -8   12     -0.81      0.00
   -6   -8   12      0.22      0.00
   -5   -8   12      0.25      0.00
   -4   -8   12      0.81      0.00
   -3   -8   12     -0.14      0.00
   -2   -8   12     -0.97      0.00
   -1   -8   12     -0.74      0.00
    0   -8   12     -0.20      0.00
    1   -8   12     -0.12      0.00
    2   -8   12     -0.37      0.00
    3   -8   12     -0.37      0.00
    4   -8   12      0.37      0.00
    5   -8   12      0.68      0.00
    6   -8   12     -0.66      0.00
    7   -8   12     -0.58      0.00
    8   -8   12      0.89      0.00
    9   -8   12      0.28      0.00
   10   -8   12      0.39      0.00
   11   -8   12     -0.08      0.00
   12   -8   12     -0.48      0.00
   13   -8   12      0.10      0.00
   14   -8   12      0.14      0.00
  -17   -7   12      0.69      0.00
  -16   -7   12      0.00      0.00
  -15   -7   12      0.13      0.00
  -14   -7   12      0.67      0.00
  -13   -7   12     -1.07      0.00
  -12   -7   12      0.60      0.00
  -11   -7   12     -0.20      0.00
  -10   -7   12      0.01      0.00
   -9   -7   12     -0.82      0.00
   -8   -7   12      0.29      0.00
   -7   -7   12      0.03      0.00
   -6   -7   12      0.12      0.00
   -5   -7   12     -0.39      0.00
   -4   -7   12      0.18      0.00
   -3   -7   12     -0.99      0.00
   -2   -7   12     -0.13      0.00
   -1   -7   12     -0.16      0.00
    0   -7   12      0.21      0.00
    1   -7   12      0.05      0.00
    2   -7   12      0.66      0.00
    3   -7   12      0.15      0.00
    4   -7   12     -0.19      0.00
    5   -7   12      1.09      0.00
    6   -7   12     -0.17      0.00
    7   -7   12     -0.37      0.00
    8   -7   12      0.30      0.00
    9   -7   12      0.21      0.00
   10   -7   12      0.37      0.00
   11   -7   12      0.54      0.00
   12   -7   12     -1.01      0.00
   13   -7   12      0.44      0.00
  -17   -6   12      0.56      0.00
  -16   -6   12     -0.31      0.00
  -15   -6   12      0.06      0.00
  -14   -6   12      0.53      0.00
  -13   -6   12     -0.21      0.00
  -12   -6   12     -0.02      0.00
  -11   -6   12      1.14      0.00
  -10   -6   12     -0.11      0.00
   -9   -6   12     -0.17      0.00
   -8   -6   12      0.46      0.00
   -7   -6   12     -1.03      0.00
   -6   -6   12      1.46      0.00
   -5   -6   12      0.12      0.00
   -4   -6   12      0.93      0.00
   -3   -6   12      0.68      0.00
   -2   -6   12     -0.83      0.00
   -1   -6   12     -0.27      0.00
    0   -6   12      0.42      0.00
    1   -6   12     -0.41      0.00
    2   -6   12     -0.47      0.00
    3   -6   12      0.50      0.00
    4   -6   12      0.13      0.00
    5   -6   12      0.48      0.00
    6   -6   12     -0.46      0.00
    7   -6   12     -0.23      0.00
    8   -6   12      0.63      0.00
    9   -6   12      0.42      0.00
   10   -6   12     -0.02      0.00
   11   -6   12     -0.54      0.00
   12   -6   12     -0.74      0.00
   13   -6   12     -0.14      0.00
  -17   -5   12      0.88      0.00
  -16   -5   12      0.77      0.00
  -15   -5   12     -0.78      0.00
  -14   -5   12      0.69      0.00
  -13   -5   12      0.31      0.00
  -12   -5   12     -0.41      0.00
  -11   -5   12      0.83      0.00
  -10   -5   12     -0.32      0.00
   -9   -5   12     -0.71      0.00
   -8   -5   12      0.37      0.00
   -7   -5   12      0.31      0.00
   -6   -5   12      0.48      0.00
   -5   -5   12      0.44      0.00
   -4   -5   12      1.10      0.00
   -3   -5   12     -0.47      0.00
   -2   -5   12     -0.41      0.00
   -1   -5   12     -1.46      0.00
    0   -5   12     -0.32      0.00
    1   -5   12      1.61      0.00
    2   -5   12     -0.23      0.00
    3   -5   12      0.08      0.00
    4   -5   12      0.03      0.00
    5   -5   12      0.12      0.00
    6   -5   12     -0.18      0.00
    7   -5   12     -0.64      0.00
    8   -5   12      0.10      0.00
    9   -5   12     -0.36      0.00
   10   -5   12      0.74      0.00
   11   -5   12     -0.68      0.00
   12   -5   12     -0.70      0.00
   13   -5   12      0.45      0.00
  -18   -4   12     -1.14      0.00
  -17   -4   12     -0.10      0.00
  -16   -4   12      1.08      0.00
  -15   -4   12     -0.72      0.00
  -14   -4   12     -0.61      0.00
  -13   -4   12      0.74      0.00
  -12   -4   12     -0.65      0.00
  -11   -4   12      0.24      0.00
  -10   -4   12      0.26      0.00
   -9   -4   12     -0.32      0.00
   -8   -4   12     -0.67      0.00
   -7   -4   12     -0.58      0.00
   -6   -4   12      0.96      0.00
   -5   -4   12     -2.06      0.00
   -4   -4   12      1.47      0.00
   -3   -4   12     -0.25      0.00
   -2   -4   12     -0.32      0.00
   -1   -4   12      0.05      0.00
    0   -4   12     -1.20      0.00
    1   -4   12      0.64      0.00
    2   -4   12      0.30      0.00
    3   -4   12     -0.54      0.00
    4   -4   12      0.61      0.00
    5   -4   12     -0.57      0.00
    6   -4   12      0.01      0.00
    7   -4   12     -0.35      0.00
    8   -4   12      0.53      0.00
    9   -4   12     -0.48      0.00
   10   -4   12     -0.18      0.00
   11   -4   12     -0.09      0.00
   12   -4   12     -0.78      0.00
   13   -4   12      0.20      0.00
  -18   -3   12      0.17      0.00
  -17   -3   12      0.31      0.00
  -16   -3   12      0.44      0.00
  -15   -3   12     -0.13      0.00
  -14   -3   12     -0.45      0.00
  -13   -3   12      0.07      0.00
  -12   -3   12      0.14      0.00
  -11   -3   12     -0.49      0.00
  -10   -3   12     -0.70      0.00
   -9   -3   12     -0.20      0.00
   -8   -3   12     -0.41      0.00
   -7   -3   12     -0.10      0.00
   -6   -3   12      0.91      0.00
   -5   -3   12     -0.60      0.00
   -4   -3   12      1.07      0.00
   -3   -3   12      0.21      0.00
   -2   -3   12     -1.24      0.00
   -1   -3   12     -0.78      0.00
    0   -3   12     -0.35      0.00
    1   -3   12      0.64      0.00
    2   -3   12      0.14      0.00
    3   -3   12     -0.39      0.00
    4   -3   12      0.30      0.00
    5   -3   12     -0.14      0.00
    6   -3   12      0.05      0.00
    7   -3   12     -0.48      0.00
    8   -3   12      0.44      0.00
    9   -3   12      0.24      0.00
   10   -3   12      0.09      0.00
   11   -3   12     -0.03      0.00
   12   -3   12      0.47      0.00
  -18   -2   12     -0.15      0.00
  -17   -2   12     -0.09      0.00
  -16   -2   12      0.24      0.00
  -15   -2   12     -0.74      0.00
  -14   -2   12     -0.32      0.00
  -13   -2   12     -0.32      0.00
  -12   -2   12     -0.14      0.00
  -11   -2   12     -0.21      0.00
  -10   -2   12     -0.01      0.00
   -9   -2   12     -0.19      0.00
   -8   -2   12     -0.55      0.00
   -7   -2   12     -0.53      0.00
   -6   -2   12      0.17      0.00
   -5   -2   12     -2.00      0.00
   -4   -2   12      0.13      0.00
   -3   -2   12      0.25      0.00
   -2   -2   12     -0.65      0.00
   -1   -2   12     -1.02      0.00
    0   -2   12      0.17      0.00
    1   -2   12      0.31      0.00
    2   -2   12      0.24      0.00
    3   -2   12     -0.12      0.00
    4   -2   12     -0.26      0.00
    5   -2   12      0.15      0.00
    6   -2   12      0.14      0.00
    7   -2   12     -0.03      0.00
    8   -2   12      0.18      0.00
    9   -2   12      0.62      0.00
   10   -2   12     -0.18      0.00
   11   -2   12     -0.35      0.00
   12   -2   12     -0.03      0.00
  -18   -1   12      0.29      0.00
  -17   -1   12     -0.49      0.00
  -16   -1   12      0.28      0.00
  -15   -1   12      0.03      0.00
  -14   -1   12     -0.58      0.00
  -13   -1   12     -0.48      0.00
  -12   -1   12      0.06      0.00
  -11   -1   12     -1.01      0.00
  -10   -1   12      0.35      0.00
   -9   -1   12      0.34      0.00
   -8   -1   12      0.24      0.00
   -7   -1   12     -0.18      0.00
   -6   -1   12      1.04      0.00
   -5   -1   12     -0.29      0.00
   -4   -1   12      0.42      0.00
   -3   -1   12      0.40      0.00
   -2   -1   12      0.39      0.00
   -1   -1   12     -1.48      0.00
    0   -1   12      0.56      0.00
    1   -1   12      0.09      0.00
    2   -1   12      0.01      0.00
    3   -1   12      0.40      0.00
    4   -1   12     -0.47      0.00
    5   -1   12      0.36      0.00
    6   -1   12      0.16      0.00
    7   -1   12     -0.09      0.00
    8   -1   12      0.13      0.00
    9   -1   12      0.04      0.00
   10   -1   12      0.00      0.00
   11   -1   12     -0.61      0.00
  -18    0   12      0.17      0.00
  -17    0   12     -0.38      0.00
  -16    0   12     -0.51      0.00
  -15    0   12      0.40      0.00
  -14    0   12     -0.38      0.00
  -13    0   12     -0.11      0.00
  -12    0   12     -0.23      0.00
  -11    0   12      0.00      0.00
  -10    0   12     -0.23      0.00
   -9    0   12      1.17      0.00
   -8    0   12      0.55      0.00
   -7    0   12     -0.50      0.00
   -6    0   12      0.24      0.00
   -5    0   12     -0.64      0.00
   -4    0   12     -0.03      0.00
   -3    0   12     -0.39      0.00
   -2    0   12     -0.04      0.00
   -1    0   12     -0.70      0.00
    0    0   12      0.48      0.00
    1    0   12     -0.06      0.00
    2    0   12      0.02      0.00
    3    0   12      0.29      0.00
    4    0   12     -0.63      0.00
    5    0   12     -0.21      0.00
    6    0   12      0.53      0.00
    7    0   12     -0.60      0.00
    8    0   12      0.92      0.00
    9    0   12      0.72      0.00
   10    0   12     -0.08      0.00
   11    0   12     -0.19      0.00
  -18    1   12      0.08      0.00
  -17    1   12     -0.34      0.00
  -16    1   12     -0.31      0.00
  -15    1   12      0.54      0.00
  -14    1   12     -0.38      0.00
  -13    1   12     -0.32      0.00
  -12    1   12     -0.02      0.00
  -11    1   12     -0.34      0.00
  -10    1   12      0.47      0.00
   -9    1   12     -0.39      0.00
   -8    1   12      1.01      0.00
   -7    1   12     -0.53      0.00
   -6    1   12      0.32      0.00
   -5    1   12      0.47      0.00
   -4    1   12     -0.19      0.00
   -3    1   12      0.62      0.00
   -2    1   12     -0.74      0.00
   -1    1   12     -1.21      0.00
    0    1   12      0.42      0.00
    1    1   12     -0.22      0.00
    2    1   12     -0.02      0.00
    3    1   12      0.40      0.00
    4    1   12     -0.14      0.00
    5    1   12     -0.12      0.00
    6    1   12      0.66      0.00
    7    1   12     -0.21      0.00
    8    1   12     -0.24      0.00
    9    1   12      0.62      0.00
   10    1   12     -0.60      0.00
  -18    2   12      0.48      0.00
  -17    2   12     -0.05      0.00
  -16    2   12      0.66      0.00
  -15    2   12      0.20      0.00
  -14    2   12      0.63      0.00
  -13    2   12     -0.40      0.00
  -12    2   12      0.23      0.00
  -11    2   12     -0.91      0.00
  -10    2   12      0.86      0.00
   -9    2   12      0.12      0.00
   -8    2   12      0.81      0.00
   -7    2   12      0.08      0.00
   -6    2   12      0.33      0.00
   -5    2   12     -0.69      0.00
   -4    2   12      0.61      0.00
   -3    2   12     -0.69      0.00
   -2    2   12      1.33      0.00
   -1    2   12     -1.17      0.00
    0    2   12      0.95      0.00
    1    2   12      0.27      0.00
    2    2   12      0.37      0.00
    3    2   12      0.32      0.00
    4    2   12     -0.35      0.00
    5    2   12     -0.24      0.00
    6    2   12      0.10      0.00
    7    2   12     -0.04      0.00
    8    2   12      0.19      0.00
    9    2   12      0.07      0.00
   10    2   12     -0.54      0.00
  -18    3   12      0.40      0.00
  -17    3   12     -1.16      0.00
  -16    3   12     -0.56      0.00
  -15    3   12      0.21      0.00
  -14    3   12     -0.30      0.00
  -13    3   12     -0.39      0.00
  -12    3   12      0.43      0.00
  -11    3   12     -0.63      0.00
  -10    3   12     -0.60      0.00
   -9    3   12     -0.18      0.00
   -8    3   12      0.19      0.00
   -7    3   12     -0.57      0.00
   -6    3   12      0.62      0.00
   -5    3   12     -0.09      0.00
   -4    3   12     -0.85      0.00
   -3    3   12     -0.18      0.00
   -2    3   12     -0.34      0.00
   -1    3   12     -0.55      0.00
    0    3   12     -0.12      0.00
    1    3   12      0.12      0.00
    2    3   12     -0.01      0.00
    3    3   12      0.44      0.00
    4    3   12     -0.13      0.00
    5    3   12      0.20      0.00
    6    3   12      0.33      0.00
    7    3   12     -0.18      0.00
    8    3   12      0.04      0.00
    9    3   12      0.29      0.00
  -18    4   12      0.28      0.00
  -17    4   12      1.64      0.00
  -16    4   12     -0.54      0.00
  -15    4   12      0.62      0.00
  -14    4   12      0.14      0.00
  -13    4   12     -0.21      0.00
  -12    4   12      0.58      0.00
  -11    4   12     -0.36      0.00
  -10    4   12      0.57      0.00
   -9    4   12     -0.45      0.00
   -8    4   12      0.94      0.00
   -7    4   12     -0.03      0.00
   -6    4   12     -0.46      0.00
   -5    4   12      0.52      0.00
   -4    4   12     -0.54      0.00
   -3    4   12     -0.03      0.00
   -2    4   12      0.78      0.00
   -1    4   12     -0.03      0.00
    0    4   12      0.40      0.00
    1    4   12      0.58      0.00
    2    4   12      0.01      0.00
    3    4   12     -0.11      0.00
    4    4   12     -0.74      0.00
    5    4   12      0.29      0.00
    6    4   12     -0.48      0.00
    7    4   12      1.13      0.00
    8    4   12     -1.05      0.00
  -17    5   12      0.29      0.00
  -16    5   12     -0.35      0.00
  -15    5   12     -0.13      0.00
  -14    5   12     -0.12      0.00
  -13    5   12     -1.14      0.00
  -12    5   12      0.55      0.00
  -11    5   12     -0.07      0.00
  -10    5   12     -0.50      0.00
   -9    5   12     -0.14      0.00
   -8    5   12      0.45      0.00
   -7    5   12     -0.06      0.00
   -6    5   12      0.21      0.00
   -5    5   12      0.65      0.00
   -4    5   12     -1.34      0.00
   -3    5   12      0.59      0.00
   -2    5   12      0.12      0.00
   -1    5   12      0.34      0.00
    0    5   12     -0.65      0.00
    1    5   12      0.07      0.00
    2    5   12      0.05      0.00
    3    5   12     -0.50      0.00
    4    5   12     -0.35      0.00
    5    5   12      0.28      0.00
    6    5   12     -0.37      0.00
    7    5   12      0.94      0.00
  -17    6   12      0.80      0.00
  -16    6   12     -0.29      0.00
  -15    6   12     -0.57      0.00
  -14    6   12      0.90      0.00
  -13    6   12     -0.41      0.00
  -12    6   12      0.01      0.00
  -11    6   12      0.52      0.00
  -10    6   12      0.81      0.00
   -9    6   12     -0.61      0.00
   -8    6   12      0.36      0.00
   -7    6   12     -0.46      0.00
   -6    6   12      0.22      0.00
   -5    6   12      1.04      0.00
   -4    6   12     -0.61      0.00
   -3    6   12      0.34      0.00
   -2    6   12      0.36      0.00
   -1    6   12      0.59      0.00
    0    6   12      0.21      0.00
    1    6   12      0.19      0.00
    2    6   12      0.62      0.00
    3    6   12     -1.24      0.00
    4    6   12     -0.26      0.00
    5    6   12     -0.33      0.00
    6    6   12      0.56      0.00
  -17    7   12      1.87      0.00
  -16    7   12      0.37      0.00
  -15    7   12     -1.12      0.00
  -14    7   12      0.72      0.00
  -13    7   12     -1.30      0.00
  -12    7   12      0.20      0.00
  -11    7   12      1.14      0.00
  -10    7   12     -0.98      0.00
   -9    7   12      0.48      0.00
   -8    7   12     -0.29      0.00
   -7    7   12     -1.16      0.00
   -6    7   12      0.35      0.00
   -5    7   12      1.02      0.00
   -4    7   12     -0.96      0.00
   -3    7   12      0.52      0.00
   -2    7   12      0.61      0.00
   -1    7   12     -0.72      0.00
    0    7   12     -0.02      0.00
    1    7   12      0.21      0.00
    2    7   12     -0.37      0.00
    3    7   12     -0.83      0.00
    4    7   12     -0.01      0.00
  -16    8   12      0.97      0.00
  -14    8   12      1.53      0.00
  -13    8   12      0.00      0.00
  -12    8   12     -2.36      0.00
  -11    8   12      2.87      0.00
  -10    8   12     -0.31      0.00
   -9    8   12     -1.09      0.00
   -8    8   12      0.22      0.00
   -7    8   12     -1.37      0.00
   -6    8   12     -0.13      0.00
   -5    8   12      0.54      0.00
   -4    8   12      0.47      0.00
   -3    8   12     -0.85      0.00
   -2    8   12      0.92      0.00
    0    8   12     -0.91      0.00
    1    8   12      1.87      0.00
    2    8   12     -0.44      0.00
    3    8   12     -0.58      0.00
    4    8   12      0.38      0.00
  -14    9   12     -0.82      0.00
  -13    9   12      1.97      0.00
  -12    9   12     -1.51      0.00
  -11    9   12      1.07      0.00
  -10    9   12      1.85      0.00
   -9    9   12     -0.97      0.00
   -8    9   12      0.38      0.00
   -7    9   12     -1.11      0.00
   -6    9   12      0.10      0.00
   -5    9   12     -0.62      0.00
   -4    9   12      0.82      0.00
   -3    9   12     -0.91      0.00
   -2    9   12      0.85      0.00
   -1    9   12     -0.61      0.00
    0    9   12     -0.34      0.00
    1    9   12      0.95      0.00
    2    9   12     -0.45      0.00
  -14   10   12     -0.78      0.00
  -13   10   12      0.62      0.00
  -12   10   12     -0.02      0.00
  -11   10   12      0.78      0.00
  -10   10   12      1.22      0.00
   -9   10   12     -0.84      0.00
   -8   10   12     -0.82      0.00
   -7   10   12     -1.13      0.00
   -6   10   12     -0.84      0.00
   -5   10   12      0.50      0.00
   -4   10   12      0.78      0.00
   -3   10   12     -0.02      0.00
   -2   10   12      0.02      0.00
   -1   10   12      0.46      0.00
    0   10   12     -1.83      0.00
    1   10   12      1.46      0.00
  -12   11   12     -0.77      0.00
  -11   11   12      0.14      0.00
  -10   11   12      1.90      0.00
   -9   11   12      0.35      0.00
   -8   11   12      0.53      0.00
   -7   11   12      0.10      0.00
   -6   11   12     -1.24      0.00
   -5   11   12     -0.10      0.00
   -4   11   12      0.46      0.00
   -3   11   12     -0.07      0.00
   -2   11   12     -0.74      0.00
   -9   12   12     -0.40      0.00
   -8   12   12     -1.73      0.00
   -7   12   12     -1.49      0.00
   -6   12   12     -0.71      0.00
   -5   12   12     -0.56      0.00
   -1  -21   13     -1.00      0.00
    0  -21   13      1.44      0.00
    1  -21   13     -0.64      0.00
    2  -21   13      0.57      0.00
    3  -21   13     -0.13      0.00
    4  -21   13     -0.87      0.00
   -4  -20   13     -0.26      0.00
   -3  -20   13     -0.10      0.00
   -2  -20   13      1.44      0.00
   -1  -20   13     -0.56      0.00
    0  -20   13      0.05      0.00
    1  -20   13      0.17      0.00
    2  -20   13     -1.07      0.00
    3  -20   13      1.46      0.00
    4  -20   13     -0.54      0.00
    5  -20   13     -0.53      0.00
    6  -20   13     -0.48      0.00
    7  -20   13      0.41      0.00
    8  -20   13     -0.49      0.00
   -6  -19   13      0.38      0.00
   -5  -19   13     -0.20      0.00
   -4  -19   13      0.40      0.00
   -3  -19   13     -1.23      0.00
   -2  -19   13     -0.05      0.00
   -1  -19   13      0.09      0.00
    0  -19   13     -0.48      0.00
    1  -19   13      1.01      0.00
    2  -19   13     -1.61      0.00
    3  -19   13     -1.25      0.00
    4  -19   13     -1.76      0.00
    5  -19   13      0.46      0.00
    6  -19   13      0.64      0.00
    7  -19   13     -0.76      0.00
    8  -19   13      0.09      0.00
    9  -19   13      0.28      0.00
   -8  -18   13      0.46      0.00
   -7  -18   13     -0.05      0.00
   -6  -18   13      0.46      0.00
   -5  -18   13      0.93      0.00
   -4  -18   13      0.06      0.00
   -3  -18   13      1.51      0.00
   -2  -18   13      0.55      0.00
   -1  -18   13      0.00      0.00
    0  -18   13      0.54      0.00
    1  -18   13     -1.00      0.00
    2  -18   13      0.86      0.00
    3  -18   13      3.91      0.00
    4  -18   13     -1.86      0.00
    5  -18   13     -0.63      0.00
    6  -18   13      0.68      0.00
    7  -18   13      0.41      0.00
    8  -18   13     -1.14      0.00
    9  -18   13     -0.08      0.00
   10  -18   13     -0.21      0.00
   -9  -17   13     -0.87      0.00
   -8  -17   13      0.86      0.00
   -7  -17   13     -0.05      0.00
   -6  -17   13      0.16      0.00
   -5  -17   13      0.24      0.00
   -4  -17   13     -0.77      0.00
   -3  -17   13     -1.33      0.00
   -1  -17   13     -1.94      0.00
    0  -17   13      1.40      0.00
    1  -17   13      0.54      0.00
    3  -17   13      1.43      0.00
    4  -17   13     -0.89      0.00
    5  -17   13     -0.39      0.00
    6  -17   13      0.08      0.00
    7  -17   13      0.60      0.00
    8  -17   13     -0.06      0.00
    9  -17   13     -0.19      0.00
   10  -17   13     -0.92      0.00
   11  -17   13      1.02      0.00
  -10  -16   13     -0.85      0.00
   -9  -16   13     -0.99      0.00
   -8  -16   13     -0.20      0.00
   -7  -16   13      0.42      0.00
   -6  -16   13      0.30      0.00
   -5  -16   13      0.06      0.00
   -4  -16   13     -0.04      0.00
   -3  -16   13      0.79      0.00
   -2  -16   13      0.65      0.00
   -1  -16   13     -0.17      0.00
    0  -16   13     -0.27      0.00
    1  -16   13      1.35      0.00
    2  -16   13      3.03      0.00
    3  -16   13      0.10      0.00
    4  -16   13      0.48      0.00
    5  -16   13     -0.62      0.00
    6  -16   13      0.73      0.00
    7  -16   13      0.42      0.00
    8  -16   13     -0.47      0.00
    9  -16   13     -0.78      0.00
   10  -16   13     -0.41      0.00
   11  -16   13      0.88      0.00
   12  -16   13      0.50      0.00
  -11  -15   13      0.39      0.00
  -10  -15   13      0.29      0.00
   -9  -15   13     -0.93      0.00
   -8  -15   13      0.10      0.00
   -7  -15   13     -0.01      0.00
   -6  -15   13      0.03      0.00
   -5  -15   13      0.10      0.00
   -4  -15   13     -1.15      0.00
   -3  -15   13      0.14      0.00
   -2  -15   13     -0.86      0.00
   -1  -15   13     -0.70      0.00
    0  -15   13     -1.76      0.00
    1  -15   13     -1.02      0.00
    2  -15   13      2.21      0.00
    3  -15   13     -0.84      0.00
    4  -15   13     -0.31      0.00
    5  -15   13      0.39      0.00
    6  -15   13     -0.54      0.00
    7  -15   13      0.82      0.00
    8  -15   13     -0.28      0.00
    9  -15   13     -0.31      0.00
   10  -15   13     -0.93      0.00
   11  -15   13      0.21      0.00
   12  -15   13      0.83      0.00
  -12  -14   13      0.60      0.00
  -11  -14   13      0.50      0.00
  -10  -14   13     -1.73      0.00
   -9  -14   13     -0.25      0.00
   -8  -14   13     -0.97      0.00
   -7  -14   13     -0.02      0.00
   -6  -14   13     -0.10      0.00
   -5  -14   13     -0.74      0.00
   -4  -14   13     -0.82      0.00
   -3  -14   13      1.04      0.00
   -2  -14   13      0.30      0.00
   -1  -14   13      0.19      0.00
    0  -14   13      0.83      0.00
    1  -14   13     -1.56      0.00
    2  -14   13      5.36      0.00
    3  -14   13     -1.68      0.00
    5  -14   13      0.52      0.00
    6  -14   13      0.15      0.00
    7  -14   13      0.43      0.00
    8  -14   13     -1.09      0.00
    9  -14   13     -0.34      0.00
   10  -14   13     -0.61      0.00
   11  -14   13      0.27      0.00
   12  -14   13      0.74      0.00
  -13  -13   13     -0.63      0.00
  -12  -13   13     -0.05      0.00
  -10  -13   13     -0.12      0.00
   -9  -13   13     -1.13      0.00
   -8  -13   13      1.10      0.00
   -7  -13   13     -0.59      0.00
   -6  -13   13      0.58      0.00
   -5  -13   13      0.66      0.00
   -4  -13   13      0.00      0.00
   -3  -13   13      0.86      0.00
   -2  -13   13     -0.55      0.00
   -1  -13   13     -3.39      0.00
    0  -13   13     -1.17      0.00
    1  -13   13     -1.78      0.00
    2  -13   13      1.05      0.00
    3  -13   13      0.49      0.00
    4  -13   13     -1.82      0.00
    5  -13   13      1.41      0.00
    6  -13   13     -0.23      0.00
    7  -13   13      0.77      0.00
    8  -13   13     -0.18      0.00
    9  -13   13      0.04      0.00
   10  -13   13     -0.02      0.00
   11  -13   13     -0.71      0.00
   12  -13   13      0.87      0.00
   13  -13   13     -1.00      0.00
  -14  -12   13     -1.02      0.00
  -12  -12   13     -0.74      0.00
  -11  -12   13      0.08      0.00
  -10  -12   13     -0.56      0.00
   -9  -12   13     -0.47      0.00
   -8  -12   13      0.17      0.00
   -7  -12   13      0.70      0.00
   -6  -12   13     -1.35      0.00
   -5  -12   13      0.14      0.00
   -4  -12   13     -1.68      0.00
   -2  -12   13      0.20      0.00
    0  -12   13     -1.89      0.00
    1  -12   13      1.03      0.00
    2  -12   13      1.44      0.00
    3  -12   13      0.33      0.00
    4  -12   13     -0.27      0.00
    5  -12   13      0.24      0.00
    6  -12   13      0.92      0.00
    7  -12   13      0.55      0.00
    8  -12   13     -1.49      0.00
    9  -12   13      0.67      0.00
   10  -12   13     -0.87      0.00
   11  -12   13     -0.08      0.00
   12  -12   13      1.52      0.00
   13  -12   13      0.01      0.00
  -14  -11   13     -0.94      0.00
  -13  -11   13      0.04      0.00
  -12  -11   13      0.05      0.00
  -11  -11   13      0.05      0.00
  -10  -11   13     -0.17      0.00
   -9  -11   13     -0.44      0.00
   -8  -11   13      0.05      0.00
   -7  -11   13      1.64      0.00
   -6  -11   13     -0.49      0.00
   -5  -11   13      1.21      0.00
   -4  -11   13      0.08      0.00
   -3  -11   13      1.29      0.00
   -2  -11   13     -1.01      0.00
   -1  -11   13     -0.33      0.00
    0  -11   13      1.04      0.00
    2  -11   13      0.91      0.00
    3  -11   13     -0.75      0.00
    4  -11   13     -0.17      0.00
    5  -11   13      0.40      0.00
    6  -11   13      0.08      0.00
    7  -11   13      1.28      0.00
    8  -11   13     -0.66      0.00
    9  -11   13     -0.42      0.00
   10  -11   13      1.24      0.00
   12  -11   13      1.10      0.00
   13  -11   13     -0.16      0.00
  -15  -10   13     -0.31      0.00
  -14  -10   13     -0.24      0.00
  -13  -10   13     -0.42      0.00
  -12  -10   13      0.28      0.00
  -10  -10   13      0.22      0.00
   -9  -10   13      0.43      0.00
   -8  -10   13      0.02      0.00
   -7  -10   13      0.57      0.00
   -6  -10   13     -0.28      0.00
   -5  -10   13     -0.27      0.00
   -4  -10   13     -0.62      0.00
   -3  -10   13      1.51      0.00
   -2  -10   13      0.37      0.00
    0  -10   13      1.05      0.00
    1  -10   13      0.04      0.00
    2  -10   13      0.22      0.00
    3  -10   13     -0.14      0.00
    4  -10   13     -0.06      0.00
    5  -10   13      0.22      0.00
    6  -10   13      0.38      0.00
    7  -10   13      0.18      0.00
    8  -10   13     -0.42      0.00
    9  -10   13     -0.68      0.00
   10  -10   13     -0.31      0.00
   11  -10   13      0.42      0.00
   12  -10   13     -0.56      0.00
   13  -10   13      0.71      0.00
  -15   -9   13      0.39      0.00
  -14   -9   13     -0.71      0.00
  -12   -9   13     -0.21      0.00
  -11   -9   13     -0.17      0.00
  -10   -9   13     -0.95      0.00
   -9   -9   13      0.32      0.00
   -8   -9   13     -0.62      0.00
   -7   -9   13      1.28      0.00
   -6   -9   13     -0.69      0.00
   -5   -9   13     -0.25      0.00
   -4   -9   13     -0.99      0.00
   -3   -9   13      0.14      0.00
   -2   -9   13      0.71      0.00
   -1   -9   13      0.55      0.00
    0   -9   13      0.94      0.00
    1   -9   13     -0.73      0.00
    2   -9   13     -0.05      0.00
    3   -9   13     -0.40      0.00
    4   -9   13     -0.19      0.00
    5   -9   13      0.26      0.00
    6   -9   13      0.61      0.00
    7   -9   13      0.20      0.00
    8   -9   13     -0.70      0.00
    9   -9   13     -0.29      0.00
   10   -9   13     -0.14      0.00
   11   -9   13      0.14      0.00
   12   -9   13      0.08      0.00
   13   -9   13      0.05      0.00
  -16   -8   13     -0.26      0.00
  -15   -8   13      0.10      0.00
  -14   -8   13     -0.48      0.00
  -13   -8   13      0.82      0.00
  -12   -8   13      0.04      0.00
  -11   -8   13      0.63      0.00
  -10   -8   13     -0.24      0.00
   -9   -8   13      0.79      0.00
   -8   -8   13     -0.31      0.00
   -7   -8   13     -0.56      0.00
   -6   -8   13      0.59      0.00
   -5   -8   13     -0.47      0.00
   -4   -8   13     -0.21      0.00
   -3   -8   13      0.55      0.00
   -2   -8   13      0.53      0.00
   -1   -8   13     -2.23      0.00
    0   -8   13      0.62      0.00
    1   -8   13     -0.21      0.00
    2   -8   13     -0.72      0.00
    3   -8   13      0.09      0.00
    4   -8   13      0.39      0.00
    5   -8   13     -0.17      0.00
    6   -8   13      0.74      0.00
    7   -8   13      0.59      0.00
    8   -8   13     -0.33      0.00
    9   -8   13     -0.15      0.00
   10   -8   13      0.33      0.00
   11   -8   13     -0.05      0.00
   12   -8   13      0.16      0.00
   13   -8   13      0.02      0.00
  -16   -7   13     -0.01      0.00
  -15   -7   13      0.66      0.00
  -14   -7   13     -0.11      0.00
  -13   -7   13      0.65      0.00
  -12   -7   13      0.24      0.00
  -11   -7   13     -0.56      0.00
  -10   -7   13     -0.30      0.00
   -9   -7   13     -0.04      0.00
   -8   -7   13      0.43      0.00
   -7   -7   13      0.14      0.00
   -6   -7   13     -0.57      0.00
   -5   -7   13      0.04      0.00
   -4   -7   13     -0.91      0.00
   -3   -7   13     -0.52      0.00
   -2   -7   13      1.76      0.00
   -1   -7   13     -0.35      0.00
    0   -7   13     -0.20      0.00
    1   -7   13      1.02      0.00
    2   -7   13      0.19      0.00
    3   -7   13     -0.16      0.00
    4   -7   13      0.64      0.00
    5   -7   13     -0.19      0.00
    6   -7   13      0.71      0.00
    7   -7   13      0.18      0.00
    8   -7   13     -0.70      0.00
    9   -7   13     -0.59      0.00
   10   -7   13     -0.09      0.00
   11   -7   13      0.88      0.00
   12   -7   13     -0.58      0.00
   13   -7   13      0.21      0.00
  -17   -6   13     -0.31      0.00
  -16   -6   13     -0.56      0.00
  -15   -6   13      0.34      0.00
  -14   -6   13     -0.22      0.00
  -13   -6   13      0.28      0.00
  -12   -6   13      0.37      0.00
  -11   -6   13      0.41      0.00
  -10   -6   13      0.36      0.00
   -9   -6   13      0.54      0.00
   -8   -6   13      0.70      0.00
   -7   -6   13     -0.13      0.00
   -6   -6   13     -0.15      0.00
   -5   -6   13      0.26      0.00
   -4   -6   13     -0.57      0.00
   -3   -6   13      1.25      0.00
   -2   -6   13      0.77      0.00
   -1   -6   13      0.37      0.00
    0   -6   13     -0.63      0.00
    1   -6   13     -0.05      0.00
    2   -6   13     -0.03      0.00
    3   -6   13     -0.09      0.00
    4   -6   13      0.13      0.00
    5   -6   13      0.04      0.00
    6   -6   13     -0.45      0.00
    7   -6   13      0.72      0.00
    8   -6   13     -1.16      0.00
    9   -6   13     -0.10      0.00
   10   -6   13     -1.27      0.00
   11   -6   13      0.73      0.00
   12   -6   13     -0.40      0.00
  -17   -5   13      0.76      0.00
  -16   -5   13     -0.91      0.00
  -15   -5   13      0.67      0.00
  -14   -5   13      0.58      0.00
  -13   -5   13     -0.41      0.00
  -12   -5   13      0.35      0.00
  -11   -5   13     -0.36      0.00
  -10   -5   13      0.32      0.00
   -9   -5   13     -0.97      0.00
   -8   -5   13      1.13      0.00
   -7   -5   13      0.09      0.00
   -6   -5   13     -0.79      0.00
   -5   -5   13      1.02      0.00
   -4   -5   13     -1.48      0.00
   -3   -5   13      0.43      0.00
   -2   -5   13      0.52      0.00
   -1   -5   13     -0.26      0.00
    0   -5   13      0.12      0.00
    1   -5   13     -0.03      0.00
    2   -5   13      0.31      0.00
    3   -5   13     -0.25      0.00
    4   -5   13     -0.73      0.00
    5   -5   13      0.35      0.00
    6   -5   13     -0.58      0.00
    7   -5   13     -0.05      0.00
    8   -5   13     -0.84      0.00
    9   -5   13     -0.27      0.00
   10   -5   13     -0.12      0.00
   11   -5   13      0.63      0.00
   12   -5   13      0.37      0.00
  -17   -4   13      0.17      0.00
  -16   -4   13      0.27      0.00
  -15   -4   13     -0.52      0.00
  -14   -4   13      0.34      0.00
  -13   -4   13     -0.21      0.00
  -12   -4   13     -0.79      0.00
  -11   -4   13     -0.02      0.00
  -10   -4   13      0.67      0.00
   -9   -4   13     -0.56      0.00
   -8   -4   13      0.48      0.00
   -7   -4   13     -0.34      0.00
   -6   -4   13     -1.08      0.00
   -5   -4   13     -0.31      0.00
   -4   -4   13     -1.06      0.00
   -3   -4   13      0.18      0.00
   -2   -4   13      1.05      0.00
   -1   -4   13      0.44      0.00
    0   -4   13     -0.42      0.00
    1   -4   13     -0.55      0.00
    2   -4   13     -0.10      0.00
    3   -4   13      0.33      0.00
    4   -4   13     -0.93      0.00
    5   -4   13      0.48      0.00
    6   -4   13     -0.29      0.00
    7   -4   13      0.06      0.00
    8   -4   13     -0.28      0.00
    9   -4   13     -0.17      0.00
   10   -4   13      0.02      0.00
   11   -4   13      0.48      0.00
   12   -4   13      0.51      0.00
  -17   -3   13     -0.52      0.00
  -16   -3   13      0.59      0.00
  -15   -3   13      0.29      0.00
  -14   -3   13     -0.23      0.00
  -13   -3   13     -0.10      0.00
  -12   -3   13     -0.23      0.00
  -11   -3   13     -0.54      0.00
  -10   -3   13     -0.01      0.00
   -9   -3   13     -0.38      0.00
   -8   -3   13      0.32      0.00
   -7   -3   13      0.58      0.00
   -6   -3   13     -0.82      0.00
   -5   -3   13      0.30      0.00
   -4   -3   13     -0.42      0.00
   -3   -3   13     -0.12      0.00
   -2   -3   13      0.12      0.00
   -1   -3   13      0.93      0.00
    0   -3   13     -0.43      0.00
    1   -3   13     -0.05      0.00
    2   -3   13      0.02      0.00
    3   -3   13      0.05      0.00
    4   -3   13      0.15      0.00
    5   -3   13      0.08      0.00
    6   -3   13      0.23      0.00
    7   -3   13     -0.14      0.00
    8   -3   13     -0.15      0.00
    9   -3   13     -0.12      0.00
   10   -3   13      0.83      0.00
   11   -3   13      0.30      0.00
  -18   -2   13     -0.13      0.00
  -17   -2   13     -0.32      0.00
  -16   -2   13     -0.10      0.00
  -15   -2   13     -0.06      0.00
  -14   -2   13      0.32      0.00
  -13   -2   13     -0.22      0.00
  -12   -2   13     -0.46      0.00
  -11   -2   13      0.44      0.00
  -10   -2   13     -0.34      0.00
   -9   -2   13     -0.05      0.00
   -8   -2   13     -0.12      0.00
   -7   -2   13      0.19      0.00
   -6   -2   13     -0.66      0.00
   -5   -2   13     -0.63      0.00
   -4   -2   13     -0.57      0.00
   -2   -2   13     -0.04      0.00
   -1   -2   13      1.42      0.00
    0   -2   13     -0.77      0.00
    1   -2   13      0.01      0.00
    2   -2   13      0.18      0.00
    3   -2   13     -0.21      0.00
    4   -2   13      0.15      0.00
    5   -2   13     -0.07      0.00
    6   -2   13     -0.26      0.00
    7   -2   13     -0.05      0.00
    8   -2   13      0.26      0.00
    9   -2   13     -0.30      0.00
   10   -2   13      0.85      0.00
   11   -2   13      0.47      0.00
  -18   -1   13     -0.32      0.00
  -17   -1   13     -0.24      0.00
  -16   -1   13      0.74      0.00
  -15   -1   13     -0.69      0.00
  -14   -1   13      0.11      0.00
  -13   -1   13     -0.11      0.00
  -12   -1   13     -0.05      0.00
  -11   -1   13      0.22      0.00
  -10   -1   13      0.30      0.00
   -9   -1   13     -0.01      0.00
   -8   -1   13      0.31      0.00
   -7   -1   13      0.85      0.00
   -6   -1   13     -0.40      0.00
   -5   -1   13      0.35      0.00
   -4   -1   13      0.47      0.00
   -3   -1   13      0.31      0.00
   -2   -1   13      0.11      0.00
   -1   -1   13      0.53      0.00
    0   -1   13     -0.62      0.00
    1   -1   13     -0.58      0.00
    2   -1   13      0.14      0.00
    3   -1   13     -0.60      0.00
    4   -1   13      1.01      0.00
    5   -1   13      0.27      0.00
    6   -1   13     -0.22      0.00
    7   -1   13      0.11      0.00
    8   -1   13     -0.32      0.00
    9   -1   13     -0.50      0.00
   10   -1   13     -0.04      0.00
  -18    0   13     -0.35      0.00
  -17    0   13     -0.19      0.00
  -16    0   13      0.42      0.00
  -15    0   13     -0.11      0.00
  -14    0   13      0.46      0.00
  -13    0   13      0.44      0.00
  -12    0   13      0.10      0.00
  -11    0   13      0.81      0.00
  -10    0   13     -0.81      0.00
   -9    0   13      0.41      0.00
   -8    0   13     -0.19      0.00
   -7    0   13      0.55      0.00
   -6    0   13     -0.02      0.00
   -5    0   13     -0.51      0.00
   -4    0   13      0.34      0.00
   -3    0   13     -0.04      0.00
   -2    0   13      0.92      0.00
   -1    0   13      0.37      0.00
    0    0   13      0.07      0.00
    1    0   13     -0.31      0.00
    2    0   13      0.55      0.00
    3    0   13      0.04      0.00
    4    0   13     -0.25      0.00
    5    0   13      0.70      0.00
    6    0   13     -0.75      0.00
    7    0   13      0.07      0.00
    8    0   13      0.31      0.00
    9    0   13     -0.03      0.00
   10    0   13      0.61      0.00
  -18    1   13     -0.33      0.00
  -17    1   13      0.22      0.00
  -16    1   13     -0.29      0.00
  -15    1   13     -0.23      0.00
  -14    1   13     -0.46      0.00
  -13    1   13      0.70      0.00
  -12    1   13     -0.39      0.00
  -11    1   13      1.11      0.00
  -10    1   13     -0.68      0.00
   -9    1   13     -0.57      0.00
   -8    1   13      0.27      0.00
   -7    1   13     -0.06      0.00
   -6    1   13     -0.23      0.00
   -5    1   13      1.15      0.00
   -4    1   13     -0.22      0.00
   -3    1   13      0.06      0.00
   -2    1   13      0.01      0.00
   -1    1   13      0.24      0.00
    0    1   13     -0.10      0.00
    1    1   13     -0.65      0.00
    2    1   13     -1.01      0.00
    3    1   13      0.91      0.00
    4    1   13     -0.04      0.00
    5    1   13      0.79      0.00
    6    1   13      0.18      0.00
    7    1   13     -0.13      0.00
    8    1   13     -0.44      0.00
    9    1   13     -0.32      0.00
  -18    2   13     -0.16      0.00
  -17    2   13      0.49      0.00
  -16    2   13      0.71      0.00
  -15    2   13      0.22      0.00
  -14    2   13      0.17      0.00
  -13    2   13      0.68      0.00
  -12    2   13      0.12      0.00
  -11    2   13      0.22      0.00
  -10    2   13      0.29      0.00
   -9    2   13     -1.10      0.00
   -8    2   13     -0.16      0.00
   -7    2   13      0.37      0.00
   -6    2   13     -0.96      0.00
   -5    2   13      0.39      0.00
   -4    2   13      0.66      0.00
   -3    2   13     -0.91      0.00
   -2    2   13      1.15      0.00
   -1    2   13     -0.15      0.00
    0    2   13      0.76      0.00
    1    2   13      0.46      0.00
    2    2   13     -0.18      0.00
    3    2   13      0.27      0.00
    4    2   13      0.22      0.00
    5    2   13     -0.41      0.00
    6    2   13      0.47      0.00
    7    2   13     -0.18      0.00
    8    2   13     -0.06      0.00
  -17    3   13     -0.99      0.00
  -16    3   13     -0.46      0.00
  -15    3   13     -0.01      0.00
  -14    3   13     -0.19      0.00
  -13    3   13     -0.23      0.00
  -12    3   13     -0.11      0.00
  -11    3   13     -0.33      0.00
  -10    3   13     -0.18      0.00
   -9    3   13     -0.05      0.00
   -8    3   13     -1.11      0.00
   -7    3   13      0.33      0.00
   -6    3   13      0.22      0.00
   -5    3   13     -0.07      0.00
   -4    3   13      0.65      0.00
   -3    3   13     -1.56      0.00
   -2    3   13      0.34      0.00
   -1    3   13      0.55      0.00
    0    3   13     -0.28      0.00
    1    3   13     -0.60      0.00
    2    3   13     -0.69      0.00
    3    3   13      0.53      0.00
    4    3   13      0.50      0.00
    5    3   13     -0.54      0.00
    6    3   13      0.96      0.00
    7    3   13     -1.11      0.00
    8    3   13      0.36      0.00
  -17    4   13      1.00      0.00
  -16    4   13     -0.17      0.00
  -15    4   13      0.51      0.00
  -14    4   13      0.32      0.00
  -13    4   13      0.50      0.00
  -12    4   13     -0.10      0.00
  -11    4   13      0.20      0.00
  -10    4   13      0.49      0.00
   -9    4   13      0.45      0.00
   -8    4   13     -1.69      0.00
   -7    4   13      0.17      0.00
   -6    4   13     -0.42      0.00
   -5    4   13      0.05      0.00
   -4    4   13      1.91      0.00
   -3    4   13     -1.39      0.00
   -2    4   13     -0.30      0.00
   -1    4   13      0.20      0.00
    0    4   13      1.17      0.00
    1    4   13     -0.29      0.00
    2    4   13     -0.22      0.00
    3    4   13     -0.04      0.00
    4    4   13      0.28      0.00
    5    4   13     -1.29      0.00
    6    4   13      1.08      0.00
    7    4   13     -0.42      0.00
  -17    5   13     -0.18      0.00
  -16    5   13      0.34      0.00
  -15    5   13      0.18      0.00
  -14    5   13      0.11      0.00
  -13    5   13     -0.70      0.00
  -12    5   13      0.03      0.00
  -11    5   13     -0.58      0.00
  -10    5   13     -0.21      0.00
   -9    5   13      1.68      0.00
   -8    5   13     -1.37      0.00
   -7    5   13      0.83      0.00
   -6    5   13      0.70      0.00
   -5    5   13     -0.35      0.00
   -4    5   13      1.85      0.00
   -3    5   13     -0.56      0.00
   -2    5   13      0.12      0.00
   -1    5   13     -0.94      0.00
    0    5   13      0.58      0.00
    1    5   13     -0.64      0.00
    2    5   13     -0.79      0.00
    3    5   13      1.21      0.00
    5    5   13     -0.49      0.00
    6    5   13     -0.34      0.00
  -16    6   13     -0.32      0.00
  -15    6   13      0.80      0.00
  -14    6   13     -0.20      0.00
  -13    6   13      0.86      0.00
  -12    6   13     -0.83      0.00
  -11    6   13     -0.11      0.00
  -10    6   13      0.63      0.00
   -9    6   13      1.17      0.00
   -8    6   13     -0.80      0.00
   -7    6   13     -0.61      0.00
   -6    6   13      0.92      0.00
   -5    6   13     -0.75      0.00
   -4    6   13      2.26      0.00
   -3    6   13     -0.71      0.00
   -2    6   13     -0.41      0.00
   -1    6   13      0.12      0.00
    0    6   13      0.31      0.00
    1    6   13      0.39      0.00
    2    6   13     -0.35      0.00
    3    6   13      0.55      0.00
    4    6   13      0.00      0.00
    5    6   13      0.00      0.00
  -16    7   13     -0.75      0.00
  -15    7   13      1.61      0.00
  -14    7   13     -0.84      0.00
  -13    7   13     -0.19      0.00
  -12    7   13      1.24      0.00
  -11    7   13     -2.24      0.00
  -10    7   13     -0.06      0.00
   -9    7   13      1.16      0.00
   -8    7   13      1.08      0.00
   -7    7   13     -0.91      0.00
   -6    7   13      0.65      0.00
   -5    7   13      0.27      0.00
   -4    7   13      0.07      0.00
   -3    7   13      0.76      0.00
   -2    7   13     -1.38      0.00
   -1    7   13     -0.49      0.00
    0    7   13      0.30      0.00
    1    7   13     -1.39      0.00
    2    7   13      0.45      0.00
    3    7   13      0.35      0.00
    4    7   13      0.21      0.00
  -15    8   13      0.35      0.00
  -14    8   13      1.03      0.00
  -13    8   13     -1.30      0.00
  -12    8   13      0.44      0.00
  -11    8   13     -0.69      0.00
  -10    8   13     -0.26      0.00
   -9    8   13      0.99      0.00
   -8    8   13      0.73      0.00
   -7    8   13     -0.25      0.00
   -6    8   13     -0.82      0.00
   -5    8   13      0.42      0.00
   -4    8   13     -0.01      0.00
   -3    8   13      0.42      0.00
   -2    8   13     -0.88      0.00
   -1    8   13      0.35      0.00
    0    8   13      0.03      0.00
    2    8   13      0.57      0.00
  -14    9   13      0.47      0.00
  -13    9   13      0.71      0.00
  -12    9   13     -0.65      0.00
  -11    9   13     -0.76      0.00
  -10    9   13     -1.42      0.00
   -9    9   13      2.71      0.00
   -8    9   13      1.56      0.00
   -7    9   13     -0.21      0.00
   -6    9   13      0.62      0.00
   -5    9   13     -0.61      0.00
   -4    9   13     -0.44      0.00
   -3    9   13     -0.29      0.00
   -2    9   13     -0.11      0.00
   -1    9   13     -0.61      0.00
    0    9   13      1.33      0.00
  -12   10   13     -0.25      0.00
  -11   10   13      0.13      0.00
  -10   10   13     -1.56      0.00
   -9   10   13      0.46      0.00
   -8   10   13      0.82      0.00
   -7   10   13     -0.67      0.00
   -6   10   13     -0.17      0.00
   -5   10   13      0.62      0.00
   -4   10   13     -0.81      0.00
   -3   10   13     -0.29      0.00
   -2   10   13      0.44      0.00
  -10   11   13      0.14      0.00
   -9   11   13      1.23      0.00
   -8   11   13      1.47      0.00
   -7   11   13      0.89      0.00
   -6   11   13     -0.52      0.00
   -5   11   13      0.33      0.00
   -1  -21   14      0.66      0.00
    0  -21   14      0.65      0.00
    1  -21   14     -0.72      0.00
    2  -21   14      0.01      0.00
    3  -21   14      0.53      0.00
    4  -21   14     -1.09      0.00
   -4  -20   14     -0.44      0.00
   -3  -20   14      1.46      0.00
   -2  -20   14     -0.21      0.00
   -1  -20   14     -0.22      0.00
    0  -20   14      1.13      0.00
    1  -20   14     -0.51      0.00
    2  -20   14      0.17      0.00
    3  -20   14      2.11      0.00
    4  -20   14      0.69      0.00
    5  -20   14     -1.50      0.00
    6  -20   14     -0.58      0.00
    7  -20   14     -0.03      0.00
   -6  -19   14      0.68      0.00
   -5  -19   14     -0.86      0.00
   -4  -19   14      0.28      0.00
   -3  -19   14     -0.45      0.00
   -2  -19   14     -0.76      0.00
   -1  -19   14      0.03      0.00
    0  -19   14      0.01      0.00
    1  -19   14      0.75      0.00
    2  -19   14     -1.60      0.00
    3  -19   14     -2.00      0.00
    4  -19   14      0.82      0.00
    5  -19   14      0.12      0.00
    6  -19   14     -0.29      0.00
    7  -19   14     -0.79      0.00
    8  -19   14      1.27      0.00
   -7  -18   14      0.46      0.00
   -6  -18   14      0.51      0.00
   -5  -18   14      0.44      0.00
   -4  -18   14      0.31      0.00
   -3  -18   14      1.55      0.00
   -2  -18   14     -0.92      0.00
   -1  -18   14      0.85      0.00
    0  -18   14     -0.75      0.00
    1  -18   14      0.57      0.00
    2  -18   14      2.09      0.00
    3  -18   14      0.60      0.00
    4  -18   14      0.65      0.00
    5  -18   14     -0.49      0.00
    6  -18   14      0.18      0.00
    7  -18   14     -0.23      0.00
    8  -18   14      0.51      0.00
    9  -18   14     -0.16      0.00
   -9  -17   14      0.44      0.00
   -8  -17   14      0.29      0.00
   -7  -17   14     -1.10      0.00
   -6  -17   14      0.42      0.00
   -5  -17   14     -0.71      0.00
   -4  -17   14      0.41      0.00
   -3  -17   14     -1.39      0.00
   -2  -17   14      0.17      0.00
   -1  -17   14     -1.03      0.00
    0  -17   14      0.29      0.00
    1  -17   14     -0.32      0.00
    2  -17   14     -2.36      0.00
    3  -17   14      0.40      0.00
    4  -17   14     -0.47      0.00
    5  -17   14      0.82      0.00
    6  -17   14     -0.46      0.00
    7  -17   14     -0.29      0.00
    8  -17   14      1.09      0.00
    9  -17   14      0.28      0.00
   10  -17   14     -0.76      0.00
  -10  -16   14     -0.46      0.00
   -9  -16   14     -0.06      0.00
   -8  -16   14     -0.21      0.00
   -7  -16   14     -0.54      0.00
   -6  -16   14     -0.56      0.00
   -5  -16   14     -0.16      0.00
   -4  -16   14      0.49      0.00
   -3  -16   14      0.41      0.00
   -1  -16   14      0.38      0.00
    0  -16   14      0.50      0.00
    1  -16   14      1.51      0.00
    3  -16   14      2.51      0.00
    4  -16   14     -1.31      0.00
    5  -16   14     -0.21      0.00
    6  -16   14      0.79      0.00
    7  -16   14     -0.57      0.00
    8  -16   14      0.44      0.00
    9  -16   14      0.40      0.00
   10  -16   14      0.10      0.00
   11  -16   14     -0.56      0.00
  -11  -15   14     -0.96      0.00
  -10  -15   14      2.51      0.00
   -9  -15   14     -1.00      0.00
   -8  -15   14      0.61      0.00
   -7  -15   14     -1.04      0.00
   -6  -15   14     -0.26      0.00
   -5  -15   14      0.12      0.00
   -4  -15   14      0.60      0.00
   -3  -15   14     -1.10      0.00
   -2  -15   14      1.48      0.00
   -1  -15   14     -1.74      0.00
    0  -15   14     -1.05      0.00
    1  -15   14      1.94      0.00
    2  -15   14     -5.69      0.00
    3  -15   14      2.97      0.00
    4  -15   14     -0.13      0.00
    5  -15   14     -1.10      0.00
    6  -15   14      0.40      0.00
    7  -15   14     -0.23      0.00
    8  -15   14      0.77      0.00
    9  -15   14      0.15      0.00
   10  -15   14     -0.13      0.00
   11  -15   14     -0.45      0.00
  -12  -14   14     -0.63      0.00
  -11  -14   14     -0.62      0.00
  -10  -14   14     -0.17      0.00
   -9  -14   14      0.75      0.00
   -8  -14   14     -1.19      0.00
   -7  -14   14      0.09      0.00
   -6  -14   14     -1.10      0.00
   -5  -14   14     -0.79      0.00
   -4  -14   14      0.18      0.00
   -3  -14   14     -0.35      0.00
   -2  -14   14      1.02      0.00
   -1  -14   14      3.65      0.00
    0  -14   14     -2.02      0.00
    1  -14   14      2.03      0.00
    2  -14   14     -2.16      0.00
    3  -14   14     -0.16      0.00
    4  -14   14      1.34      0.00
    6  -14   14      0.15      0.00
    7  -14   14      0.10      0.00
    8  -14   14      0.38      0.00
    9  -14   14      0.13      0.00
   10  -14   14      0.35      0.00
   11  -14   14      0.33      0.00
   12  -14   14     -0.50      0.00
  -13  -13   14     -0.71      0.00
  -12  -13   14     -0.30      0.00
  -11  -13   14     -0.64      0.00
  -10  -13   14      1.41      0.00
   -9  -13   14     -0.59      0.00
   -8  -13   14      0.49      0.00
   -7  -13   14     -0.62      0.00
   -6  -13   14      1.05      0.00
   -5  -13   14      0.31      0.00
   -4  -13   14      0.86      0.00
   -3  -13   14     -0.43      0.00
   -2  -13   14     -0.65      0.00
   -1  -13   14     -0.22      0.00
    0  -13   14      1.06      0.00
    1  -13   14     -2.32      0.00
    2  -13   14     -1.07      0.00
    3  -13   14     -0.62      0.00
    4  -13   14      0.91      0.00
    5  -13   14     -0.62      0.00
    6  -13   14     -0.76      0.00
    7  -13   14      0.21      0.00
    8  -13   14      2.25      0.00
    9  -13   14     -1.06      0.00
   10  -13   14      0.99      0.00
   11  -13   14     -0.15      0.00
   12  -13   14     -1.18      0.00
  -13  -12   14     -0.38      0.00
  -10  -12   14      0.90      0.00
   -9  -12   14      0.58      0.00
   -8  -12   14     -0.52      0.00
   -7  -12   14     -0.10      0.00
   -6  -12   14      0.39      0.00
   -5  -12   14     -1.67      0.00
   -4  -12   14      1.15      0.00
   -3  -12   14     -1.27      0.00
   -2  -12   14      1.85      0.00
   -1  -12   14      1.25      0.00
    0  -12   14     -0.94      0.00
    1  -12   14      1.24      0.00
    2  -12   14     -0.16      0.00
    3  -12   14     -0.37      0.00
    4  -12   14     -0.30      0.00
    5  -12   14     -0.63      0.00
    6  -12   14      0.07      0.00
    7  -12   14     -1.17      0.00
    8  -12   14      1.45      0.00
    9  -12   14      0.50      0.00
   10  -12   14     -1.50      0.00
   11  -12   14      2.71      0.00
   12  -12   14     -1.17      0.00
  -14  -11   14      0.39      0.00
  -13  -11   14      0.46      0.00
  -12  -11   14     -0.70      0.00
  -11  -11   14     -0.25      0.00
  -10  -11   14      0.36      0.00
   -9  -11   14      0.50      0.00
   -8  -11   14     -0.56      0.00
   -7  -11   14     -0.02      0.00
   -6  -11   14      1.73      0.00
   -5  -11   14     -0.08      0.00
   -4  -11   14     -0.18      0.00
   -3  -11   14      1.22      0.00
   -2  -11   14     -1.68      0.00
    0  -11   14      0.50      0.00
    1  -11   14     -2.05      0.00
    2  -11   14      0.64      0.00
    3  -11   14     -0.20      0.00
    4  -11   14     -0.65      0.00
    5  -11   14     -0.56      0.00
    6  -11   14      0.17      0.00
    7  -11   14     -0.07      0.00
    8  -11   14      0.16      0.00
    9  -11   14      0.86      0.00
   10  -11   14     -0.46      0.00
   11  -11   14     -0.83      0.00
   12  -11   14      0.79      0.00
  -15  -10   14     -0.44      0.00
  -14  -10   14      0.58      0.00
  -13  -10   14      0.01      0.00
  -12  -10   14      0.44      0.00
  -11  -10   14     -0.04      0.00
  -10  -10   14      0.91      0.00
   -9  -10   14      0.55      0.00
   -8  -10   14      0.30      0.00
   -7  -10   14     -1.62      0.00
   -6  -10   14      0.68      0.00
   -5  -10   14      0.53      0.00
   -4  -10   14     -0.49      0.00
   -3  -10   14      0.39      0.00
   -2  -10   14      0.66      0.00
   -1  -10   14     -2.55      0.00
    0  -10   14      1.03      0.00
    1  -10   14      0.36      0.00
    2  -10   14     -0.25      0.00
    3  -10   14      0.63      0.00
    4  -10   14     -1.01      0.00
    5  -10   14     -0.65      0.00
    6  -10   14     -0.38      0.00
    7  -10   14      0.09      0.00
    8  -10   14      0.32      0.00
    9  -10   14      0.44      0.00
   11  -10   14      0.09      0.00
   12  -10   14      0.05      0.00
  -15   -9   14      0.62      0.00
  -14   -9   14      0.73      0.00
  -13   -9   14     -0.17      0.00
  -12   -9   14     -0.14      0.00
  -11   -9   14     -0.36      0.00
  -10   -9   14      0.16      0.00
   -9   -9   14     -0.57      0.00
   -8   -9   14      0.04      0.00
   -7   -9   14      0.18      0.00
   -6   -9   14     -1.63      0.00
   -5   -9   14      0.95      0.00
   -4   -9   14     -0.89      0.00
   -3   -9   14     -0.19      0.00
   -2   -9   14      0.16      0.00
   -1   -9   14      1.97      0.00
    0   -9   14     -1.44      0.00
    1   -9   14      0.66      0.00
    2   -9   14      0.28      0.00
    3   -9   14      0.78      0.00
    4   -9   14     -0.75      0.00
    5   -9   14      0.38      0.00
    6   -9   14      0.09      0.00
    7   -9   14     -0.10      0.00
    8   -9   14      0.27      0.00
    9   -9   14      0.79      0.00
   10   -9   14     -0.30      0.00
   11   -9   14     -0.33      0.00
   12   -9   14      0.32      0.00
  -16   -8   14      0.11      0.00
  -15   -8   14     -0.08      0.00
  -14   -8   14      0.58      0.00
  -13   -8   14      0.03      0.00
  -12   -8   14      0.50      0.00
  -11   -8   14      0.44      0.00
  -10   -8   14      0.82      0.00
   -9   -8   14      0.39      0.00
   -8   -8   14     -0.75      0.00
   -7   -8   14      0.56      0.00
   -6   -8   14     -0.43      0.00
   -5   -8   14      0.52      0.00
   -4   -8   14      0.93      0.00
   -3   -8   14      0.43      0.00
   -2   -8   14     -1.38      0.00
   -1   -8   14     -0.57      0.00
    0   -8   14      0.02      0.00
    1   -8   14     -0.03      0.00
    2   -8   14      0.89      0.00
    3   -8   14      0.95      0.00
    4   -8   14     -0.63      0.00
    5   -8   14     -0.25      0.00
    6   -8   14      0.04      0.00
    7   -8   14      0.61      0.00
    8   -8   14      0.23      0.00
    9   -8   14      0.85      0.00
   10   -8   14      0.20      0.00
   11   -8   14     -1.12      0.00
   12   -8   14      0.62      0.00
  -16   -7   14     -0.41      0.00
  -15   -7   14      1.42      0.00
  -14   -7   14      0.19      0.00
  -13   -7   14     -0.31      0.00
  -12   -7   14      0.32      0.00
  -11   -7   14     -0.37      0.00
  -10   -7   14     -0.08      0.00
   -9   -7   14      0.20      0.00
   -8   -7   14     -0.61      0.00
   -7   -7   14      0.02      0.00
   -6   -7   14      0.09      0.00
   -5   -7   14     -0.13      0.00
   -4   -7   14      0.71      0.00
   -3   -7   14     -0.78      0.00
   -2   -7   14      0.11      0.00
   -1   -7   14      0.20      0.00
    0   -7   14      0.58      0.00
    1   -7   14     -0.50      0.00
    2   -7   14      1.24      0.00
    3   -7   14      0.24      0.00
    4   -7   14     -0.21      0.00
    5   -7   14     -0.44      0.00
    6   -7   14      0.09      0.00
    7   -7   14     -0.58      0.00
    8   -7   14      0.73      0.00
    9   -7   14     -0.41      0.00
   10   -7   14      0.38      0.00
   11   -7   14     -1.36      0.00
   12   -7   14      0.12      0.00
  -16   -6   14      0.24      0.00
  -15   -6   14     -0.44      0.00
  -14   -6   14      0.37      0.00
  -13   -6   14     -0.76      0.00
  -12   -6   14     -0.10      0.00
  -11   -6   14      0.75      0.00
  -10   -6   14     -0.86      0.00
   -9   -6   14      1.43      0.00
   -8   -6   14     -0.71      0.00
   -7   -6   14      0.73      0.00
   -6   -6   14     -0.04      0.00
   -5   -6   14      0.43      0.00
   -4   -6   14      1.08      0.00
   -3   -6   14      0.35      0.00
   -2   -6   14     -1.00      0.00
   -1   -6   14      0.00      0.00
    0   -6   14      0.36      0.00
    1   -6   14     -0.35      0.00
    2   -6   14     -0.14      0.00
    3   -6   14      0.61      0.00
    4   -6   14     -0.97      0.00
    5   -6   14     -0.83      0.00
    6   -6   14     -0.13      0.00
    7   -6   14     -0.10      0.00
    8   -6   14     -0.13      0.00
    9   -6   14      0.03      0.00
   10   -6   14     -0.48      0.00
   11   -6   14     -0.88      0.00
  -17   -5   14      0.02      0.00
  -16   -5   14     -0.39      0.00
  -15   -5   14      0.71      0.00
  -14   -5   14     -0.05      0.00
  -13   -5   14     -0.45      0.00
  -12   -5   14     -0.11      0.00
  -11   -5   14     -0.12      0.00
  -10   -5   14     -0.80      0.00
   -9   -5   14     -0.13      0.00
   -8   -5   14     -0.83      0.00
   -7   -5   14      0.32      0.00
   -6   -5   14      0.28      0.00
   -5   -5   14      0.62      0.00
   -4   -5   14     -0.86      0.00
   -3   -5   14     -0.22      0.00
   -2   -5   14     -0.25      0.00
   -1   -5   14     -0.83      0.00
    0   -5   14      0.66      0.00
    1   -5   14     -0.24      0.00
    2   -5   14     -0.20      0.00
    3   -5   14     -0.29      0.00
    4   -5   14      0.37      0.00
    5   -5   14     -1.34      0.00
    6   -5   14      0.33      0.00
    7   -5   14      0.33      0.00
    8   -5   14      0.22      0.00
    9   -5   14      0.25      0.00
   10   -5   14      0.22      0.00
   11   -5   14      0.06      0.00
  -17   -4   14      1.14      0.00
  -16   -4   14     -0.78      0.00
  -15   -4   14     -0.05      0.00
  -14   -4   14      0.22      0.00
  -13   -4   14     -0.41      0.00
  -12   -4   14     -0.74      0.00
  -11   -4   14     -0.09      0.00
  -10   -4   14     -0.98      0.00
   -9   -4   14      0.25      0.00
   -8   -4   14     -0.62      0.00
   -7   -4   14     -0.52      0.00
   -6   -4   14     -0.66      0.00
   -5   -4   14      1.44      0.00
   -4   -4   14     -0.71      0.00
   -3   -4   14     -0.96      0.00
   -2   -4   14      0.97      0.00
   -1   -4   14     -1.16      0.00
    0   -4   14      0.41      0.00
    1   -4   14      0.05      0.00
    2   -4   14     -0.30      0.00
    3   -4   14      0.06      0.00
    4   -4   14     -0.22      0.00
    5   -4   14     -0.25      0.00
    6   -4   14     -0.16      0.00
    7   -4   14      0.93      0.00
    8   -4   14      0.26      0.00
    9   -4   14      0.43      0.00
   10   -4   14     -0.46      0.00
   11   -4   14      0.71      0.00
  -17   -3   14      0.32      0.00
  -16   -3   14     -0.36      0.00
  -15   -3   14     -0.28      0.00
  -14   -3   14     -0.16      0.00
  -13   -3   14     -0.02      0.00
  -12   -3   14     -0.24      0.00
  -11   -3   14     -0.12      0.00
  -10   -3   14     -0.09      0.00
   -9   -3   14     -0.50      0.00
   -8   -3   14      0.00      0.00
   -7   -3   14      0.88      0.00
   -6   -3   14     -0.87      0.00
   -5   -3   14      0.73      0.00
   -4   -3   14      0.21      0.00
   -3   -3   14     -1.22      0.00
   -2   -3   14      0.48      0.00
   -1   -3   14     -0.59      0.00
    0   -3   14      0.06      0.00
    1   -3   14     -0.20      0.00
    2   -3   14      0.01      0.00
    3   -3   14      0.03      0.00
    4   -3   14      0.38      0.00
    5   -3   14     -0.06      0.00
    6   -3   14      0.47      0.00
    7   -3   14      0.72      0.00
    8   -3   14     -0.26      0.00
    9   -3   14      0.54      0.00
   10   -3   14     -0.67      0.00
  -17   -2   14      0.15      0.00
  -16   -2   14     -1.00      0.00
  -15   -2   14      0.12      0.00
  -14   -2   14      0.14      0.00
  -13   -2   14      0.47      0.00
  -12   -2   14     -0.34      0.00
  -11   -2   14     -0.15      0.00
  -10   -2   14      0.21      0.00
   -9   -2   14     -0.20      0.00
   -8   -2   14     -0.85      0.00
   -7   -2   14      0.10      0.00
   -6   -2   14      0.35      0.00
   -5   -2   14      0.04      0.00
   -4   -2   14     -0.69      0.00
   -3   -2   14      0.08      0.00
   -2   -2   14     -0.08      0.00
   -1   -2   14     -0.09      0.00
    0   -2   14      0.41      0.00
    1   -2   14      0.01      0.00
    2   -2   14     -0.19      0.00
    3   -2   14      0.98      0.00
    4   -2   14     -1.52      0.00
    5   -2   14      0.26      0.00
    6   -2   14     -0.09      0.00
    7   -2   14      0.49      0.00
    8   -2   14      0.26      0.00
    9   -2   14     -0.23      0.00
   10   -2   14      0.27      0.00
  -17   -1   14     -0.19      0.00
  -16   -1   14     -0.26      0.00
  -15   -1   14     -0.51      0.00
  -14   -1   14     -0.51      0.00
  -13   -1   14      0.29      0.00
  -12   -1   14      0.31      0.00
  -11   -1   14     -0.26      0.00
  -10   -1   14      1.05      0.00
   -9   -1   14      0.55      0.00
   -8   -1   14     -0.33      0.00
   -7   -1   14      0.85      0.00
   -6   -1   14     -0.05      0.00
   -5   -1   14      0.97      0.00
   -4   -1   14     -0.13      0.00
   -3   -1   14     -0.36      0.00
   -2   -1   14     -0.15      0.00
   -1   -1   14     -0.19      0.00
    0   -1   14     -0.45      0.00
    1   -1   14      0.15      0.00
    2   -1   14     -1.12      0.00
    3   -1   14      0.38      0.00
    4   -1   14      0.29      0.00
    5   -1   14     -0.51      0.00
    6   -1   14      1.24      0.00
    7   -1   14     -0.17      0.00
    8   -1   14      0.17      0.00
    9   -1   14     -0.28      0.00
  -17    0   14     -0.37      0.00
  -16    0   14     -0.12      0.00
  -15    0   14      0.70      0.00
  -14    0   14      0.21      0.00
  -13    0   14      0.09      0.00
  -12    0   14      0.76      0.00
  -11    0   14     -0.19      0.00
  -10    0   14     -0.07      0.00
   -9    0   14      0.99      0.00
   -8    0   14     -1.56      0.00
   -7    0   14      1.10      0.00
   -6    0   14      0.07      0.00
   -5    0   14     -0.79      0.00
   -4    0   14      0.45      0.00
   -3    0   14     -0.21      0.00
   -2    0   14     -0.43      0.00
   -1    0   14      1.03      0.00
    0    0   14     -0.46      0.00
    1    0   14      1.11      0.00
    2    0   14      1.21      0.00
    3    0   14     -0.64      0.00
    4    0   14     -0.05      0.00
    5    0   14     -0.59      0.00
    6    0   14      0.54      0.00
    7    0   14      0.02      0.00
    8    0   14      0.20      0.00
    9    0   14      0.35      0.00
  -17    1   14      0.15      0.00
  -16    1   14     -1.00      0.00
  -15    1   14     -0.21      0.00
  -14    1   14      0.02      0.00
  -13    1   14     -0.34      0.00
  -12    1   14     -0.23      0.00
  -11    1   14      0.22      0.00
  -10    1   14     -0.64      0.00
   -9    1   14      1.71      0.00
   -8    1   14     -1.06      0.00
   -7    1   14      0.55      0.00
   -6    1   14      0.81      0.00
   -5    1   14     -0.94      0.00
   -4    1   14      0.32      0.00
   -3    1   14      0.10      0.00
   -2    1   14     -1.12      0.00
   -1    1   14      1.29      0.00
    0    1   14     -0.46      0.00
    1    1   14     -0.48      0.00
    2    1   14      0.17      0.00
    3    1   14     -0.07      0.00
    4    1   14     -0.34      0.00
    5    1   14      0.49      0.00
    6    1   14     -0.13      0.00
    7    1   14      0.44      0.00
    8    1   14     -0.15      0.00
  -17    2   14      0.21      0.00
  -16    2   14      0.88      0.00
  -15    2   14     -0.13      0.00
  -14    2   14      0.16      0.00
  -13    2   14      0.57      0.00
  -12    2   14     -0.30      0.00
  -11    2   14      0.75      0.00
  -10    2   14     -1.09      0.00
   -9    2   14      0.60      0.00
   -8    2   14     -0.21      0.00
   -7    2   14     -0.72      0.00
   -6    2   14     -0.20      0.00
   -5    2   14     -1.18      0.00
   -4    2   14      0.15      0.00
   -3    2   14      0.95      0.00
   -2    2   14     -1.34      0.00
   -1    2   14      0.02      0.00
    0    2   14      0.49      0.00
    1    2   14      0.81      0.00
    2    2   14      0.75      0.00
    3    2   14     -0.29      0.00
    4    2   14     -0.66      0.00
    5    2   14      0.48      0.00
    6    2   14     -0.67      0.00
    7    2   14      0.61      0.00
  -17    3   14     -1.14      0.00
  -16    3   14      0.08      0.00
  -15    3   14     -0.24      0.00
  -14    3   14     -0.48      0.00
  -13    3   14      0.03      0.00
  -12    3   14     -0.87      0.00
  -11    3   14     -0.22      0.00
  -10    3   14     -0.51      0.00
   -9    3   14      0.22      0.00
   -8    3   14      1.90      0.00
   -7    3   14     -0.77      0.00
   -6    3   14      0.36      0.00
   -5    3   14     -1.33      0.00
   -4    3   14     -0.42      0.00
   -3    3   14      1.33      0.00
   -2    3   14      0.11      0.00
   -1    3   14     -0.01      0.00
    0    3   14     -0.95      0.00
    1    3   14      0.54      0.00
    2    3   14     -0.54      0.00
    3    3   14      0.46      0.00
    4    3   14     -0.92      0.00
    5    3   14      1.11      0.00
    6    3   14     -1.55      0.00
  -16    4   14      0.19      0.00
  -15    4   14     -0.03      0.00
  -14    4   14     -0.60      0.00
  -13    4   14      1.29      0.00
  -12    4   14     -0.12      0.00
  -11    4   14      0.46      0.00
  -10    4   14     -0.24      0.00
   -9    4   14     -0.86      0.00
   -8    4   14      1.95      0.00
   -7    4   14     -1.59      0.00
   -6    4   14     -0.59      0.00
   -5    4   14     -0.29      0.00
   -4    4   14     -0.27      0.00
   -2    4   14     -0.70      0.00
   -1    4   14      1.01      0.00
    0    4   14     -1.20      0.00
    1    4   14      1.10      0.00
    2    4   14      0.13      0.00
    3    4   14     -0.80      0.00
    4    4   14     -0.18      0.00
    6    4   14     -0.26      0.00
  -16    5   14      0.26      0.00
  -15    5   14     -0.26      0.00
  -14    5   14     -0.50      0.00
  -13    5   14      0.03      0.00
  -12    5   14      0.47      0.00
  -11    5   14     -0.86      0.00
  -10    5   14     -0.17      0.00
   -9    5   14     -0.80      0.00
   -8    5   14      2.69      0.00
   -7    5   14      0.50      0.00
   -6    5   14     -0.82      0.00
   -5    5   14      0.11      0.00
   -4    5   14     -0.88      0.00
   -3    5   14      1.91      0.00
   -1    5   14      0.20      0.00
    0    5   14     -0.78      0.00
    1    5   14     -0.16      0.00
    2    5   14      0.16      0.00
    3    5   14      0.01      0.00
    4    5   14     -0.24      0.00
  -15    6   14     -0.76      0.00
  -14    6   14     -0.22      0.00
  -13    6   14      0.68      0.00
  -12    6   14      0.21      0.00
  -11    6   14      0.42      0.00
  -10    6   14     -0.16      0.00
   -9    6   14     -0.02      0.00
   -8    6   14     -0.38      0.00
   -7    6   14      0.97      0.00
   -6    6   14     -0.63      0.00
   -5    6   14     -1.30      0.00
   -4    6   14     -0.15      0.00
   -3    6   14      1.00      0.00
   -2    6   14      0.62      0.00
   -1    6   14      0.83      0.00
    0    6   14     -0.85      0.00
    1    6   14      1.03      0.00
    2    6   14     -0.77      0.00
    3    6   14     -0.07      0.00
  -15    7   14     -0.32      0.00
  -14    7   14     -0.40      0.00
  -13    7   14      0.60      0.00
  -12    7   14      0.66      0.00
  -11    7   14     -0.17      0.00
  -10    7   14     -1.73      0.00
   -9    7   14      0.13      0.00
   -8    7   14      0.30      0.00
   -7    7   14      0.41      0.00
   -6    7   14      0.51      0.00
   -5    7   14     -0.35      0.00
   -4    7   14     -2.17      0.00
   -3    7   14      0.76      0.00
   -2    7   14     -0.27      0.00
   -1    7   14     -0.28      0.00
    0    7   14     -0.01      0.00
    1    7   14     -0.30      0.00
    2    7   14     -0.35      0.00
  -13    8   14     -0.47      0.00
  -12    8   14      1.09      0.00
  -11    8   14      0.77      0.00
  -10    8   14      0.82      0.00
   -9    8   14     -2.33      0.00
   -8    8   14     -0.36      0.00
   -7    8   14      0.91      0.00
   -6    8   14     -1.42      0.00
   -5    8   14      0.30      0.00
   -4    8   14     -1.57      0.00
   -3    8   14      1.02      0.00
   -2    8   14      0.29      0.00
   -1    8   14      0.26      0.00
    0    8   14     -0.52      0.00
  -12    9   14      0.62      0.00
  -11    9   14     -0.21      0.00
  -10    9   14      0.45      0.00
   -9    9   14     -1.17      0.00
   -8    9   14     -0.11      0.00
   -7    9   14      0.69      0.00
   -6    9   14      0.34      0.00
   -5    9   14     -0.64      0.00
   -4    9   14     -0.66      0.00
   -3    9   14     -0.24      0.00
   -2    9   14      0.35      0.00
   -9   10   14     -2.68      0.00
   -8   10   14     -1.16      0.00
   -7   10   14      0.48      0.00
   -6   10   14     -0.78      0.00
   -5   10   14      0.31      0.00
    1  -21   15      0.19      0.00
    2  -21   15      0.33      0.00
   -3  -20   15      0.23      0.00
   -2  -20   15      0.71      0.00
   -1  -20   15      0.45      0.00
    0  -20   15     -0.68      0.00
    1  -20   15     -0.23      0.00
    2  -20   15      2.17      0.00
    3  -20   15     -0.41      0.00
    4  -20   15      0.09      0.00
    5  -20   15      0.23      0.00
    6  -20   15     -0.83      0.00
   -5  -19   15     -0.20      0.00
   -4  -19   15      0.31      0.00
   -3  -19   15     -0.06      0.00
   -2  -19   15      0.04      0.00
   -1  -19   15     -0.47      0.00
    0  -19   15      0.32      0.00
    1  -19   15     -1.44      0.00
    2  -19   15     -0.19      0.00
    3  -19   15     -1.14      0.00
    4  -19   15     -0.66      0.00
    5  -19   15      1.42      0.00
    6  -19   15     -0.44      0.00
    7  -19   15     -0.01      0.00
   -7  -18   15      0.72      0.00
   -6  -18   15     -0.47      0.00
   -5  -18   15      0.42      0.00
   -4  -18   15     -0.74      0.00
   -3  -18   15      1.61      0.00
   -2  -18   15     -0.27      0.00
   -1  -18   15      0.37      0.00
    0  -18   15     -0.19      0.00
    1  -18   15     -0.05      0.00
    2  -18   15      1.07      0.00
    3  -18   15      0.54      0.00
    4  -18   15      0.14      0.00
    5  -18   15     -0.22      0.00
    6  -18   15      0.48      0.00
    7  -18   15     -0.06      0.00
    8  -18   15     -0.44      0.00
    9  -18   15     -0.09      0.00
   -8  -17   15     -0.13      0.00
   -7  -17   15     -0.93      0.00
   -6  -17   15      0.57      0.00
   -5  -17   15     -0.81      0.00
   -4  -17   15     -0.60      0.00
   -3  -17   15     -0.45      0.00
   -2  -17   15      0.06      0.00
   -1  -17   15     -0.25      0.00
    0  -17   15     -0.50      0.00
    1  -17   15     -1.10      0.00
    2  -17   15      0.64      0.00
    3  -17   15     -1.48      0.00
    4  -17   15      1.76      0.00
    5  -17   15      0.05      0.00
    6  -17   15     -0.25      0.00
    7  -17   15     -0.24      0.00
    8  -17   15     -0.19      0.00
    9  -17   15     -0.45      0.00
  -10  -16   15     -2.49      0.00
   -9  -16   15      0.58      0.00
   -8  -16   15     -0.43      0.00
   -7  -16   15      0.18      0.00
   -6  -16   15     -0.58      0.00
   -5  -16   15     -0.66      0.00
   -4  -16   15     -0.28      0.00
   -3  -16   15      0.46      0.00
   -2  -16   15     -0.48      0.00
    0  -16   15     -0.22      0.00
    1  -16   15     -0.83      0.00
    2  -16   15      2.21      0.00
    3  -16   15     -1.54      0.00
    4  -16   15      0.49      0.00
    5  -16   15      0.64      0.00
    6  -16   15     -0.59      0.00
    7  -16   15     -0.34      0.00
    8  -16   15      0.13      0.00
    9  -16   15      0.05      0.00
   10  -16   15      0.63      0.00
  -11  -15   15     -0.39      0.00
  -10  -15   15      0.35      0.00
   -9  -15   15     -0.88      0.00
   -8  -15   15      0.35      0.00
   -7  -15   15     -0.12      0.00
   -6  -15   15      1.20      0.00
   -5  -15   15     -0.92      0.00
   -4  -15   15      0.92      0.00
   -3  -15   15     -1.21      0.00
   -2  -15   15     -1.08      0.00
   -1  -15   15     -1.09      0.00
    0  -15   15      0.55      0.00
    1  -15   15     -0.82      0.00
    2  -15   15      0.91      0.00
    3  -15   15     -0.02      0.00
    4  -15   15      0.53      0.00
    5  -15   15      1.06      0.00
    6  -15   15     -0.21      0.00
    7  -15   15     -1.22      0.00
    8  -15   15      0.20      0.00
    9  -15   15     -0.04      0.00
   10  -15   15     -0.26      0.00
  -12  -14   15      0.43      0.00
  -11  -14   15      0.04      0.00
  -10  -14   15     -1.80      0.00
   -9  -14   15      1.30      0.00
   -8  -14   15     -0.71      0.00
   -7  -14   15      0.01      0.00
   -6  -14   15      0.83      0.00
   -5  -14   15     -1.87      0.00
   -4  -14   15      0.31      0.00
   -3  -14   15      0.33      0.00
   -2  -14   15     -1.48      0.00
   -1  -14   15      2.76      0.00
    0  -14   15     -2.03      0.00
    1  -14   15      2.07      0.00
    2  -14   15      0.09      0.00
    4  -14   15     -1.08      0.00
    5  -14   15      0.78      0.00
    6  -14   15      0.04      0.00
    7  -14   15     -0.71      0.00
    8  -14   15     -0.81      0.00
    9  -14   15      1.42      0.00
   10  -14   15     -0.45      0.00
   11  -14   15      0.77      0.00
  -12  -13   15      0.12      0.00
  -11  -13   15      0.46      0.00
  -10  -13   15     -0.99      0.00
   -9  -13   15     -0.32      0.00
   -8  -13   15      1.61      0.00
   -7  -13   15     -0.91      0.00
   -6  -13   15      1.51      0.00
   -5  -13   15      2.25      0.00
   -4  -13   15     -2.68      0.00
   -2  -13   15     -4.23      0.00
    0  -13   15      0.26      0.00
    1  -13   15      0.12      0.00
    2  -13   15     -0.75      0.00
    3  -13   15      1.45      0.00
    4  -13   15      0.29      0.00
    5  -13   15      0.46      0.00
    6  -13   15      0.38      0.00
    7  -13   15     -0.06      0.00
    8  -13   15     -0.49      0.00
    9  -13   15     -0.26      0.00
   10  -13   15      0.75      0.00
   11  -13   15     -1.66      0.00
  -13  -12   15     -0.17      0.00
  -12  -12   15      0.70      0.00
  -11  -12   15      0.41      0.00
  -10  -12   15     -0.15      0.00
   -9  -12   15     -0.58      0.00
   -8  -12   15      1.93      0.00
   -7  -12   15     -0.27      0.00
   -6  -12   15     -1.01      0.00
   -5  -12   15      1.23      0.00
   -4  -12   15     -0.12      0.00
   -3  -12   15     -0.55      0.00
   -2  -12   15      0.64      0.00
   -1  -12   15     -1.70      0.00
    0  -12   15     -0.98      0.00
    1  -12   15      3.25      0.00
    2  -12   15     -1.15      0.00
    3  -12   15     -0.14      0.00
    4  -12   15      0.52      0.00
    5  -12   15     -0.02      0.00
    6  -12   15      0.15      0.00
    7  -12   15     -0.79      0.00
    8  -12   15      0.05      0.00
    9  -12   15     -0.36      0.00
   10  -12   15      0.15      0.00
   11  -12   15      0.76      0.00
  -14  -11   15     -0.74      0.00
  -13  -11   15      0.61      0.00
  -12  -11   15     -0.39      0.00
  -11  -11   15      0.13      0.00
  -10  -11   15      0.20      0.00
   -9  -11   15     -1.14      0.00
   -8  -11   15      0.93      0.00
   -7  -11   15      0.96      0.00
   -6  -11   15     -0.42      0.00
   -5  -11   15      0.65      0.00
   -3  -11   15      1.58      0.00
   -2  -11   15     -2.56      0.00
   -1  -11   15      3.75      0.00
    0  -11   15     -2.53      0.00
    1  -11   15      0.02      0.00
    2  -11   15      0.40      0.00
    3  -11   15     -0.22      0.00
    4  -11   15      1.49      0.00
    5  -11   15      0.09      0.00
    6  -11   15      0.62      0.00
    7  -11   15     -0.49      0.00
    8  -11   15     -0.55      0.00
    9  -11   15     -0.52      0.00
   10  -11   15     -0.33      0.00
  -14  -10   15     -0.81      0.00
  -13  -10   15      0.54      0.00
  -12  -10   15      1.08      0.00
  -11  -10   15     -0.26      0.00
  -10  -10   15      0.42      0.00
   -9  -10   15      0.15      0.00
   -8  -10   15      0.02      0.00
   -7  -10   15      0.15      0.00
   -6  -10   15      0.16      0.00
   -5  -10   15     -0.01      0.00
   -3  -10   15      0.07      0.00
   -2  -10   15     -1.34      0.00
    0  -10   15      0.88      0.00
    1  -10   15     -0.76      0.00
    2  -10   15      0.51      0.00
    3  -10   15     -0.79      0.00
    4  -10   15      1.81      0.00
    5  -10   15     -0.67      0.00
    6  -10   15      0.04      0.00
    7  -10   15      0.17      0.00
    8  -10   15      0.25      0.00
    9  -10   15     -0.51      0.00
   10  -10   15      0.46      0.00
   11  -10   15      0.43      0.00
  -15   -9   15      0.07      0.00
  -14   -9   15     -0.08      0.00
  -13   -9   15     -0.11      0.00
  -12   -9   15      0.20      0.00
  -11   -9   15     -0.07      0.00
  -10   -9   15     -0.56      0.00
   -9   -9   15     -0.55      0.00
   -8   -9   15      0.20      0.00
   -7   -9   15     -0.37      0.00
   -6   -9   15     -0.11      0.00
   -5   -9   15     -0.57      0.00
   -3   -9   15      1.03      0.00
   -2   -9   15     -0.08      0.00
   -1   -9   15      1.46      0.00
    0   -9   15     -0.38      0.00
    1   -9   15     -0.78      0.00
    2   -9   15      0.42      0.00
    3   -9   15      0.31      0.00
    4   -9   15      1.79      0.00
    5   -9   15      1.08      0.00
    6   -9   15     -0.20      0.00
    7   -9   15     -0.35      0.00
    8   -9   15      0.27      0.00
    9   -9   15     -0.69      0.00
   10   -9   15     -0.25      0.00
   11   -9   15      0.73      0.00
  -15   -8   15     -1.98      0.00
  -14   -8   15      0.56      0.00
  -13   -8   15      0.41      0.00
  -12   -8   15      0.34      0.00
  -11   -8   15      0.03      0.00
  -10   -8   15      0.38      0.00
   -9   -8   15     -0.10      0.00
   -8   -8   15     -0.19      0.00
   -7   -8   15      1.32      0.00
   -6   -8   15     -0.15      0.00
   -5   -8   15      1.33      0.00
   -4   -8   15     -2.04      0.00
   -3   -8   15      1.44      0.00
   -2   -8   15     -0.23      0.00
   -1   -8   15     -0.52      0.00
    1   -8   15      0.61      0.00
    2   -8   15     -1.11      0.00
    3   -8   15      0.97      0.00
    4   -8   15      0.31      0.00
    5   -8   15     -0.01      0.00
    6   -8   15     -0.19      0.00
    7   -8   15     -0.15      0.00
    8   -8   15     -0.44      0.00
    9   -8   15     -0.11      0.00
   10   -8   15     -0.76      0.00
   11   -8   15      0.83      0.00
  -16   -7   15      0.21      0.00
  -15   -7   15      0.24      0.00
  -14   -7   15     -0.87      0.00
  -13   -7   15      0.88      0.00
  -12   -7   15      0.31      0.00
  -11   -7   15     -0.85      0.00
  -10   -7   15      0.30      0.00
   -9   -7   15     -0.59      0.00
   -8   -7   15     -0.41      0.00
   -7   -7   15     -0.38      0.00
   -6   -7   15      0.64      0.00
   -5   -7   15      0.01      0.00
   -4   -7   15     -1.53      0.00
   -3   -7   15     -0.89      0.00
   -1   -7   15     -0.01      0.00
    0   -7   15     -0.53      0.00
    1   -7   15      0.07      0.00
    2   -7   15     -0.97      0.00
    3   -7   15     -0.48      0.00
    4   -7   15      1.39      0.00
    5   -7   15     -0.45      0.00
    6   -7   15     -0.48      0.00
    7   -7   15     -0.79      0.00
    8   -7   15     -0.42      0.00
    9   -7   15     -0.37      0.00
   10   -7   15     -0.31      0.00
   11   -7   15      0.35      0.00
  -16   -6   15      0.03      0.00
  -15   -6   15     -0.87      0.00
  -14   -6   15     -0.03      0.00
  -13   -6   15     -0.17      0.00
  -12   -6   15      0.07      0.00
  -11   -6   15     -0.14      0.00
  -10   -6   15     -0.64      0.00
   -9   -6   15      0.32      0.00
   -8   -6   15      0.32      0.00
   -7   -6   15      0.28      0.00
   -6   -6   15     -0.10      0.00
   -5   -6   15     -0.28      0.00
   -4   -6   15      1.00      0.00
   -3   -6   15     -0.64      0.00
   -2   -6   15     -0.07      0.00
   -1   -6   15      1.11      0.00
    0   -6   15     -0.59      0.00
    1   -6   15      0.14      0.00
    2   -6   15     -1.00      0.00
    3   -6   15     -0.53      0.00
    4   -6   15     -0.20      0.00
    5   -6   15      0.33      0.00
    6   -6   15     -0.82      0.00
    7   -6   15     -0.51      0.00
    8   -6   15     -0.66      0.00
    9   -6   15     -0.02      0.00
   10   -6   15     -0.14      0.00
  -16   -5   15      0.50      0.00
  -15   -5   15     -0.71      0.00
  -14   -5   15      0.07      0.00
  -13   -5   15      0.18      0.00
  -12   -5   15      0.29      0.00
  -11   -5   15     -0.28      0.00
  -10   -5   15      0.27      0.00
   -9   -5   15     -0.82      0.00
   -8   -5   15     -0.54      0.00
   -7   -5   15      0.34      0.00
   -6   -5   15      0.97      0.00
   -5   -5   15     -2.24      0.00
   -4   -5   15     -0.41      0.00
   -2   -5   15     -0.85      0.00
   -1   -5   15      1.23      0.00
    0   -5   15     -0.81      0.00
    1   -5   15     -0.29      0.00
    2   -5   15     -0.67      0.00
    3   -5   15     -0.09      0.00
    4   -5   15      0.76      0.00
    5   -5   15      0.20      0.00
    6   -5   15      0.15      0.00
    7   -5   15     -0.31      0.00
    8   -5   15      0.18      0.00
    9   -5   15      0.47      0.00
   10   -5   15      1.06      0.00
  -16   -4   15      0.34      0.00
  -15   -4   15     -0.47      0.00
  -14   -4   15      0.02      0.00
  -13   -4   15     -0.15      0.00
  -12   -4   15      0.23      0.00
  -11   -4   15     -0.54      0.00
  -10   -4   15     -0.67      0.00
   -9   -4   15      0.81      0.00
   -8   -4   15     -0.67      0.00
   -7   -4   15     -1.51      0.00
   -6   -4   15      0.88      0.00
   -5   -4   15     -0.38      0.00
   -4   -4   15     -0.35      0.00
   -3   -4   15      0.38      0.00
   -2   -4   15     -0.36      0.00
   -1   -4   15      0.62      0.00
    0   -4   15      0.00      0.00
    1   -4   15      0.26      0.00
    2   -4   15     -0.71      0.00
    3   -4   15      0.11      0.00
    4   -4   15      0.24      0.00
    5   -4   15      0.51      0.00
    6   -4   15     -0.63      0.00
    7   -4   15      0.13      0.00
    8   -4   15      0.35      0.00
    9   -4   15     -0.04      0.00
   10   -4   15      0.70      0.00
  -17   -3   15     -0.38      0.00
  -16   -3   15      0.18      0.00
  -15   -3   15     -0.53      0.00
  -14   -3   15     -0.22      0.00
  -13   -3   15     -0.32      0.00
  -12   -3   15      0.58      0.00
  -11   -3   15      0.96      0.00
  -10   -3   15     -0.51      0.00
   -9   -3   15      0.38      0.00
   -8   -3   15      0.85      0.00
   -7   -3   15      0.07      0.00
   -6   -3   15     -0.35      0.00
   -5   -3   15     -0.27      0.00
   -4   -3   15      0.77      0.00
   -3   -3   15     -0.44      0.00
   -2   -3   15     -0.07      0.00
   -1   -3   15      0.35      0.00
    0   -3   15     -0.81      0.00
    1   -3   15      0.28      0.00
    2   -3   15     -0.09      0.00
    3   -3   15     -0.90      0.00
    4   -3   15      2.01      0.00
    5   -3   15     -0.29      0.00
    6   -3   15     -0.15      0.00
    7   -3   15     -0.39      0.00
    8   -3   15      0.06      0.00
    9   -3   15      0.60      0.00
  -17   -2   15      0.28      0.00
  -16   -2   15      0.01      0.00
  -15   -2   15      0.03      0.00
  -14   -2   15      0.49      0.00
  -13   -2   15      0.06      0.00
  -12   -2   15      0.01      0.00
  -11   -2   15      0.78      0.00
  -10   -2   15     -0.08      0.00
   -9   -2   15     -0.24      0.00
   -8   -2   15      0.12      0.00
   -7   -2   15     -0.90      0.00
   -6   -2   15      0.69      0.00
   -5   -2   15     -0.30      0.00
   -4   -2   15      0.23      0.00
   -3   -2   15      0.57      0.00
   -2   -2   15     -0.61      0.00
   -1   -2   15      0.58      0.00
    0   -2   15      0.16      0.00
    1   -2   15      0.04      0.00
    2   -2   15      1.03      0.00
    3   -2   15     -0.60      0.00
    4   -2   15      0.21      0.00
    5   -2   15      0.18      0.00
    6   -2   15     -1.42      0.00
    7   -2   15      0.58      0.00
    8   -2   15     -0.38      0.00
    9   -2   15      0.34      0.00
  -17   -1   15      0.31      0.00
  -16   -1   15      0.47      0.00
  -15   -1   15     -0.79      0.00
  -14   -1   15     -0.09      0.00
  -13   -1   15      0.27      0.00
  -12   -1   15     -0.14      0.00
  -11   -1   15      0.56      0.00
  -10   -1   15      0.70      0.00
   -9   -1   15     -0.37      0.00
   -8   -1   15      1.76      0.00
   -7   -1   15     -1.14      0.00
   -6   -1   15      0.92      0.00
   -5   -1   15      1.18      0.00
   -4   -1   15     -0.22      0.00
   -3   -1   15      0.39      0.00
   -2   -1   15      0.13      0.00
   -1   -1   15     -0.85      0.00
    0   -1   15      0.61      0.00
    1   -1   15     -0.54      0.00
    2   -1   15     -0.62      0.00
    3   -1   15      0.26      0.00
    4   -1   15      0.84      0.00
    5   -1   15      0.51      0.00
    6   -1   15     -1.29      0.00
    7   -1   15      0.80      0.00
    8   -1   15      0.10      0.00
  -17    0   15     -0.21      0.00
  -16    0   15      1.17      0.00
  -15    0   15      0.32      0.00
  -14    0   15     -0.08      0.00
  -13    0   15      0.71      0.00
  -12    0   15      0.00      0.00
  -11    0   15      0.13      0.00
  -10    0   15      0.39      0.00
   -9    0   15     -1.64      0.00
   -8    0   15      1.28      0.00
   -7    0   15     -1.53      0.00
   -6    0   15     -0.21      0.00
   -5    0   15      1.22      0.00
   -4    0   15     -1.11      0.00
   -3    0   15      1.09      0.00
   -2    0   15     -0.05      0.00
   -1    0   15     -0.84      0.00
    0    0   15      0.58      0.00
    1    0   15      1.18      0.00
    2    0   15      0.44      0.00
    3    0   15      0.28      0.00
    4    0   15      0.42      0.00
    5    0   15      0.10      0.00
    6    0   15     -0.82      0.00
    7    0   15     -0.07      0.00
    8    0   15      0.24      0.00
  -17    1   15      0.03      0.00
  -16    1   15     -0.36      0.00
  -15    1   15      0.22      0.00
  -14    1   15     -0.33      0.00
  -13    1   15     -0.24      0.00
  -12    1   15     -0.25      0.00
  -11    1   15     -1.05      0.00
  -10    1   15      1.05      0.00
   -9    1   15     -1.06      0.00
   -8    1   15      0.59      0.00
   -7    1   15      0.14      0.00
   -6    1   15     -0.13      0.00
   -5    1   15      1.42      0.00
   -4    1   15     -1.51      0.00
   -3    1   15      0.66      0.00
   -2    1   15      1.20      0.00
   -1    1   15     -0.34      0.00
    0    1   15     -0.25      0.00
    1    1   15     -0.31      0.00
    2    1   15     -0.60      0.00
    3    1   15      0.08      0.00
    4    1   15      0.57      0.00
    5    1   15      0.03      0.00
    6    1   15     -0.38      0.00
    7    1   15      0.07      0.00
  -16    2   15      0.43      0.00
  -15    2   15      0.32      0.00
  -14    2   15     -0.08      0.00
  -13    2   15      0.02      0.00
  -12    2   15      0.61      0.00
  -11    2   15     -0.23      0.00
  -10    2   15     -0.29      0.00
   -9    2   15     -0.72      0.00
   -8    2   15     -1.44      0.00
   -7    2   15      0.15      0.00
   -6    2   15     -0.75      0.00
   -5    2   15      1.46      0.00
   -4    2   15     -1.28      0.00
   -3    2   15      0.20      0.00
   -2    2   15     -0.53      0.00
   -1    2   15     -0.17      0.00
    0    2   15     -0.03      0.00
    1    2   15     -0.11      0.00
    2    2   15      0.50      0.00
    3    2   15     -0.17      0.00
    4    2   15      0.50      0.00
    5    2   15     -0.45      0.00
    6    2   15      0.70      0.00
  -16    3   15     -0.16      0.00
  -15    3   15      0.44      0.00
  -14    3   15     -0.05      0.00
  -13    3   15     -1.13      0.00
  -12    3   15      0.00      0.00
  -11    3   15     -0.66      0.00
  -10    3   15      0.47      0.00
   -9    3   15     -0.30      0.00
   -8    3   15     -0.82      0.00
   -7    3   15      1.95      0.00
   -6    3   15      0.12      0.00
   -5    3   15      0.66      0.00
   -4    3   15     -0.93      0.00
   -3    3   15      0.16      0.00
   -2    3   15      0.97      0.00
   -1    3   15     -0.68      0.00
    0    3   15      0.50      0.00
    1    3   15     -0.92      0.00
    2    3   15     -0.29      0.00
    3    3   15      0.16      0.00
    4    3   15     -0.20      0.00
    5    3   15     -0.60      0.00
  -16    4   15     -0.34      0.00
  -15    4   15      0.22      0.00
  -14    4   15      0.27      0.00
  -13    4   15     -0.59      0.00
  -12    4   15      0.88      0.00
  -11    4   15      0.62      0.00
  -10    4   15      0.00      0.00
   -9    4   15      0.21      0.00
   -8    4   15     -2.66      0.00
   -7    4   15      1.86      0.00
   -6    4   15      0.58      0.00
   -5    4   15      1.35      0.00
   -4    4   15     -0.58      0.00
   -3    4   15     -0.44      0.00
   -2    4   15      0.35      0.00
   -1    4   15      0.07      0.00
    0    4   15     -0.10      0.00
    1    4   15     -0.09      0.00
    2    4   15      0.05      0.00
    3    4   15     -0.18      0.00
    4    4   15      0.10      0.00
  -15    5   15      0.28      0.00
  -14    5   15      0.39      0.00
  -13    5   15     -1.17      0.00
  -12    5   15      0.04      0.00
  -11    5   15      0.60      0.00
  -10    5   15     -0.23      0.00
   -9    5   15     -0.52      0.00
   -8    5   15      0.03      0.00
   -7    5   15      1.38      0.00
   -6    5   15      1.14      0.00
   -5    5   15      1.56      0.00
   -4    5   15     -0.38      0.00
   -3    5   15     -1.57      0.00
   -2    5   15     -0.31      0.00
   -1    5   15     -0.65      0.00
    0    5   15      1.03      0.00
    1    5   15     -0.98      0.00
    2    5   15      0.63      0.00
    3    5   15     -0.10      0.00
  -14    6   15     -0.08      0.00
  -13    6   15     -0.39      0.00
  -12    6   15     -0.08      0.00
  -11    6   15      0.92      0.00
  -10    6   15      1.67      0.00
   -9    6   15     -1.05      0.00
   -8    6   15     -0.58      0.00
   -7    6   15      0.67      0.00
   -6    6   15      0.72      0.00
   -5    6   15     -0.75      0.00
   -4    6   15      2.09      0.00
   -3    6   15     -1.50      0.00
   -2    6   15      0.33      0.00
   -1    6   15     -0.03      0.00
    0    6   15     -0.15      0.00
    1    6   15      0.34      0.00
  -13    7   15     -0.37      0.00
  -12    7   15     -0.10      0.00
  -11    7   15     -0.10      0.00
  -10    7   15     -0.68      0.00
   -8    7   15     -0.34      0.00
   -7    7   15     -0.78      0.00
   -6    7   15      2.58      0.00
   -5    7   15     -0.93      0.00
   -4    7   15      0.85      0.00
   -3    7   15     -1.86      0.00
   -2    7   15     -1.48      0.00
   -1    7   15     -0.02      0.00
    0    7   15      0.54      0.00
  -12    8   15      0.31      0.00
  -11    8   15      1.02      0.00
  -10    8   15      0.03      0.00
   -9    8   15      1.06      0.00
   -8    8   15     -0.44      0.00
   -7    8   15     -1.14      0.00
   -6    8   15      0.21      0.00
   -5    8   15      0.00      0.00
   -4    8   15      0.51      0.00
   -3    8   15      1.02      0.00
   -2    8   15     -1.33      0.00
   -8    9   15      1.14      0.00
   -7    9   15     -2.57      0.00
   -6    9   15      2.23      0.00
   -2  -20   16      0.93      0.00
   -1  -20   16      0.81      0.00
    0  -20   16      0.00      0.00
    1  -20   16      0.75      0.00
    2  -20   16      0.26      0.00
    3  -20   16      0.79      0.00
    4  -20   16     -0.06      0.00
   -5  -19   16     -0.39      0.00
   -4  -19   16      0.16      0.00
   -3  -19   16     -1.59      0.00
   -2  -19   16      0.50      0.00
   -1  -19   16     -0.03      0.00
    0  -19   16      0.54      0.00
    1  -19   16     -0.81      0.00
    2  -19   16     -0.02      0.00
    3  -19   16     -0.69      0.00
    4  -19   16     -0.16      0.00
    5  -19   16      0.48      0.00
    6  -19   16     -0.03      0.00
   -7  -18   16      1.30      0.00
   -6  -18   16     -1.11      0.00
   -5  -18   16     -0.14      0.00
   -4  -18   16      0.34      0.00
   -3  -18   16     -1.19      0.00
   -2  -18   16      0.39      0.00
   -1  -18   16      0.47      0.00
    0  -18   16      0.40      0.00
    1  -18   16      0.35      0.00
    2  -18   16     -0.31      0.00
    3  -18   16      0.02      0.00
    4  -18   16     -0.89      0.00
    5  -18   16      0.64      0.00
    6  -18   16      0.11      0.00
    7  -18   16      0.49      0.00
   -8  -17   16     -0.74      0.00
   -7  -17   16      0.00      0.00
   -6  -17   16      0.32      0.00
   -5  -17   16     -0.06      0.00
   -4  -17   16     -0.44      0.00
   -3  -17   16     -0.49      0.00
   -2  -17   16     -0.56      0.00
   -1  -17   16     -1.13      0.00
    0  -17   16      1.10      0.00
    1  -17   16     -0.33      0.00
    2  -17   16      0.48      0.00
    3  -17   16     -0.52      0.00
    4  -17   16     -0.15      0.00
    5  -17   16      0.56      0.00
    6  -17   16      0.40      0.00
    7  -17   16      0.07      0.00
    8  -17   16     -0.58      0.00
   -9  -16   16      0.53      0.00
   -8  -16   16     -0.46      0.00
   -7  -16   16     -0.05      0.00
   -6  -16   16     -0.98      0.00
   -5  -16   16      1.15      0.00
   -4  -16   16     -0.80      0.00
   -3  -16   16      0.87      0.00
   -2  -16   16      0.75      0.00
   -1  -16   16     -0.38      0.00
    0  -16   16      1.30      0.00
    1  -16   16     -0.29      0.00
    2  -16   16     -0.24      0.00
    3  -16   16     -0.44      0.00
    4  -16   16     -1.63      0.00
    5  -16   16      0.37      0.00
    6  -16   16      0.21      0.00
    7  -16   16      0.89      0.00
    8  -16   16     -0.03      0.00
    9  -16   16      0.06      0.00
  -10  -15   16      0.60      0.00
   -9  -15   16     -0.95      0.00
   -8  -15   16      0.40      0.00
   -7  -15   16      0.09      0.00
   -6  -15   16     -0.06      0.00
   -5  -15   16      1.44      0.00
   -4  -15   16     -0.11      0.00
   -3  -15   16     -0.79      0.00
   -2  -15   16      0.86      0.00
   -1  -15   16     -3.30      0.00
    0  -15   16      2.05      0.00
    1  -15   16     -0.65      0.00
    2  -15   16      0.16      0.00
    3  -15   16     -0.30      0.00
    4  -15   16      0.43      0.00
    5  -15   16     -0.51      0.00
    6  -15   16      0.65      0.00
    7  -15   16      0.16      0.00
    8  -15   16     -0.38      0.00
    9  -15   16     -0.51      0.00
  -11  -14   16      0.12      0.00
  -10  -14   16      0.30      0.00
   -9  -14   16      0.47      0.00
   -8  -14   16     -0.80      0.00
   -7  -14   16      0.36      0.00
   -6  -14   16      0.02      0.00
   -5  -14   16     -1.54      0.00
   -4  -14   16      3.13      0.00
   -3  -14   16     -2.59      0.00
   -2  -14   16      4.37      0.00
   -1  -14   16     -2.83      0.00
    0  -14   16      0.88      0.00
    1  -14   16     -0.34      0.00
    2  -14   16      0.37      0.00
    3  -14   16     -1.98      0.00
    4  -14   16     -0.64      0.00
    5  -14   16     -0.21      0.00
    6  -14   16      0.09      0.00
    7  -14   16      0.86      0.00
    8  -14   16     -0.37      0.00
    9  -14   16      0.56      0.00
   10  -14   16     -0.14      0.00
  -12  -13   16     -0.49      0.00
  -11  -13   16      0.26      0.00
  -10  -13   16      0.00      0.00
   -9  -13   16      0.76      0.00
   -8  -13   16     -0.59      0.00
   -7  -13   16      0.38      0.00
   -5  -13   16     -0.50      0.00
   -4  -13   16      1.12      0.00
   -3  -13   16     -1.01      0.00
   -2  -13   16      1.73      0.00
   -1  -13   16      0.21      0.00
    0  -13   16     -0.08      0.00
    1  -13   16     -1.11      0.00
    2  -13   16      0.25      0.00
    3  -13   16      0.32      0.00
    4  -13   16     -0.04      0.00
    5  -13   16      0.04      0.00
    6  -13   16      0.00      0.00
    7  -13   16      0.87      0.00
    8  -13   16     -0.76      0.00
    9  -13   16      0.21      0.00
   10  -13   16     -0.48      0.00
  -13  -12   16     -1.20      0.00
  -12  -12   16      0.60      0.00
  -11  -12   16      0.37      0.00
  -10  -12   16     -0.15      0.00
   -9  -12   16      0.99      0.00
   -8  -12   16     -0.38      0.00
   -7  -12   16     -0.28      0.00
   -6  -12   16      0.53      0.00
   -5  -12   16     -1.68      0.00
   -4  -12   16      3.54      0.00
   -3  -12   16     -3.28      0.00
   -2  -12   16      3.04      0.00
   -1  -12   16     -2.40      0.00
    0  -12   16      0.91      0.00
    1  -12   16     -0.39      0.00
    2  -12   16     -0.96      0.00
    3  -12   16     -0.86      0.00
    4  -12   16     -0.74      0.00
    5  -12   16      0.24      0.00
    6  -12   16     -0.71      0.00
    7  -12   16      0.65      0.00
    8  -12   16     -0.19      0.00
    9  -12   16      0.58      0.00
   10  -12   16      0.05      0.00
  -13  -11   16     -0.42      0.00
  -12  -11   16     -1.05      0.00
  -11  -11   16      0.83      0.00
  -10  -11   16     -0.04      0.00
   -9  -11   16     -0.22      0.00
   -8  -11   16      0.07      0.00
   -7  -11   16     -0.74      0.00
   -6  -11   16      0.47      0.00
   -5  -11   16     -1.51      0.00
   -4  -11   16      0.50      0.00
   -3  -11   16     -0.42      0.00
   -2  -11   16      1.09      0.00
   -1  -11   16      1.71      0.00
    0  -11   16     -1.83      0.00
    2  -11   16     -0.38      0.00
    3  -11   16      0.88      0.00
    4  -11   16     -0.91      0.00
    5  -11   16      1.30      0.00
    6  -11   16     -0.63      0.00
    7  -11   16      0.08      0.00
    8  -11   16     -0.44      0.00
    9  -11   16      0.41      0.00
   10  -11   16     -0.26      0.00
  -14  -10   16      0.17      0.00
  -13  -10   16      0.66      0.00
  -12  -10   16     -0.21      0.00
  -11  -10   16     -0.05      0.00
  -10  -10   16      0.54      0.00
   -9  -10   16      0.22      0.00
   -8  -10   16     -0.35      0.00
   -7  -10   16     -0.28      0.00
   -6  -10   16      0.14      0.00
   -5  -10   16     -0.38      0.00
   -3  -10   16     -2.82      0.00
   -2  -10   16      0.37      0.00
   -1  -10   16      0.29      0.00
    1  -10   16      0.70      0.00
    2  -10   16     -0.23      0.00
    3  -10   16      0.03      0.00
    4  -10   16     -1.14      0.00
    5  -10   16      0.09      0.00
    6  -10   16      0.43      0.00
    7  -10   16      0.19      0.00
    8  -10   16      0.32      0.00
    9  -10   16      0.97      0.00
   10  -10   16      0.14      0.00
  -14   -9   16     -0.53      0.00
  -13   -9   16      0.24      0.00
  -12   -9   16     -0.31      0.00
  -11   -9   16      0.35      0.00
  -10   -9   16     -0.31      0.00
   -9   -9   16     -0.09      0.00
   -8   -9   16      0.13      0.00
   -7   -9   16     -2.20      0.00
   -6   -9   16      1.04      0.00
   -4   -9   16      2.90      0.00
   -3   -9   16     -0.85      0.00
   -1   -9   16      2.74      0.00
    1   -9   16     -0.01      0.00
    2   -9   16      1.59      0.00
    3   -9   16     -0.46      0.00
    4   -9   16      0.18      0.00
    5   -9   16      0.45      0.00
    6   -9   16     -0.10      0.00
    7   -9   16     -0.11      0.00
    8   -9   16     -0.40      0.00
    9   -9   16      0.43      0.00
   10   -9   16      0.41      0.00
  -15   -8   16      0.21      0.00
  -14   -8   16      0.68      0.00
  -13   -8   16     -0.53      0.00
  -12   -8   16     -0.33      0.00
  -11   -8   16      0.21      0.00
  -10   -8   16      0.17      0.00
   -9   -8   16      0.28      0.00
   -8   -8   16      0.59      0.00
   -7   -8   16     -0.25      0.00
   -6   -8   16      0.80      0.00
   -5   -8   16     -0.07      0.00
   -3   -8   16      2.20      0.00
   -1   -8   16      1.55      0.00
    0   -8   16      1.37      0.00
    1   -8   16      0.00      0.00
    2   -8   16      0.87      0.00
    3   -8   16     -0.84      0.00
    4   -8   16     -2.16      0.00
    5   -8   16      0.29      0.00
    6   -8   16     -0.17      0.00
    7   -8   16     -0.19      0.00
    8   -8   16     -0.25      0.00
    9   -8   16     -0.45      0.00
   10   -8   16      0.10      0.00
  -15   -7   16      0.56      0.00
  -14   -7   16     -0.47      0.00
  -13   -7   16      0.04      0.00
  -12   -7   16     -0.05      0.00
  -11   -7   16     -0.28      0.00
  -10   -7   16      0.36      0.00
   -9   -7   16     -0.03      0.00
   -8   -7   16      0.03      0.00
   -7   -7   16     -1.54      0.00
   -6   -7   16      0.46      0.00
   -5   -7   16      0.80      0.00
   -4   -7   16     -0.86      0.00
   -3   -7   16      0.73      0.00
   -2   -7   16     -0.48      0.00
   -1   -7   16     -0.54      0.00
    0   -7   16      0.24      0.00
    1   -7   16     -0.74      0.00
    2   -7   16      0.16      0.00
    3   -7   16     -0.17      0.00
    4   -7   16     -1.46      0.00
    5   -7   16     -0.08      0.00
    6   -7   16      0.18      0.00
    7   -7   16     -0.31      0.00
    8   -7   16      0.12      0.00
    9   -7   16      0.07      0.00
   10   -7   16      0.38      0.00
  -16   -6   16     -0.35      0.00
  -15   -6   16      0.97      0.00
  -14   -6   16     -0.70      0.00
  -13   -6   16     -0.90      0.00
  -12   -6   16     -0.57      0.00
  -11   -6   16      0.17      0.00
  -10   -6   16     -0.52      0.00
   -9   -6   16      0.35      0.00
   -8   -6   16      1.17      0.00
   -7   -6   16     -0.88      0.00
   -6   -6   16     -0.76      0.00
   -5   -6   16      0.96      0.00
   -3   -6   16     -1.06      0.00
   -2   -6   16     -0.80      0.00
   -1   -6   16     -0.63      0.00
    0   -6   16      1.18      0.00
    1   -6   16     -0.36      0.00
    2   -6   16      0.19      0.00
    3   -6   16     -0.81      0.00
    4   -6   16     -1.13      0.00
    5   -6   16      0.16      0.00
    6   -6   16      0.55      0.00
    7   -6   16      0.27      0.00
    8   -6   16      0.21      0.00
    9   -6   16     -0.09      0.00
  -16   -5   16     -0.45      0.00
  -15   -5   16      0.53      0.00
  -14   -5   16     -0.45      0.00
  -13   -5   16     -0.27      0.00
  -12   -5   16     -0.58      0.00
  -11   -5   16      0.42      0.00
  -10   -5   16      0.72      0.00
   -9   -5   16     -1.01      0.00
   -8   -5   16      0.55      0.00
   -7   -5   16      0.31      0.00
   -6   -5   16     -0.41      0.00
   -5   -5   16     -0.39      0.00
   -4   -5   16     -0.25      0.00
   -3   -5   16      0.98      0.00
   -2   -5   16     -0.67      0.00
   -1   -5   16     -1.13      0.00
    0   -5   16      0.58      0.00
    1   -5   16     -0.42      0.00
    2   -5   16      0.66      0.00
    3   -5   16      0.13      0.00
    4   -5   16     -0.40      0.00
    5   -5   16      0.25      0.00
    6   -5   16      1.38      0.00
    7   -5   16     -0.12      0.00
    8   -5   16      0.69      0.00
    9   -5   16      0.71      0.00
  -16   -4   16      0.16      0.00
  -15   -4   16      0.43      0.00
  -14   -4   16     -0.36      0.00
  -13   -4   16     -0.68      0.00
  -12   -4   16     -0.22      0.00
  -11   -4   16     -0.73      0.00
  -10   -4   16      0.65      0.00
   -9   -4   16      0.06      0.00
   -8   -4   16     -0.27      0.00
   -7   -4   16     -1.24      0.00
   -6   -4   16      0.24      0.00
   -5   -4   16      0.68      0.00
   -4   -4   16     -0.42      0.00
   -3   -4   16      0.13      0.00
   -2   -4   16     -0.30      0.00
   -1   -4   16     -0.92      0.00
    0   -4   16      0.94      0.00
    1   -4   16     -0.01      0.00
    2   -4   16     -0.09      0.00
    3   -4   16      0.69      0.00
    4   -4   16     -1.33      0.00
    5   -4   16      0.49      0.00
    6   -4   16      0.72      0.00
    7   -4   16      0.35      0.00
    8   -4   16     -0.29      0.00
    9   -4   16     -0.34      0.00
  -16   -3   16     -0.20      0.00
  -15   -3   16      0.20      0.00
  -14   -3   16     -0.22      0.00
  -13   -3   16     -0.56      0.00
  -12   -3   16      0.32      0.00
  -11   -3   16      0.33      0.00
  -10   -3   16      0.30      0.00
   -9   -3   16      0.24      0.00
   -8   -3   16      1.24      0.00
   -7   -3   16      0.26      0.00
   -6   -3   16     -0.44      0.00
   -5   -3   16      0.28      0.00
   -4   -3   16      0.44      0.00
   -3   -3   16     -0.21      0.00
   -2   -3   16     -0.02      0.00
   -1   -3   16     -0.79      0.00
    0   -3   16      0.11      0.00
    1   -3   16      0.34      0.00
    2   -3   16     -0.53      0.00
    3   -3   16      0.55      0.00
    4   -3   16     -0.44      0.00
    5   -3   16      0.43      0.00
    6   -3   16      0.68      0.00
    7   -3   16     -0.62      0.00
    8   -3   16      0.15      0.00
  -16   -2   16      0.25      0.00
  -15   -2   16      0.26      0.00
  -14   -2   16      0.73      0.00
  -13   -2   16     -0.65      0.00
  -12   -2   16      0.53      0.00
  -11   -2   16      0.04      0.00
  -10   -2   16      0.43      0.00
   -9   -2   16      0.27      0.00
   -8   -2   16     -0.58      0.00
   -7   -2   16      0.66      0.00
   -6   -2   16     -0.82      0.00
   -5   -2   16     -0.67      0.00
   -4   -2   16      0.60      0.00
   -3   -2   16      0.05      0.00
   -2   -2   16     -0.41      0.00
   -1   -2   16      0.54      0.00
    0   -2   16     -0.30      0.00
    1   -2   16      0.68      0.00
    2   -2   16      0.49      0.00
    3   -2   16      0.14      0.00
    4   -2   16     -1.04      0.00
    5   -2   16      0.22      0.00
    6   -2   16      1.32      0.00
    7   -2   16     -1.24      0.00
    8   -2   16     -0.10      0.00
  -16   -1   16     -0.28      0.00
  -15   -1   16     -0.11      0.00
  -14   -1   16      0.67      0.00
  -13   -1   16     -0.78      0.00
  -12   -1   16      0.42      0.00
  -11   -1   16     -0.24      0.00
  -10   -1   16      0.06      0.00
   -9   -1   16      1.15      0.00
   -8   -1   16     -0.29      0.00
   -7   -1   16      1.46      0.00
   -6   -1   16     -0.15      0.00
   -5   -1   16     -0.77      0.00
   -4   -1   16      1.23      0.00
   -3   -1   16     -0.75      0.00
   -2   -1   16      0.17      0.00
   -1   -1   16      1.24      0.00
    0   -1   16     -0.17      0.00
    1   -1   16     -0.78      0.00
    2   -1   16      0.00      0.00
    3   -1   16     -0.20      0.00
    4   -1   16     -0.02      0.00
    5   -1   16      0.19      0.00
    6   -1   16      1.34      0.00
    7   -1   16     -0.58      0.00
  -16    0   16      0.41      0.00
  -15    0   16     -0.22      0.00
  -14    0   16      0.81      0.00
  -13    0   16     -0.39      0.00
  -12    0   16      0.15      0.00
  -11    0   16      0.43      0.00
  -10    0   16     -0.69      0.00
   -9    0   16      0.25      0.00
   -8    0   16     -0.08      0.00
   -7    0   16     -0.30      0.00
   -6    0   16     -0.80      0.00
   -5    0   16     -1.51      0.00
   -4    0   16      1.17      0.00
   -3    0   16     -0.56      0.00
   -2    0   16     -1.05      0.00
   -1    0   16      0.78      0.00
    0    0   16      0.63      0.00
    1    0   16      0.14      0.00
    2    0   16      0.52      0.00
    3    0   16      0.20      0.00
    4    0   16     -0.32      0.00
    5    0   16     -0.04      0.00
    6    0   16      1.19      0.00
  -16    1   16     -0.11      0.00
  -15    1   16     -0.20      0.00
  -14    1   16      0.20      0.00
  -13    1   16     -0.37      0.00
  -12    1   16     -0.87      0.00
  -11    1   16     -0.43      0.00
  -10    1   16      0.65      0.00
   -9    1   16     -0.33      0.00
   -8    1   16      0.54      0.00
   -7    1   16      0.42      0.00
   -6    1   16     -0.35      0.00
   -5    1   16     -1.01      0.00
   -4    1   16      0.67      0.00
   -3    1   16     -0.40      0.00
   -2    1   16      1.20      0.00
   -1    1   16      0.50      0.00
    0    1   16      0.22      0.00
    1    1   16     -0.60      0.00
    2    1   16     -0.41      0.00
    3    1   16     -0.93      0.00
    4    1   16      0.27      0.00
    5    1   16     -0.27      0.00
  -16    2   16     -0.08      0.00
  -15    2   16     -0.08      0.00
  -14    2   16     -0.12      0.00
  -13    2   16      0.38      0.00
  -12    2   16     -0.17      0.00
  -11    2   16      0.31      0.00
  -10    2   16     -0.52      0.00
   -9    2   16      0.52      0.00
   -8    2   16     -0.49      0.00
   -7    2   16     -1.17      0.00
   -6    2   16     -0.22      0.00
   -5    2   16      0.25      0.00
   -4    2   16      0.60      0.00
   -3    2   16     -1.29      0.00
   -2    2   16     -0.55      0.00
   -1    2   16      0.43      0.00
    0    2   16      0.00      0.00
    1    2   16     -0.16      0.00
    2    2   16      0.41      0.00
    3    2   16     -0.31      0.00
    4    2   16     -0.06      0.00
  -15    3   16      0.00      0.00
  -14    3   16     -0.44      0.00
  -13    3   16      0.26      0.00
  -12    3   16     -1.37      0.00
  -11    3   16      0.61      0.00
  -10    3   16      0.27      0.00
   -9    3   16     -0.23      0.00
   -8    3   16      1.99      0.00
   -7    3   16     -1.92      0.00
   -6    3   16      0.65      0.00
   -5    3   16     -0.59      0.00
   -4    3   16      1.71      0.00
   -3    3   16     -1.22      0.00
   -2    3   16      0.89      0.00
   -1    3   16     -0.34      0.00
    0    3   16      0.72      0.00
    1    3   16     -0.35      0.00
    2    3   16     -0.21      0.00
    3    3   16     -0.64      0.00
    4    3   16     -0.18      0.00
  -15    4   16      0.05      0.00
  -14    4   16     -0.28      0.00
  -13    4   16      0.85      0.00
  -12    4   16     -0.25      0.00
  -11    4   16      0.15      0.00
  -10    4   16      1.63      0.00
   -9    4   16      0.31      0.00
   -8    4   16      0.18      0.00
   -7    4   16     -1.12      0.00
   -6    4   16      0.17      0.00
   -5    4   16      0.07      0.00
   -4    4   16      1.06      0.00
   -3    4   16      0.42      0.00
   -2    4   16     -0.08      0.00
   -1    4   16      0.81      0.00
    0    4   16     -1.06      0.00
    1    4   16      0.61      0.00
    2    4   16      0.04      0.00
  -14    5   16      0.37      0.00
  -13    5   16     -0.04      0.00
  -12    5   16     -0.27      0.00
  -11    5   16     -0.53      0.00
  -10    5   16      0.13      0.00
   -9    5   16      1.00      0.00
   -8    5   16     -0.31      0.00
   -7    5   16     -0.95      0.00
   -6    5   16     -0.38      0.00
   -5    5   16      1.19      0.00
   -4    5   16     -1.54      0.00
   -3    5   16      0.44      0.00
   -2    5   16     -1.08      0.00
   -1    5   16      0.47      0.00
    0    5   16      0.20      0.00
    1    5   16     -0.45      0.00
  -13    6   16      0.49      0.00
  -12    6   16     -0.65      0.00
  -11    6   16      0.26      0.00
  -10    6   16      1.59      0.00
   -9    6   16      0.51      0.00
   -8    6   16     -0.47      0.00
   -7    6   16     -0.48      0.00
   -5    6   16      0.55      0.00
   -4    6   16     -0.49      0.00
   -3    6   16      1.45      0.00
   -2    6   16      0.89      0.00
   -1    6   16     -0.15      0.00
  -11    7   16     -1.15      0.00
  -10    7   16      0.95      0.00
   -9    7   16     -1.00      0.00
   -8    7   16     -0.73      0.00
   -7    7   16      0.05      0.00
   -6    7   16     -0.88      0.00
   -5    7   16     -0.41      0.00
   -3    7   16     -1.38      0.00
    0  -20   17     -0.71      0.00
    1  -20   17      1.05      0.00
   -4  -19   17     -0.55      0.00
   -3  -19   17      0.68      0.00
   -2  -19   17     -1.35      0.00
   -1  -19   17     -0.52      0.00
    0  -19   17     -0.01      0.00
    1  -19   17     -0.56      0.00
    2  -19   17      0.62      0.00
    3  -19   17     -0.16      0.00
    4  -19   17      0.55      0.00
    5  -19   17     -0.08      0.00
   -6  -18   17     -0.34      0.00
   -5  -18   17     -0.20      0.00
   -4  -18   17      1.09      0.00
   -3  -18   17     -0.17      0.00
   -2  -18   17      0.20      0.00
   -1  -18   17     -0.60      0.00
    0  -18   17     -0.53      0.00
    1  -18   17     -0.08      0.00
    2  -18   17     -0.24      0.00
    3  -18   17      0.91      0.00
    4  -18   17     -0.33      0.00
    5  -18   17      0.11      0.00
    6  -18   17     -0.36      0.00
   -7  -17   17     -0.23      0.00
   -6  -17   17      0.25      0.00
   -5  -17   17     -0.36      0.00
   -4  -17   17      0.25      0.00
   -3  -17   17      0.29      0.00
   -2  -17   17     -0.67      0.00
   -1  -17   17     -0.54      0.00
    0  -17   17     -0.12      0.00
    1  -17   17     -0.25      0.00
    2  -17   17      1.20      0.00
    3  -17   17      1.11      0.00
    4  -17   17      0.28      0.00
    5  -17   17     -0.10      0.00
    6  -17   17     -0.48      0.00
    7  -17   17     -0.38      0.00
   -9  -16   17      0.42      0.00
   -8  -16   17     -0.52      0.00
   -7  -16   17      0.48      0.00
   -6  -16   17     -1.27      0.00
   -5  -16   17      0.86      0.00
   -4  -16   17      0.27      0.00
   -3  -16   17      0.43      0.00
   -2  -16   17      1.04      0.00
   -1  -16   17     -0.46      0.00
    0  -16   17     -0.46      0.00
    1  -16   17     -0.74      0.00
    2  -16   17      0.16      0.00
    3  -16   17      0.83      0.00
    4  -16   17     -1.36      0.00
    5  -16   17      0.08      0.00
    6  -16   17     -0.45      0.00
    7  -16   17      0.21      0.00
    8  -16   17      1.17      0.00
  -10  -15   17      0.36      0.00
   -9  -15   17      0.08      0.00
   -8  -15   17     -0.02      0.00
   -7  -15   17      1.81      0.00
   -6  -15   17     -1.70      0.00
   -5  -15   17      1.61      0.00
   -4  -15   17     -1.08      0.00
   -3  -15   17      0.78      0.00
   -2  -15   17     -1.67      0.00
   -1  -15   17      1.64      0.00
    0  -15   17     -0.83      0.00
    1  -15   17      0.20      0.00
    2  -15   17      0.32      0.00
    3  -15   17      2.07      0.00
    4  -15   17     -0.43      0.00
    5  -15   17     -0.23      0.00
    6  -15   17     -0.34      0.00
    7  -15   17     -0.49      0.00
    8  -15   17      0.74      0.00
  -11  -14   17     -0.45      0.00
  -10  -14   17      0.61      0.00
   -9  -14   17      0.17      0.00
   -8  -14   17     -0.43      0.00
   -7  -14   17      1.41      0.00
   -6  -14   17     -1.13      0.00
   -5  -14   17      0.22      0.00
   -4  -14   17      0.64      0.00
   -3  -14   17      0.70      0.00
   -2  -14   17     -0.86      0.00
   -1  -14   17     -0.66      0.00
    0  -14   17      0.82      0.00
    1  -14   17     -0.77      0.00
    2  -14   17     -0.31      0.00
    3  -14   17      0.21      0.00
    4  -14   17     -0.73      0.00
    5  -14   17      0.32      0.00
    6  -14   17      0.19      0.00
    7  -14   17     -0.31      0.00
    8  -14   17      1.11      0.00
  -12  -13   17     -0.62      0.00
  -11  -13   17      0.13      0.00
  -10  -13   17     -0.03      0.00
   -9  -13   17      0.78      0.00
   -8  -13   17     -0.22      0.00
   -7  -13   17      1.22      0.00
   -5  -13   17      0.65      0.00
   -4  -13   17     -1.47      0.00
   -3  -13   17      1.41      0.00
   -2  -13   17     -1.40      0.00
   -1  -13   17      1.50      0.00
    0  -13   17     -0.54      0.00
    1  -13   17      1.05      0.00
    2  -13   17      0.56      0.00
    3  -13   17      1.11      0.00
    4  -13   17      0.18      0.00
    5  -13   17     -0.41      0.00
    6  -13   17      0.61      0.00
    7  -13   17     -0.67      0.00
    8  -13   17      0.51      0.00
    9  -13   17     -0.83      0.00
  -12  -12   17      0.39      0.00
  -11  -12   17     -0.24      0.00
  -10  -12   17     -0.15      0.00
   -9  -12   17      0.71      0.00
   -8  -12   17     -0.68      0.00
   -7  -12   17      0.65      0.00
   -6  -12   17     -0.16      0.00
   -5  -12   17     -1.08      0.00
   -4  -12   17      2.00      0.00
   -3  -12   17     -1.14      0.00
   -2  -12   17     -1.76      0.00
   -1  -12   17     -1.48      0.00
    0  -12   17      1.70      0.00
    1  -12   17     -1.19      0.00
    2  -12   17     -0.19      0.00
    3  -12   17     -0.53      0.00
    4  -12   17      0.56      0.00
    5  -12   17     -0.61      0.00
    6  -12   17      1.11      0.00
    7  -12   17     -0.07      0.00
    8  -12   17      0.24      0.00
    9  -12   17     -0.53      0.00
  -13  -11   17     -0.14      0.00
  -12  -11   17      0.21      0.00
  -11  -11   17      0.45      0.00
  -10  -11   17     -0.64      0.00
   -9  -11   17      0.37      0.00
   -8  -11   17     -0.24      0.00
   -7  -11   17     -1.02      0.00
   -6  -11   17      0.61      0.00
   -5  -11   17     -1.81      0.00
   -4  -11   17     -1.03      0.00
   -3  -11   17      1.85      0.00
   -2  -11   17     -1.00      0.00
   -1  -11   17     -1.69      0.00
    0  -11   17      1.25      0.00
    1  -11   17      1.74      0.00
    2  -11   17      0.38      0.00
    3  -11   17      0.09      0.00
    4  -11   17      1.41      0.00
    5  -11   17     -0.36      0.00
    6  -11   17      0.03      0.00
    7  -11   17      0.26      0.00
    8  -11   17     -0.21      0.00
    9  -11   17     -0.76      0.00
  -13  -10   17      0.13      0.00
  -12  -10   17      0.08      0.00
  -11  -10   17     -0.08      0.00
  -10  -10   17     -0.13      0.00
   -9  -10   17     -0.18      0.00
   -8  -10   17      0.26      0.00
   -7  -10   17      0.35      0.00
   -6  -10   17     -0.68      0.00
   -5  -10   17      1.65      0.00
   -4  -10   17     -0.77      0.00
   -3  -10   17     -0.60      0.00
   -2  -10   17      2.32      0.00
   -1  -10   17     -2.54      0.00
    0  -10   17      1.35      0.00
    1  -10   17      1.18      0.00
    2  -10   17     -0.24      0.00
    3  -10   17      0.04      0.00
    4  -10   17     -0.09      0.00
    5  -10   17      0.28      0.00
    6  -10   17      0.55      0.00
    7  -10   17      0.41      0.00
    8  -10   17      0.61      0.00
    9  -10   17     -0.93      0.00
  -14   -9   17     -0.45      0.00
  -13   -9   17      0.78      0.00
  -12   -9   17      0.09      0.00
  -11   -9   17      0.08      0.00
  -10   -9   17     -0.22      0.00
   -9   -9   17     -1.03      0.00
   -8   -9   17      0.26      0.00
   -7   -9   17     -0.09      0.00
   -6   -9   17     -1.15      0.00
   -5   -9   17     -0.59      0.00
   -4   -9   17      2.28      0.00
   -3   -9   17     -3.05      0.00
   -2   -9   17      2.82      0.00
   -1   -9   17     -1.89      0.00
    0   -9   17      0.32      0.00
    1   -9   17      1.13      0.00
    2   -9   17     -0.53      0.00
    3   -9   17      0.59      0.00
    4   -9   17      0.86      0.00
    5   -9   17     -0.72      0.00
    6   -9   17     -0.47      0.00
    7   -9   17      0.03      0.00
    8   -9   17     -0.38      0.00
    9   -9   17     -0.24      0.00
  -14   -8   17     -0.12      0.00
  -13   -8   17      0.02      0.00
  -12   -8   17     -0.38      0.00
  -11   -8   17     -0.38      0.00
  -10   -8   17      0.31      0.00
   -9   -8   17     -0.55      0.00
   -8   -8   17      0.10      0.00
   -7   -8   17      1.54      0.00
   -6   -8   17      0.56      0.00
   -3   -8   17      0.21      0.00
   -2   -8   17      0.39      0.00
   -1   -8   17     -0.32      0.00
    0   -8   17     -0.34      0.00
    1   -8   17      0.48      0.00
    2   -8   17     -0.58      0.00
    3   -8   17     -1.45      0.00
    4   -8   17      0.55      0.00
    5   -8   17     -0.73      0.00
    6   -8   17     -0.48      0.00
    7   -8   17     -0.06      0.00
    8   -8   17      0.07      0.00
    9   -8   17     -1.24      0.00
  -15   -7   17     -0.81      0.00
  -14   -7   17     -0.15      0.00
  -13   -7   17      0.71      0.00
  -12   -7   17      0.43      0.00
  -11   -7   17     -0.98      0.00
  -10   -7   17      0.17      0.00
   -9   -7   17     -0.10      0.00
   -8   -7   17     -0.58      0.00
   -7   -7   17      0.09      0.00
   -6   -7   17      0.04      0.00
   -4   -7   17     -2.19      0.00
   -3   -7   17      1.07      0.00
   -2   -7   17      0.61      0.00
   -1   -7   17     -0.69      0.00
    0   -7   17     -1.75      0.00
    1   -7   17     -0.34      0.00
    2   -7   17     -0.51      0.00
    3   -7   17      0.48      0.00
    4   -7   17     -0.04      0.00
    5   -7   17     -0.04      0.00
    6   -7   17     -0.48      0.00
    7   -7   17     -0.07      0.00
    8   -7   17      0.75      0.00
    9   -7   17      0.37      0.00
  -15   -6   17      0.00      0.00
  -14   -6   17     -0.07      0.00
  -13   -6   17     -0.37      0.00
  -12   -6   17      0.28      0.00
  -11   -6   17     -0.76      0.00
  -10   -6   17     -0.48      0.00
   -9   -6   17      0.31      0.00
   -8   -6   17     -0.35      0.00
   -7   -6   17      0.47      0.00
   -6   -6   17     -0.64      0.00
   -5   -6   17     -0.31      0.00
   -3   -6   17     -1.63      0.00
   -1   -6   17      0.58      0.00
    0   -6   17     -1.61      0.00
    1   -6   17      0.34      0.00
    2   -6   17     -0.56      0.00
    3   -6   17      0.04      0.00
    4   -6   17      0.88      0.00
    5   -6   17     -0.15      0.00
    6   -6   17      0.04      0.00
    7   -6   17      0.73      0.00
    8   -6   17     -0.07      0.00
  -15   -5   17     -0.30      0.00
  -14   -5   17      0.37      0.00
  -13   -5   17      0.76      0.00
  -12   -5   17     -0.14      0.00
  -11   -5   17     -0.24      0.00
  -10   -5   17     -0.25      0.00
   -9   -5   17     -0.08      0.00
   -8   -5   17     -0.32      0.00
   -7   -5   17      0.64      0.00
   -6   -5   17      0.42      0.00
   -5   -5   17     -1.45      0.00
   -4   -5   17      0.42      0.00
   -3   -5   17      0.82      0.00
   -2   -5   17     -0.29      0.00
   -1   -5   17      0.46      0.00
    0   -5   17     -1.12      0.00
    1   -5   17     -0.11      0.00
    2   -5   17      1.00      0.00
    3   -5   17      0.02      0.00
    4   -5   17      0.88      0.00
    5   -5   17     -0.12      0.00
    6   -5   17     -0.40      0.00
    7   -5   17      0.31      0.00
    8   -5   17      0.49      0.00
  -15   -4   17      0.18      0.00
  -14   -4   17      0.01      0.00
  -13   -4   17      0.75      0.00
  -12   -4   17     -0.06      0.00
  -11   -4   17     -0.50      0.00
  -10   -4   17      0.12      0.00
   -9   -4   17      0.31      0.00
   -8   -4   17     -1.20      0.00
   -7   -4   17     -0.12      0.00
   -6   -4   17      0.47      0.00
   -5   -4   17     -0.35      0.00
   -4   -4   17     -0.43      0.00
   -3   -4   17      0.15      0.00
   -2   -4   17      0.01      0.00
   -1   -4   17     -0.02      0.00
    0   -4   17     -0.47      0.00
    1   -4   17     -0.32      0.00
    2   -4   17      0.74      0.00
    3   -4   17     -0.09      0.00
    4   -4   17      0.51      0.00
    5   -4   17     -0.89      0.00
    6   -4   17      0.26      0.00
    7   -4   17      0.11      0.00
  -15   -3   17      0.91      0.00
  -14   -3   17     -0.25      0.00
  -13   -3   17      1.70      0.00
  -12   -3   17     -0.30      0.00
  -11   -3   17      0.08      0.00
  -10   -3   17     -0.32      0.00
   -9   -3   17      0.17      0.00
   -8   -3   17      0.55      0.00
   -7   -3   17      0.22      0.00
   -6   -3   17      0.91      0.00
   -5   -3   17      0.24      0.00
   -4   -3   17     -0.24      0.00
   -3   -3   17      0.23      0.00
   -2   -3   17      0.57      0.00
   -1   -3   17     -0.64      0.00
    0   -3   17      0.63      0.00
    1   -3   17     -0.24      0.00
    2   -3   17      0.35      0.00
    3   -3   17     -0.06      0.00
    4   -3   17      0.93      0.00
    5   -3   17     -0.95      0.00
    6   -3   17     -0.80      0.00
    7   -3   17      1.07      0.00
  -15   -2   17      0.52      0.00
  -14   -2   17     -0.02      0.00
  -13   -2   17      1.17      0.00
  -12   -2   17     -0.07      0.00
  -11   -2   17      0.17      0.00
  -10   -2   17      0.18      0.00
   -9   -2   17     -0.37      0.00
   -8   -2   17     -0.24      0.00
   -7   -2   17     -0.35      0.00
   -6   -2   17      0.55      0.00
   -5   -2   17     -0.32      0.00
   -4   -2   17     -0.74      0.00
   -3   -2   17      0.43      0.00
   -2   -2   17      0.85      0.00
   -1   -2   17     -1.69      0.00
    0   -2   17      0.65      0.00
    1   -2   17      0.83      0.00
    2   -2   17      0.48      0.00
    3   -2   17      0.13      0.00
    4   -2   17      0.11      0.00
    5   -2   17     -0.18      0.00
    6   -2   17     -0.99      0.00
  -15   -1   17      0.76      0.00
  -14   -1   17     -0.38      0.00
  -13   -1   17      0.91      0.00
  -12   -1   17     -0.20      0.00
  -11   -1   17     -0.72      0.00
  -10   -1   17     -0.39      0.00
   -9   -1   17      0.18      0.00
   -8   -1   17     -0.65      0.00
   -7   -1   17      0.34      0.00
   -6   -1   17      1.50      0.00
   -5   -1   17      0.59      0.00
   -4   -1   17     -0.57      0.00
   -3   -1   17     -0.06      0.00
   -2   -1   17      1.82      0.00
   -1   -1   17     -0.65      0.00
    0   -1   17      0.06      0.00
    1   -1   17     -0.15      0.00
    2   -1   17      0.40      0.00
    3   -1   17     -0.10      0.00
    4   -1   17      0.06      0.00
    5   -1   17      0.22      0.00
    6   -1   17     -1.11      0.00
  -15    0   17     -0.12      0.00
  -14    0   17      0.41      0.00
  -13    0   17     -0.53      0.00
  -12    0   17      0.57      0.00
  -11    0   17     -0.04      0.00
  -10    0   17     -1.61      0.00
   -9    0   17      0.51      0.00
   -8    0   17     -0.61      0.00
   -7    0   17     -1.20      0.00
   -6    0   17      1.01      0.00
   -5    0   17     -0.52      0.00
   -4    0   17      0.48      0.00
   -3    0   17     -0.60      0.00
   -2    0   17     -0.39      0.00
   -1    0   17     -1.23      0.00
    0    0   17      0.59      0.00
    1    0   17      0.41      0.00
    2    0   17      0.17      0.00
    3    0   17      1.38      0.00
    4    0   17     -1.02      0.00
    5    0   17      0.36      0.00
  -15    1   17     -1.01      0.00
  -14    1   17      0.82      0.00
  -13    1   17     -0.65      0.00
  -12    1   17     -0.44      0.00
  -11    1   17     -0.41      0.00
  -10    1   17     -0.29      0.00
   -9    1   17     -0.90      0.00
   -8    1   17      0.05      0.00
   -7    1   17     -0.06      0.00
   -6    1   17      1.10      0.00
   -5    1   17     -0.89      0.00
   -4    1   17      0.81      0.00
   -3    1   17      0.91      0.00
   -2    1   17      0.46      0.00
   -1    1   17     -0.50      0.00
    0    1   17     -0.82      0.00
    1    1   17      0.15      0.00
    2    1   17     -0.46      0.00
    3    1   17     -0.10      0.00
    4    1   17     -0.05      0.00
  -14    2   17      0.74      0.00
  -13    2   17     -0.16      0.00
  -12    2   17      0.92      0.00
  -11    2   17     -1.38      0.00
  -10    2   17      0.03      0.00
   -9    2   17      0.71      0.00
   -8    2   17     -1.18      0.00
   -7    2   17      1.02      0.00
   -6    2   17      0.29      0.00
   -5    2   17      0.44      0.00
   -4    2   17     -0.58      0.00
   -3    2   17      1.45      0.00
   -2    2   17     -2.15      0.00
   -1    2   17      0.07      0.00
    0    2   17     -0.64      0.00
    1    2   17      0.05      0.00
    2    2   17      0.04      0.00
    3    2   17      0.92      0.00
  -14    3   17      0.16      0.00
  -13    3   17      0.19      0.00
  -12    3   17      0.28      0.00
  -11    3   17     -0.38      0.00
  -10    3   17     -1.34      0.00
   -9    3   17      1.06      0.00
   -8    3   17      0.35      0.00
   -7    3   17      0.49      0.00
   -6    3   17      0.17      0.00
   -5    3   17     -0.05      0.00
   -4    3   17     -0.02      0.00
   -3    3   17      0.67      0.00
   -2    3   17     -0.01      0.00
   -1    3   17     -1.30      0.00
    0    3   17      0.54      0.00
    1    3   17     -0.17      0.00
    2    3   17     -0.60      0.00
  -13    4   17      1.14      0.00
  -12    4   17      0.21      0.00
  -11    4   17      0.03      0.00
  -10    4   17     -0.11      0.00
   -9    4   17      1.00      0.00
   -8    4   17      1.45      0.00
   -7    4   17      1.00      0.00
   -6    4   17     -0.42      0.00
   -5    4   17     -0.61      0.00
   -4    4   17      1.14      0.00
   -3    4   17     -0.06      0.00
   -2    4   17      0.83      0.00
   -1    4   17     -1.06      0.00
    0    4   17     -0.08      0.00
  -12    5   17      0.81      0.00
  -11    5   17     -1.11      0.00
  -10    5   17     -1.84      0.00
   -9    5   17      0.66      0.00
   -8    5   17      0.59      0.00
   -7    5   17      0.27      0.00
   -6    5   17      0.89      0.00
   -5    5   17     -1.39      0.00
   -4    5   17      0.35      0.00
   -3    5   17     -1.95      0.00
   -2    5   17      0.08      0.00
  -10    6   17     -2.00      0.00
   -9    6   17      2.02      0.00
   -8    6   17      1.04      0.00
   -7    6   17     -0.47      0.00
   -6    6   17     -0.74      0.00
   -5    6   17     -0.72      0.00
   -2  -19   18     -0.19      0.00
   -1  -19   18      0.49      0.00
    0  -19   18     -0.27      0.00
    1  -19   18      0.28      0.00
    2  -19   18     -0.02      0.00
   -5  -18   18      0.24      0.00
   -4  -18   18     -0.18      0.00
   -3  -18   18      0.19      0.00
   -2  -18   18      0.63      0.00
   -1  -18   18      0.34      0.00
    0  -18   18     -0.99      0.00
    1  -18   18      0.72      0.00
    2  -18   18     -1.01      0.00
    3  -18   18     -0.26      0.00
    4  -18   18      0.67      0.00
   -7  -17   18     -0.45      0.00
   -6  -17   18      1.03      0.00
   -5  -17   18     -1.02      0.00
   -4  -17   18     -0.46      0.00
   -3  -17   18      0.18      0.00
   -2  -17   18     -0.43      0.00
   -1  -17   18      1.76      0.00
    0  -17   18     -0.39      0.00
    1  -17   18      1.13      0.00
    3  -17   18     -0.29      0.00
    4  -17   18      1.23      0.00
    5  -17   18     -0.63      0.00
    6  -17   18     -0.42      0.00
   -8  -16   18      0.80      0.00
   -7  -16   18     -1.36      0.00
   -6  -16   18      1.97      0.00
   -5  -16   18     -0.64      0.00
   -4  -16   18      0.17      0.00
   -3  -16   18     -0.14      0.00
   -2  -16   18      0.61      0.00
   -1  -16   18     -0.18      0.00
    0  -16   18     -0.65      0.00
    1  -16   18      0.30      0.00
    2  -16   18     -1.36      0.00
    3  -16   18     -1.68      0.00
    4  -16   18      0.92      0.00
    5  -16   18     -0.45      0.00
    6  -16   18      0.13      0.00
   -9  -15   18      0.03      0.00
   -8  -15   18      1.09      0.00
   -7  -15   18     -0.38      0.00
   -6  -15   18      0.85      0.00
   -5  -15   18      0.14      0.00
   -4  -15   18     -1.03      0.00
   -3  -15   18     -0.04      0.00
   -2  -15   18      0.67      0.00
   -1  -15   18      1.96      0.00
    0  -15   18     -0.49      0.00
    1  -15   18      0.72      0.00
    2  -15   18      0.69      0.00
    3  -15   18     -0.99      0.00
    4  -15   18      1.14      0.00
    5  -15   18     -0.64      0.00
    6  -15   18     -0.68      0.00
    7  -15   18      0.42      0.00
  -10  -14   18      0.73      0.00
   -9  -14   18     -0.73      0.00
   -8  -14   18      0.25      0.00
   -7  -14   18     -0.57      0.00
   -6  -14   18      1.23      0.00
   -5  -14   18      0.03      0.00
   -4  -14   18     -0.58      0.00
   -3  -14   18      0.39      0.00
   -2  -14   18      0.49      0.00
   -1  -14   18     -2.02      0.00
    0  -14   18      0.86      0.00
    2  -14   18     -0.24      0.00
    3  -14   18     -0.31      0.00
    4  -14   18      0.13      0.00
    5  -14   18      1.16      0.00
    6  -14   18     -0.71      0.00
    7  -14   18      0.19      0.00
  -11  -13   18     -0.12      0.00
  -10  -13   18      0.17      0.00
   -9  -13   18      0.01      0.00
   -8  -13   18      0.56      0.00
   -7  -13   18     -0.71      0.00
   -6  -13   18     -0.66      0.00
   -5  -13   18      1.89      0.00
   -3  -13   18      1.53      0.00
   -2  -13   18      1.84      0.00
   -1  -13   18     -0.02      0.00
    0  -13   18     -1.01      0.00
    1  -13   18      1.71      0.00
    2  -13   18      0.48      0.00
    3  -13   18      0.54      0.00
    4  -13   18     -0.81      0.00
    5  -13   18      0.04      0.00
    6  -13   18     -1.02      0.00
    7  -13   18     -0.19      0.00
    8  -13   18      0.14      0.00
  -12  -12   18      0.03      0.00
  -11  -12   18     -0.25      0.00
  -10  -12   18      0.29      0.00
   -9  -12   18     -0.78      0.00
   -8  -12   18      0.03      0.00
   -7  -12   18      0.87      0.00
   -5  -12   18      2.62      0.00
   -4  -12   18     -2.23      0.00
   -3  -12   18      0.38      0.00
   -2  -12   18      0.52      0.00
   -1  -12   18      0.07      0.00
    0  -12   18     -1.51      0.00
    1  -12   18     -2.69      0.00
    2  -12   18      0.63      0.00
    3  -12   18      1.29      0.00
    4  -12   18     -1.06      0.00
    5  -12   18      0.81      0.00
    6  -12   18     -0.27      0.00
    7  -12   18     -0.01      0.00
    8  -12   18      0.19      0.00
  -12  -11   18      0.39      0.00
  -11  -11   18      0.12      0.00
  -10  -11   18     -0.18      0.00
   -9  -11   18     -0.23      0.00
   -8  -11   18     -0.71      0.00
   -7  -11   18      0.54      0.00
   -6  -11   18     -1.01      0.00
   -5  -11   18     -0.01      0.00
   -4  -11   18     -2.95      0.00
   -3  -11   18      2.06      0.00
   -2  -11   18     -0.32      0.00
   -1  -11   18      0.93      0.00
    0  -11   18      0.17      0.00
    1  -11   18      1.07      0.00
    2  -11   18      0.66      0.00
    3  -11   18      0.77      0.00
    4  -11   18     -0.23      0.00
    5  -11   18     -0.88      0.00
    6  -11   18     -0.68      0.00
    7  -11   18     -0.26      0.00
    8  -11   18      0.08      0.00
  -13  -10   18     -0.53      0.00
  -12  -10   18     -0.10      0.00
  -11  -10   18     -0.14      0.00
  -10  -10   18     -0.07      0.00
   -9  -10   18      0.17      0.00
   -8  -10   18     -0.41      0.00
   -7  -10   18      1.15      0.00
   -6  -10   18     -0.39      0.00
   -4  -10   18     -3.60      0.00
   -3  -10   18      3.88      0.00
   -2  -10   18      0.67      0.00
    0  -10   18     -2.21      0.00
    1  -10   18     -0.42      0.00
    2  -10   18      1.04      0.00
    3  -10   18      0.03      0.00
    4  -10   18     -0.66      0.00
    5  -10   18     -0.09      0.00
    6  -10   18      0.25      0.00
    7  -10   18     -0.42      0.00
    8  -10   18      0.23      0.00
  -13   -9   18     -0.03      0.00
  -12   -9   18      0.08      0.00
  -11   -9   18      0.14      0.00
  -10   -9   18     -0.24      0.00
   -9   -9   18     -0.36      0.00
   -8   -9   18     -0.33      0.00
   -7   -9   18      1.38      0.00
   -6   -9   18     -1.99      0.00
   -5   -9   18      1.80      0.00
   -4   -9   18     -1.10      0.00
   -3   -9   18     -0.98      0.00
   -2   -9   18      0.96      0.00
   -1   -9   18      0.80      0.00
    0   -9   18     -0.45      0.00
    1   -9   18     -0.67      0.00
    2   -9   18     -0.01      0.00
    3   -9   18      0.50      0.00
    4   -9   18     -1.06      0.00
    5   -9   18     -0.81      0.00
    6   -9   18     -0.53      0.00
    7   -9   18     -0.45      0.00
    8   -9   18     -0.70      0.00
  -14   -8   18      0.17      0.00
  -13   -8   18     -0.76      0.00
  -12   -8   18     -0.64      0.00
  -11   -8   18      0.16      0.00
  -10   -8   18      0.77      0.00
   -9   -8   18      0.06      0.00
   -8   -8   18     -0.92      0.00
   -7   -8   18      2.15      0.00
   -6   -8   18      1.39      0.00
   -4   -8   18      2.82      0.00
   -3   -8   18     -0.41      0.00
   -2   -8   18      0.52      0.00
   -1   -8   18     -0.03      0.00
    0   -8   18     -0.63      0.00
    1   -8   18     -0.81      0.00
    2   -8   18     -0.14      0.00
    3   -8   18     -1.11      0.00
    4   -8   18      0.15      0.00
    5   -8   18     -0.57      0.00
    6   -8   18      0.30      0.00
    7   -8   18      0.06      0.00
  -14   -7   18     -0.15      0.00
  -13   -7   18      0.34      0.00
  -12   -7   18     -0.18      0.00
  -11   -7   18     -0.07      0.00
  -10   -7   18      0.24      0.00
   -9   -7   18      0.37      0.00
   -8   -7   18      0.00      0.00
   -7   -7   18     -0.53      0.00
   -6   -7   18      1.56      0.00
   -4   -7   18     -2.22      0.00
   -3   -7   18      1.35      0.00
   -2   -7   18      0.66      0.00
   -1   -7   18     -1.17      0.00
    0   -7   18      0.70      0.00
    1   -7   18     -1.34      0.00
    2   -7   18      0.47      0.00
    3   -7   18      0.05      0.00
    4   -7   18     -0.35      0.00
    5   -7   18      0.57      0.00
    6   -7   18      0.03      0.00
    7   -7   18      0.20      0.00
  -14   -6   18     -0.69      0.00
  -13   -6   18     -0.75      0.00
  -12   -6   18      0.15      0.00
  -11   -6   18      0.20      0.00
  -10   -6   18      0.36      0.00
   -9   -6   18     -0.15      0.00
   -8   -6   18      0.06      0.00
   -7   -6   18      1.00      0.00
   -5   -6   18      0.25      0.00
   -4   -6   18     -0.86      0.00
   -3   -6   18     -1.02      0.00
   -2   -6   18      0.81      0.00
   -1   -6   18     -0.79      0.00
    0   -6   18      0.30      0.00
    1   -6   18      0.20      0.00
    2   -6   18     -0.66      0.00
    3   -6   18      0.35      0.00
    4   -6   18      0.54      0.00
    5   -6   18      0.30      0.00
    6   -6   18      1.03      0.00
    7   -6   18     -0.37      0.00
  -14   -5   18      0.05      0.00
  -13   -5   18     -0.56      0.00
  -12   -5   18      0.78      0.00
  -11   -5   18     -0.17      0.00
  -10   -5   18     -0.06      0.00
   -9   -5   18      0.03      0.00
   -8   -5   18      0.31      0.00
   -7   -5   18      0.87      0.00
   -6   -5   18     -0.60      0.00
   -5   -5   18      0.16      0.00
   -4   -5   18     -0.69      0.00
   -3   -5   18      0.19      0.00
   -2   -5   18      1.04      0.00
   -1   -5   18      0.04      0.00
    0   -5   18      0.84      0.00
    1   -5   18      0.03      0.00
    2   -5   18      0.16      0.00
    3   -5   18      0.08      0.00
    4   -5   18      0.02      0.00
    5   -5   18      0.63      0.00
    6   -5   18     -0.63      0.00
  -15   -4   18     -0.81      0.00
  -14   -4   18      0.30      0.00
  -13   -4   18     -1.49      0.00
  -12   -4   18      1.47      0.00
  -11   -4   18      0.36      0.00
  -10   -4   18      0.29      0.00
   -9   -4   18      0.61      0.00
   -8   -4   18     -0.44      0.00
   -7   -4   18      0.80      0.00
   -6   -4   18     -1.00      0.00
   -5   -4   18     -0.21      0.00
   -4   -4   18     -0.69      0.00
   -3   -4   18     -1.09      0.00
   -2   -4   18      0.66      0.00
   -1   -4   18      0.53      0.00
    0   -4   18     -0.50      0.00
    1   -4   18      0.11      0.00
    2   -4   18     -0.25      0.00
    3   -4   18      0.39      0.00
    4   -4   18     -0.34      0.00
    5   -4   18      0.72      0.00
    6   -4   18      0.21      0.00
  -15   -3   18     -0.24      0.00
  -14   -3   18      0.28      0.00
  -13   -3   18     -0.38      0.00
  -12   -3   18      1.17      0.00
  -11   -3   18     -0.06      0.00
  -10   -3   18     -0.28      0.00
   -9   -3   18      0.54      0.00
   -8   -3   18      0.45      0.00
   -7   -3   18      0.58      0.00
   -6   -3   18     -0.34      0.00
   -5   -3   18      0.35      0.00
   -4   -3   18      0.48      0.00
   -3   -3   18     -0.77      0.00
   -2   -3   18      0.13      0.00
   -1   -3   18      2.45      0.00
    0   -3   18     -0.48      0.00
    1   -3   18     -0.16      0.00
    2   -3   18     -0.45      0.00
    3   -3   18      0.37      0.00
    4   -3   18      0.39      0.00
    5   -3   18     -0.44      0.00
  -14   -2   18      0.39      0.00
  -13   -2   18     -1.47      0.00
  -12   -2   18      0.99      0.00
  -11   -2   18      0.65      0.00
  -10   -2   18      0.21      0.00
   -9   -2   18      0.48      0.00
   -8   -2   18      0.04      0.00
   -7   -2   18      0.01      0.00
   -6   -2   18     -1.30      0.00
   -5   -2   18     -0.87      0.00
   -4   -2   18      0.08      0.00
   -3   -2   18      0.29      0.00
   -2   -2   18     -0.95      0.00
   -1   -2   18      1.57      0.00
    0   -2   18     -0.85      0.00
    1   -2   18      0.55      0.00
    2   -2   18     -0.38      0.00
    3   -2   18     -0.22      0.00
    4   -2   18      1.04      0.00
    5   -2   18     -0.40      0.00
  -14   -1   18     -0.93      0.00
  -13   -1   18      0.72      0.00
  -12   -1   18     -0.90      0.00
  -11   -1   18      0.01      0.00
  -10   -1   18      0.41      0.00
   -9   -1   18     -0.28      0.00
   -8   -1   18     -0.04      0.00
   -7   -1   18      0.29      0.00
   -6   -1   18     -0.85      0.00
   -5   -1   18      0.98      0.00
   -4   -1   18     -0.64      0.00
   -3   -1   18      1.07      0.00
   -2   -1   18      0.23      0.00
   -1   -1   18      2.34      0.00
    0   -1   18     -1.37      0.00
    1   -1   18     -0.57      0.00
    2   -1   18      0.30      0.00
    3   -1   18     -1.24      0.00
    4   -1   18      1.21      0.00
  -14    0   18     -1.69      0.00
  -13    0   18     -0.03      0.00
  -12    0   18      0.15      0.00
  -11    0   18      0.09      0.00
  -10    0   18     -0.04      0.00
   -9    0   18      0.67      0.00
   -8    0   18      0.20      0.00
   -7    0   18     -0.26      0.00
   -6    0   18     -1.44      0.00
   -5    0   18      0.26      0.00
   -4    0   18     -0.51      0.00
   -3    0   18     -0.22      0.00
   -2    0   18     -0.47      0.00
   -1    0   18      0.32      0.00
    0    0   18      0.68      0.00
    1    0   18     -0.77      0.00
    2    0   18     -0.13      0.00
    3    0   18     -0.12      0.00
  -14    1   18     -1.17      0.00
  -13    1   18      0.04      0.00
  -12    1   18     -0.90      0.00
  -11    1   18      1.51      0.00
  -10    1   18     -0.67      0.00
   -9    1   18     -0.32      0.00
   -8    1   18      0.45      0.00
   -7    1   18     -0.25      0.00
   -6    1   18     -0.61      0.00
   -5    1   18      0.08      0.00
   -4    1   18      0.08      0.00
   -3    1   18     -0.04      0.00
   -2    1   18      1.74      0.00
   -1    1   18     -0.50      0.00
    0    1   18      0.02      0.00
    1    1   18     -0.86      0.00
    2    1   18     -0.16      0.00
  -13    2   18     -0.39      0.00
  -12    2   18      0.32      0.00
  -11    2   18      0.94      0.00
  -10    2   18      0.75      0.00
   -9    2   18     -0.05      0.00
   -8    2   18      0.85      0.00
   -7    2   18      0.58      0.00
   -6    2   18      0.07      0.00
   -5    2   18     -0.01      0.00
   -4    2   18     -0.44      0.00
   -3    2   18     -0.93      0.00
   -2    2   18      0.81      0.00
   -1    2   18     -0.24      0.00
    0    2   18      1.18      0.00
    1    2   18     -0.74      0.00
  -12    3   18      0.55      0.00
  -11    3   18      1.30      0.00
  -10    3   18     -0.28      0.00
   -9    3   18     -0.83      0.00
   -8    3   18     -0.01      0.00
   -7    3   18     -0.14      0.00
   -6    3   18      0.73      0.00
   -5    3   18     -0.21      0.00
   -4    3   18     -0.68      0.00
   -3    3   18     -0.56      0.00
   -2    3   18      0.68      0.00
   -1    3   18      0.22      0.00
  -11    4   18      1.94      0.00
  -10    4   18      1.27      0.00
   -9    4   18     -1.24      0.00
   -8    4   18      0.40      0.00
   -7    4   18      0.45      0.00
   -6    4   18     -0.68      0.00
   -5    4   18      0.46      0.00
   -4    4   18     -1.14      0.00
   -3    4   18      0.91      0.00
   -3  -18   19      0.06      0.00
   -2  -18   19     -0.88      0.00
   -1  -18   19     -0.31      0.00
    0  -18   19     -0.04      0.00
    1  -18   19     -0.70      0.00
    2  -18   19      1.22      0.00
   -5  -17   19      0.48      0.00
   -4  -17   19     -0.49      0.00
   -3  -17   19      0.67      0.00
   -2  -17   19     -0.68      0.00
   -1  -17   19      0.60      0.00
    0  -17   19      1.57      0.00
    1  -17   19     -1.22      0.00
    2  -17   19      1.45      0.00
    3  -17   19     -0.46      0.00
    4  -17   19     -0.75      0.00
   -7  -16   19     -0.27      0.00
   -6  -16   19      0.56      0.00
   -5  -16   19      0.34      0.00
   -4  -16   19      0.13      0.00
   -3  -16   19      0.85      0.00
   -2  -16   19     -1.75      0.00
   -1  -16   19     -1.18      0.00
    0  -16   19      0.34      0.00
    2  -16   19     -0.45      0.00
    3  -16   19      0.17      0.00
    4  -16   19     -0.79      0.00
    5  -16   19      1.12      0.00
   -8  -15   19      0.98      0.00
   -7  -15   19     -0.11      0.00
   -6  -15   19     -0.64      0.00
   -5  -15   19      0.51      0.00
   -4  -15   19     -0.09      0.00
   -3  -15   19      0.71      0.00
   -2  -15   19     -0.75      0.00
   -1  -15   19      2.25      0.00
    0  -15   19      0.40      0.00
    1  -15   19      1.39      0.00
    2  -15   19      0.43      0.00
    3  -15   19     -0.38      0.00
    4  -15   19      0.27      0.00
    5  -15   19     -0.53      0.00
   -9  -14   19     -0.59      0.00
   -8  -14   19      0.23      0.00
   -7  -14   19     -0.02      0.00
   -6  -14   19     -0.01      0.00
   -5  -14   19     -0.48      0.00
   -3  -14   19     -0.96      0.00
   -2  -14   19     -1.96      0.00
   -1  -14   19     -1.19      0.00
    0  -14   19      0.37      0.00
    1  -14   19     -2.45      0.00
    2  -14   19      0.09      0.00
    3  -14   19      0.07      0.00
    4  -14   19      1.69      0.00
    5  -14   19      0.72      0.00
    6  -14   19      0.51      0.00
  -10  -13   19      0.10      0.00
   -9  -13   19     -0.21      0.00
   -8  -13   19      0.19      0.00
   -7  -13   19     -0.84      0.00
   -6  -13   19      0.20      0.00
   -5  -13   19     -1.89      0.00
   -4  -13   19      2.10      0.00
   -3  -13   19     -4.08      0.00
   -2  -13   19      1.51      0.00
   -1  -13   19      0.47      0.00
    0  -13   19      1.85      0.00
    1  -13   19      1.92      0.00
    2  -13   19     -0.70      0.00
    3  -13   19     -1.22      0.00
    4  -13   19      0.64      0.00
    5  -13   19     -0.88      0.00
    6  -13   19      0.74      0.00
  -11  -12   19     -0.22      0.00
  -10  -12   19      0.46      0.00
   -9  -12   19     -0.52      0.00
   -8  -12   19     -0.30      0.00
   -7  -12   19     -0.30      0.00
   -6  -12   19      0.61      0.00
   -4  -12   19      4.95      0.00
   -3  -12   19     -3.22      0.00
   -2  -12   19     -0.29      0.00
   -1  -12   19      0.92      0.00
    0  -12   19     -0.60      0.00
    1  -12   19     -1.74      0.00
    2  -12   19     -0.39      0.00
    3  -12   19      0.97      0.00
    4  -12   19      1.44      0.00
    5  -12   19      0.62      0.00
    6  -12   19      0.74      0.00
  -12  -11   19      0.30      0.00
  -11  -11   19      0.03      0.00
  -10  -11   19     -0.38      0.00
   -9  -11   19      0.09      0.00
   -8  -11   19     -0.69      0.00
   -7  -11   19     -1.39      0.00
   -6  -11   19      2.17      0.00
   -4  -11   19      2.83      0.00
   -3  -11   19     -3.30      0.00
   -2  -11   19      0.08      0.00
   -1  -11   19      0.43      0.00
    0  -11   19      4.74      0.00
    1  -11   19     -0.10      0.00
    2  -11   19     -1.00      0.00
    3  -11   19     -0.88      0.00
    4  -11   19      0.74      0.00
    5  -11   19     -0.02      0.00
    6  -11   19     -0.34      0.00
    7  -11   19      0.15      0.00
  -12  -10   19     -0.37      0.00
  -11  -10   19      0.17      0.00
  -10  -10   19     -0.61      0.00
   -9  -10   19      0.86      0.00
   -8  -10   19      0.31      0.00
   -7  -10   19     -2.85      0.00
   -6  -10   19      2.61      0.00
   -5  -10   19      1.94      0.00
   -4  -10   19     -0.41      0.00
   -3  -10   19      2.01      0.00
   -2  -10   19     -0.24      0.00
   -1  -10   19     -0.41      0.00
    0  -10   19      0.53      0.00
    1  -10   19     -0.80      0.00
    2  -10   19     -1.15      0.00
    3  -10   19      0.52      0.00
    4  -10   19      0.32      0.00
    5  -10   19      0.67      0.00
    6  -10   19      0.15      0.00
  -13   -9   19      0.34      0.00
  -12   -9   19     -0.23      0.00
  -11   -9   19      0.73      0.00
  -10   -9   19     -1.28      0.00
   -9   -9   19     -0.34      0.00
   -8   -9   19      2.00      0.00
   -7   -9   19     -2.39      0.00
   -4   -9   19     -4.31      0.00
   -3   -9   19     -0.40      0.00
   -2   -9   19     -0.93      0.00
   -1   -9   19      0.48      0.00
    0   -9   19      0.80      0.00
    1   -9   19     -0.47      0.00
    2   -9   19     -1.69      0.00
    3   -9   19     -0.30      0.00
    4   -9   19      0.13      0.00
    5   -9   19      0.25      0.00
    6   -9   19     -0.63      0.00
  -13   -8   19     -0.25      0.00
  -12   -8   19     -0.53      0.00
  -11   -8   19      0.52      0.00
  -10   -8   19      0.39      0.00
   -9   -8   19     -0.56      0.00
   -8   -8   19      0.37      0.00
   -7   -8   19      0.58      0.00
   -5   -8   19      3.79      0.00
   -4   -8   19     -0.35      0.00
   -3   -8   19     -1.27      0.00
   -2   -8   19     -1.42      0.00
   -1   -8   19     -0.01      0.00
    0   -8   19     -1.06      0.00
    1   -8   19     -0.05      0.00
    2   -8   19     -0.59      0.00
    3   -8   19     -0.06      0.00
    4   -8   19      0.36      0.00
    5   -8   19      0.58      0.00
    6   -8   19      0.18      0.00
  -13   -7   19      0.33      0.00
  -12   -7   19     -0.31      0.00
  -11   -7   19     -0.02      0.00
  -10   -7   19     -0.31      0.00
   -9   -7   19     -0.14      0.00
   -8   -7   19      0.03      0.00
   -7   -7   19     -0.99      0.00
   -6   -7   19     -0.83      0.00
   -4   -7   19      0.10      0.00
   -3   -7   19     -1.87      0.00
   -2   -7   19      0.17      0.00
   -1   -7   19      0.22      0.00
    0   -7   19      0.32      0.00
    1   -7   19     -0.62      0.00
    2   -7   19      0.36      0.00
    3   -7   19      0.57      0.00
    4   -7   19     -0.29      0.00
    5   -7   19      0.84      0.00
    6   -7   19     -0.44      0.00
  -13   -6   19      0.54      0.00
  -12   -6   19     -1.09      0.00
  -11   -6   19      0.48      0.00
  -10   -6   19      0.57      0.00
   -9   -6   19     -0.60      0.00
   -8   -6   19     -0.43      0.00
   -7   -6   19     -0.28      0.00
   -6   -6   19     -0.42      0.00
   -5   -6   19      0.21      0.00
   -4   -6   19      1.87      0.00
   -3   -6   19     -3.13      0.00
   -2   -6   19     -1.56      0.00
   -1   -6   19      0.76      0.00
    0   -6   19     -0.80      0.00
    1   -6   19      1.16      0.00
    2   -6   19     -0.45      0.00
    3   -6   19      0.82      0.00
    4   -6   19      0.11      0.00
    5   -6   19     -0.01      0.00
  -13   -5   19      1.51      0.00
  -12   -5   19     -0.71      0.00
  -11   -5   19     -0.45      0.00
  -10   -5   19      0.34      0.00
   -9   -5   19     -0.89      0.00
   -8   -5   19     -0.33      0.00
   -7   -5   19     -0.79      0.00
   -6   -5   19      0.84      0.00
   -5   -5   19      1.03      0.00
   -4   -5   19      1.28      0.00
   -3   -5   19      0.00      0.00
   -2   -5   19     -1.08      0.00
   -1   -5   19      0.61      0.00
    0   -5   19      0.92      0.00
    1   -5   19      0.46      0.00
    2   -5   19      0.32      0.00
    3   -5   19     -0.27      0.00
    4   -5   19     -0.01      0.00
    5   -5   19     -0.55      0.00
  -14   -4   19      0.11      0.00
  -13   -4   19      0.50      0.00
  -12   -4   19     -0.88      0.00
  -11   -4   19      0.99      0.00
  -10   -4   19      0.62      0.00
   -9   -4   19     -0.02      0.00
   -8   -4   19     -0.98      0.00
   -7   -4   19      0.08      0.00
   -6   -4   19     -0.37      0.00
   -5   -4   19      0.78      0.00
   -4   -4   19     -0.10      0.00
   -3   -4   19     -0.74      0.00
   -2   -4   19     -0.54      0.00
   -1   -4   19     -1.32      0.00
    0   -4   19      0.86      0.00
    1   -4   19      0.41      0.00
    2   -4   19      0.39      0.00
    3   -4   19     -0.32      0.00
    4   -4   19     -0.46      0.00
  -13   -3   19      2.19      0.00
  -12   -3   19     -1.34      0.00
  -11   -3   19     -0.28      0.00
  -10   -3   19      0.32      0.00
   -9   -3   19     -1.48      0.00
   -8   -3   19      0.03      0.00
   -7   -3   19      0.12      0.00
   -6   -3   19      0.26      0.00
   -5   -3   19      1.35      0.00
   -4   -3   19      1.67      0.00
   -3   -3   19     -1.18      0.00
   -2   -3   19      0.42      0.00
   -1   -3   19     -0.63      0.00
    0   -3   19      1.86      0.00
    1   -3   19     -0.21      0.00
    2   -3   19      0.06      0.00
    3   -3   19      0.43      0.00
    4   -3   19     -1.28      0.00
  -13   -2   19     -1.14      0.00
  -12   -2   19      0.43      0.00
  -11   -2   19     -0.66      0.00
  -10   -2   19      0.59      0.00
   -9   -2   19     -0.42      0.00
   -8   -2   19     -1.09      0.00
   -7   -2   19      0.89      0.00
   -6   -2   19     -0.22      0.00
   -5   -2   19     -0.81      0.00
   -4   -2   19      1.03      0.00
   -3   -2   19     -0.38      0.00
   -2   -2   19     -0.76      0.00
   -1   -2   19     -1.51      0.00
    0   -2   19      1.73      0.00
    1   -2   19      0.52      0.00
    2   -2   19     -0.59      0.00
    3   -2   19      0.43      0.00
  -13   -1   19     -0.14      0.00
  -12   -1   19     -0.53      0.00
  -11   -1   19     -0.82      0.00
  -10   -1   19     -0.43      0.00
   -9   -1   19     -0.67      0.00
   -8   -1   19     -1.26      0.00
   -7   -1   19      0.75      0.00
   -6   -1   19      0.75      0.00
   -5   -1   19      1.18      0.00
   -4   -1   19      0.38      0.00
   -3   -1   19     -0.01      0.00
   -2   -1   19      0.01      0.00
   -1   -1   19     -0.38      0.00
    0   -1   19      0.03      0.00
    1   -1   19      0.59      0.00
    2   -1   19     -0.15      0.00
  -13    0   19     -0.84      0.00
  -12    0   19      0.92      0.00
  -11    0   19     -1.54      0.00
  -10    0   19      0.52      0.00
   -9    0   19     -0.43      0.00
   -8    0   19     -0.09      0.00
   -7    0   19      0.81      0.00
   -6    0   19      0.65      0.00
   -5    0   19     -0.45      0.00
   -4    0   19      0.74      0.00
   -3    0   19     -1.51      0.00
   -2    0   19     -1.31      0.00
   -1    0   19      0.30      0.00
    0    0   19     -0.43      0.00
    1    0   19      1.12      0.00
  -12    1   19     -0.05      0.00
  -11    1   19     -0.70      0.00
  -10    1   19     -0.03      0.00
   -9    1   19     -0.52      0.00
   -8    1   19     -1.19      0.00
   -7    1   19      0.53      0.00
   -6    1   19      0.96      0.00
   -5    1   19      0.30      0.00
   -4    1   19      0.48      0.00
   -3    1   19      0.52      0.00
   -2    1   19     -2.49      0.00
   -1    1   19      1.85      0.00
    0    1   19     -2.88      0.00
  -11    2   19     -0.66      0.00
  -10    2   19      1.03      0.00
   -9    2   19      0.77      0.00
   -8    2   19      0.07      0.00
   -7    2   19      0.67      0.00
   -6    2   19      0.69      0.00
   -5    2   19      0.25      0.00
   -4    2   19     -0.34      0.00
   -3    2   19      0.66      0.00
   -2    2   19     -2.15      0.00
   -9    3   19      0.40      0.00
   -8    3   19     -0.74      0.00
   -7    3   19     -0.78      0.00
   -6    3   19      0.91      0.00
   -5    3   19     -0.04      0.00
   -3  -17   20     -0.17      0.00
   -2  -17   20      1.93      0.00
   -1  -17   20      0.23      0.00
    0  -17   20      0.25      0.00
   -5  -16   20      0.36      0.00
   -4  -16   20      0.31      0.00
   -3  -16   20     -1.20      0.00
   -2  -16   20      0.84      0.00
   -1  -16   20     -1.84      0.00
    0  -16   20     -1.12      0.00
    1  -16   20     -0.04      0.00
    2  -16   20     -0.14      0.00
    3  -16   20      0.72      0.00
   -7  -15   20      0.16      0.00
   -6  -15   20     -0.25      0.00
   -5  -15   20     -0.48      0.00
   -4  -15   20     -0.01      0.00
   -3  -15   20     -0.35      0.00
   -2  -15   20      1.38      0.00
   -1  -15   20      1.60      0.00
    0  -15   20     -0.14      0.00
    1  -15   20      2.61      0.00
    2  -15   20     -0.49      0.00
    3  -15   20      0.13      0.00
    4  -15   20     -1.34      0.00
   -8  -14   20     -0.98      0.00
   -7  -14   20     -0.16      0.00
   -6  -14   20     -0.12      0.00
   -5  -14   20      0.74      0.00
   -4  -14   20     -2.30      0.00
   -3  -14   20      4.22      0.00
   -2  -14   20     -4.35      0.00
   -1  -14   20     -0.66      0.00
    0  -14   20     -2.69      0.00
    1  -14   20      0.17      0.00
    2  -14   20      1.04      0.00
    3  -14   20      0.48      0.00
    4  -14   20      0.44      0.00
   -9  -13   20      0.34      0.00
   -8  -13   20     -0.51      0.00
   -7  -13   20     -0.37      0.00
   -6  -13   20     -1.21      0.00
   -5  -13   20      0.66      0.00
   -4  -13   20     -4.39      0.00
   -3  -13   20      2.41      0.00
   -2  -13   20     -0.06      0.00
   -1  -13   20      0.40      0.00
    0  -13   20      1.82      0.00
    1  -13   20      1.40      0.00
    2  -13   20      1.20      0.00
    3  -13   20     -2.92      0.00
    4  -13   20     -1.71      0.00
    5  -13   20     -0.11      0.00
  -10  -12   20      0.17      0.00
   -9  -12   20      0.28      0.00
   -8  -12   20     -0.19      0.00
   -7  -12   20      0.91      0.00
   -6  -12   20     -1.99      0.00
   -5  -12   20      1.59      0.00
   -4  -12   20      0.38      0.00
   -3  -12   20      4.33      0.00
   -2  -12   20     -2.61      0.00
   -1  -12   20     -0.05      0.00
    0  -12   20     -2.77      0.00
    3  -12   20      0.97      0.00
    4  -12   20     -0.44      0.00
    5  -12   20     -0.16      0.00
  -10  -11   20      0.15      0.00
   -9  -11   20     -0.33      0.00
   -7  -11   20      1.64      0.00
   -6  -11   20     -0.33      0.00
   -4  -11   20      2.34      0.00
   -3  -11   20     -0.54      0.00
   -2  -11   20      0.49      0.00
   -1  -11   20      0.59      0.00
    0  -11   20      1.44      0.00
    1  -11   20      0.80      0.00
    4  -11   20     -0.03      0.00
    5  -11   20     -0.70      0.00
  -11  -10   20     -0.77      0.00
  -10  -10   20      0.54      0.00
   -9  -10   20      1.37      0.00
   -8  -10   20     -1.03      0.00
   -6  -10   20      2.37      0.00
   -5  -10   20     -6.62      0.00
   -4  -10   20      6.34      0.00
   -3  -10   20      0.14      0.00
   -2  -10   20     -0.32      0.00
   -1  -10   20     -2.27      0.00
    0  -10   20     -0.61      0.00
    1  -10   20     -0.38      0.00
    2  -10   20      1.14      0.00
    3  -10   20      0.17      0.00
    4  -10   20     -1.61      0.00
    5  -10   20     -0.21      0.00
  -11   -9   20      0.31      0.00
  -10   -9   20     -0.88      0.00
   -9   -9   20      0.93      0.00
   -8   -9   20      0.75      0.00
   -7   -9   20     -0.59      0.00
   -6   -9   20      3.52      0.00
   -5   -9   20     -6.86      0.00
   -4   -9   20      3.87      0.00
   -3   -9   20     -0.48      0.00
   -2   -9   20     -0.19      0.00
   -1   -9   20     -0.57      0.00
    0   -9   20      0.04      0.00
    1   -9   20      0.29      0.00
    2   -9   20     -0.84      0.00
    3   -9   20     -0.62      0.00
    4   -9   20      0.14      0.00
    5   -9   20     -0.96      0.00
  -12   -8   20     -0.57      0.00
  -11   -8   20      0.54      0.00
  -10   -8   20      0.31      0.00
   -9   -8   20      0.51      0.00
   -8   -8   20      0.97      0.00
   -7   -8   20     -0.56      0.00
   -6   -8   20      2.72      0.00
   -5   -8   20     -6.19      0.00
   -4   -8   20      0.88      0.00
   -3   -8   20      2.78      0.00
   -2   -8   20     -3.35      0.00
   -1   -8   20     -0.55      0.00
    0   -8   20     -0.65      0.00
    1   -8   20      0.99      0.00
    2   -8   20      0.29      0.00
    3   -8   20     -0.48      0.00
    4   -8   20      0.51      0.00
  -12   -7   20     -0.01      0.00
  -11   -7   20      0.42      0.00
  -10   -7   20     -0.97      0.00
   -9   -7   20      0.20      0.00
   -8   -7   20      1.13      0.00
   -7   -7   20     -0.83      0.00
   -5   -7   20     -1.22      0.00
   -4   -7   20     -2.02      0.00
   -2   -7   20      0.27      0.00
   -1   -7   20     -0.94      0.00
    1   -7   20     -0.68      0.00
    2   -7   20      0.96      0.00
    3   -7   20     -0.36      0.00
    4   -7   20      0.23      0.00
  -12   -6   20     -0.79      0.00
  -11   -6   20      1.22      0.00
  -10   -6   20     -0.11      0.00
   -9   -6   20      0.54      0.00
   -8   -6   20      1.38      0.00
   -7   -6   20     -0.62      0.00
   -6   -6   20     -0.12      0.00
   -5   -6   20     -2.63      0.00
   -4   -6   20     -1.59      0.00
   -3   -6   20      1.81      0.00
   -2   -6   20     -0.56      0.00
   -1   -6   20     -0.24      0.00
    0   -6   20      0.20      0.00
    1   -6   20      0.55      0.00
    2   -6   20     -0.01      0.00
    3   -6   20      0.33      0.00
  -12   -5   20      0.41      0.00
  -11   -5   20     -0.46      0.00
  -10   -5   20      0.21      0.00
   -9   -5   20     -1.01      0.00
   -8   -5   20      2.56      0.00
   -7   -5   20     -1.71      0.00
   -6   -5   20      0.99      0.00
   -5   -5   20     -1.32      0.00
   -4   -5   20     -1.16      0.00
   -3   -5   20      4.06      0.00
   -2   -5   20      0.15      0.00
   -1   -5   20      0.37      0.00
    0   -5   20      0.31      0.00
    1   -5   20      0.06      0.00
    2   -5   20     -0.35      0.00
    3   -5   20      0.30      0.00
  -12   -4   20      0.84      0.00
  -11   -4   20      0.19      0.00
  -10   -4   20      0.59      0.00
   -9   -4   20      1.05      0.00
   -8   -4   20      1.20      0.00
   -7   -4   20     -1.28      0.00
   -6   -4   20     -0.55      0.00
   -5   -4   20     -0.37      0.00
   -3   -4   20      2.98      0.00
   -2   -4   20      0.48      0.00
   -1   -4   20     -0.20      0.00
    1   -4   20      0.94      0.00
    2   -4   20     -0.39      0.00
  -12   -3   20     -0.63      0.00
  -11   -3   20      0.03      0.00
  -10   -3   20     -0.32      0.00
   -9   -3   20     -0.79      0.00
   -8   -3   20      2.46      0.00
   -7   -3   20     -1.43      0.00
   -6   -3   20     -0.65      0.00
   -5   -3   20      1.11      0.00
   -4   -3   20     -0.40      0.00
   -3   -3   20      0.61      0.00
   -2   -3   20      1.99      0.00
   -1   -3   20      0.31      0.00
    0   -3   20     -1.36      0.00
    1   -3   20      0.47      0.00
  -12   -2   20     -0.17      0.00
  -11   -2   20     -0.05      0.00
  -10   -2   20      1.19      0.00
   -9   -2   20     -0.22      0.00
   -8   -2   20      1.00      0.00
   -7   -2   20     -0.47      0.00
   -6   -2   20     -0.55      0.00
   -5   -2   20     -1.60      0.00
   -4   -2   20      0.04      0.00
   -3   -2   20      0.76      0.00
   -2   -2   20      0.60      0.00
   -1   -2   20      0.04      0.00
    0   -2   20     -1.51      0.00
  -11   -1   20      0.37      0.00
  -10   -1   20     -0.03      0.00
   -9   -1   20      0.49      0.00
   -8   -1   20     -0.01      0.00
   -7   -1   20     -0.78      0.00
   -6   -1   20     -0.28      0.00
   -5   -1   20      1.35      0.00
   -4   -1   20     -1.01      0.00
   -3   -1   20      1.68      0.00
   -2   -1   20      0.55      0.00
   -1   -1   20     -0.72      0.00
  -10    0   20      0.63      0.00
   -9    0   20      0.66      0.00
   -8    0   20      1.27      0.00
   -7    0   20     -0.27      0.00
   -6    0   20     -1.27      0.00
   -5    0   20      0.14      0.00
   -4    0   20     -0.43      0.00
   -3    0   20     -0.41      0.00
   -2    0   20      2.07      0.00
   -9    1   20      0.30      0.00
   -8    1   20     -0.38      0.00
   -7    1   20      0.01      0.00
   -6    1   20     -1.32      0.00
   -5    1   20      0.46      0.00
   -4    1   20      0.62      0.00
   -5  -15   21     -2.20      0.00
   -4  -15   21      1.99      0.00
   -3  -15   21     -2.62      0.00
   -2  -15   21      2.81      0.00
   -1  -15   21      0.63      0.00
    0  -15   21      1.98      0.00
    1  -15   21     -1.06      0.00
   -6  -14   21      1.34      0.00
   -5  -14   21     -1.32      0.00
   -4  -14   21      1.56      0.00
   -3  -14   21     -0.23      0.00
   -2  -14   21     -0.58      0.00
   -1  -14   21     -1.81      0.00
    0  -14   21     -1.97      0.00
    1  -14   21      0.47      0.00
    2  -14   21     -0.97      0.00
   -7  -13   21     -0.83      0.00
   -6  -13   21      0.87      0.00
   -5  -13   21     -0.71      0.00
   -4  -13   21     -1.23      0.00
   -3  -13   21     -3.09      0.00
   -2  -13   21      5.91      0.00
   -1  -13   21      0.64      0.00
    0  -13   21      0.90      0.00
    1  -13   21     -1.26      0.00
    2  -13   21     -0.36      0.00
   -8  -12   21      0.57      0.00
   -7  -12   21      0.31      0.00
   -6  -12   21     -0.67      0.00
   -5  -12   21      4.48      0.00
   -4  -12   21     -1.38      0.00
   -3  -12   21      2.06      0.00
   -2  -12   21     -0.54      0.00
   -1  -12   21      0.62      0.00
    0  -12   21     -2.62      0.00
    1  -12   21      0.49      0.00
    2  -12   21     -1.42      0.00
    3  -12   21      5.29      0.00
   -9  -11   21     -1.46      0.00
   -8  -11   21      0.93      0.00
   -6  -11   21     -1.10      0.00
   -5  -11   21      4.26      0.00
   -4  -11   21     -5.94      0.00
   -3  -11   21      1.75      0.00
   -2  -11   21      1.71      0.00
    0  -11   21     -1.85      0.00
    1  -11   21      0.02      0.00
    2  -11   21     -1.24      0.00
    3  -11   21     -0.50      0.00
  -10  -10   21      0.78      0.00
   -9  -10   21      0.03      0.00
   -8  -10   21     -0.81      0.00
   -7  -10   21      1.06      0.00
   -6  -10   21     -1.74      0.00
   -5  -10   21      5.83      0.00
   -4  -10   21     -4.91      0.00
   -2  -10   21     -1.28      0.00
   -1  -10   21     -0.31      0.00
    0  -10   21     -1.80      0.00
    1  -10   21     -1.31      0.00
    2  -10   21      1.01      0.00
    3  -10   21      1.24      0.00
  -10   -9   21     -0.50      0.00
   -9   -9   21      0.00      0.00
   -8   -9   21     -0.52      0.00
   -7   -9   21      0.47      0.00
   -6   -9   21     -0.79      0.00
   -5   -9   21      4.17      0.00
   -4   -9   21     -3.12      0.00
   -3   -9   21     -0.64      0.00
   -2   -9   21      1.96      0.00
   -1   -9   21     -0.39      0.00
    0   -9   21     -0.55      0.00
    1   -9   21     -1.17      0.00
    2   -9   21     -0.01      0.00
  -10   -8   21      0.34      0.00
   -9   -8   21      0.15      0.00
   -8   -8   21     -0.33      0.00
   -7   -8   21     -0.80      0.00
   -6   -8   21     -0.10      0.00
   -5   -8   21      1.62      0.00
   -4   -8   21     -1.66      0.00
   -3   -8   21     -2.40      0.00
   -2   -8   21     -0.13      0.00
   -1   -8   21     -0.19      0.00
    0   -8   21     -0.30      0.00
    1   -8   21      0.77      0.00
    2   -8   21      0.02      0.00
  -11   -7   21     -0.92      0.00
  -10   -7   21     -0.41      0.00
   -9   -7   21     -1.08      0.00
   -8   -7   21     -0.30      0.00
   -7   -7   21     -0.04      0.00
   -6   -7   21     -0.72      0.00
   -5   -7   21      3.37      0.00
   -4   -7   21     -0.24      0.00
   -3   -7   21     -1.67      0.00
   -2   -7   21      2.63      0.00
   -1   -7   21     -0.34      0.00
    0   -7   21     -0.12      0.00
    1   -7   21      0.04      0.00
    2   -7   21      0.72      0.00
  -11   -6   21     -0.05      0.00
  -10   -6   21     -0.03      0.00
   -9   -6   21      0.84      0.00
   -8   -6   21     -1.95      0.00
   -7   -6   21      1.58      0.00
   -6   -6   21     -1.95      0.00
   -5   -6   21      1.53      0.00
   -4   -6   21      0.93      0.00
   -3   -6   21     -4.53      0.00
   -2   -6   21      0.99      0.00
    0   -6   21     -0.04      0.00
    1   -6   21      0.31      0.00
  -11   -5   21     -0.05      0.00
  -10   -5   21     -1.08      0.00
   -9   -5   21     -0.51      0.00
   -8   -5   21     -1.46      0.00
   -7   -5   21      1.93      0.00
   -6   -5   21      0.40      0.00
   -5   -5   21     -0.27      0.00
   -4   -5   21      3.43      0.00
   -3   -5   21     -2.20      0.00
   -2   -5   21      0.05      0.00
   -1   -5   21      0.47      0.00
    0   -5   21      0.93      0.00
  -10   -4   21     -0.63      0.00
   -9   -4   21      1.29      0.00
   -8   -4   21     -2.52      0.00
   -7   -4   21      0.32      0.00
   -6   -4   21      1.72      0.00
   -5   -4   21     -0.47      0.00
   -3   -4   21      0.09      0.00
   -2   -4   21     -1.30      0.00
   -1   -4   21      0.40      0.00
    0   -4   21      0.66      0.00
  -10   -3   21     -2.03      0.00
   -9   -3   21     -0.45      0.00
   -8   -3   21      0.37      0.00
   -7   -3   21     -0.21      0.00
   -6   -3   21      0.53      0.00
   -5   -3   21      2.58      0.00
   -4   -3   21     -0.44      0.00
   -3   -3   21     -0.31      0.00
   -2   -3   21     -0.45      0.00
   -1   -3   21     -0.08      0.00
   -9   -2   21     -1.09      0.00
   -8   -2   21      0.35      0.00
   -7   -2   21      0.65      0.00
   -6   -2   21      0.33      0.00
   -5   -2   21     -0.34      0.00
   -4   -2   21      0.22      0.00
   -3   -2   21     -1.05      0.00
   -7   -1   21      0.31      0.00
   -6   -1   21      0.82      0.00
   -4  -13   22      1.46      0.00
   -3  -13   22     -1.95      0.00
   -2  -13   22      2.60      0.00
   -6  -12   22      1.47      0.00
   -5  -12   22     -1.08      0.00
   -4  -12   22      4.31      0.00
   -3  -12   22     -1.42      0.00
   -1  -12   22     -0.64      0.00
   -7  -11   22      0.27      0.00
   -6  -11   22     -0.15      0.00
   -5  -11   22     -1.83      0.00
   -4  -11   22      2.39      0.00
   -3  -11   22     -2.29      0.00
   -2  -11   22      1.51      0.00
   -1  -11   22     -0.68      0.00
    0  -11   22      0.80      0.00
   -7  -10   22      1.55      0.00
   -6  -10   22     -2.01      0.00
   -5  -10   22     -1.27      0.00
   -4  -10   22      2.75      0.00
   -2  -10   22     -1.32      0.00
   -1  -10   22     -0.07      0.00
    0  -10   22      0.02      0.00
   -8   -9   22     -1.23      0.00
   -6   -9   22     -1.35      0.00
   -5   -9   22     -2.16      0.00
   -4   -9   22      3.20      0.00
   -3   -9   22     -1.38      0.00
   -2   -9   22      0.04      0.00
   -1   -9   22      1.17      0.00
    0   -9   22     -0.50      0.00
   -8   -8   22     -2.18      0.00
   -7   -8   22      1.29      0.00
   -6   -8   22     -0.45      0.00
   -5   -8   22     -3.56      0.00
   -3   -8   22     -0.10      0.00
   -2   -8   22     -2.09      0.00
   -8   -7   22     -0.35      0.00
   -7   -7   22     -0.65      0.00
   -5   -7   22     -2.71      0.00
   -4   -7   22      0.65      0.00
   -3   -7   22      2.95      0.00
   -2   -7   22     -0.33      0.00
   -1   -7   22      0.38      0.00
   -8   -6   22      0.48      0.00
   -7   -6   22     -2.13      0.00
   -6   -6   22      0.78      0.00
   -5   -6   22     -0.38      0.00
   -4   -6   22     -1.69      0.00
   -3   -6   22      1.61      0.00
   -2   -6   22      0.07      0.00
   -7   -5   22      0.23      0.00
   -6   -5   22     -0.67      0.00
   -5   -5   22     -0.32      0.00
   -4   -5   22      1.34      0.00
   -3   -5   22      0.35      0.00
    1    0    0    -43.69      0.00
  -14    1    0     -1.31      0.00
   -7    1    0     -2.18      0.00
   -5    1    0      9.80      0.00
   -4    1    0      1.82      0.00
   -1    1    0    -40.64      0.00
    0    1    0     13.44      0.00
    2    1    0    -29.54      0.00
   18    1    0     -1.50      0.00
   -9    2    0     -1.80      0.00
   -3    2    0    -20.00      0.00
    2    2    0     -2.12      0.00
  -13    3    0      0.68      0.00
  -11    3    0      0.13      0.00
   -4    3    0      8.07      0.00
    2    3    0    -19.81      0.00
  -13    4    0     -0.03      0.00
    2    4    0     -5.94      0.00
  -14    5    0      0.57      0.00
   10    5    0     -0.64      0.00
   11    5    0      0.05      0.00
  -16    6    0     -1.01      0.00
    1    6    0      0.66      0.00
  -18    8    0     -0.87      0.00
  -19    9    0      0.76      0.00
  -19   10    0     -1.47      0.00
   13   10    0     -0.27      0.00
  -18   13    0     -0.45      0.00
   -4   14    0     -1.34      0.00
    9   14    0      0.25      0.00
    8   15    0     -0.24      0.00
  -16   16    0     -0.18      0.00
   -5   16    0      1.11      0.00
    3   16    0      0.65      0.00
    4   16    0     -0.57      0.00
  -15   17    0      0.03      0.00
    5   17    0     -0.75      0.00
    3   18    0     -0.99      0.00
  -12   19    0      0.50      0.00
   -9   20    0     -0.08      0.00
   -8   20    0      0.87      0.00
   -3   20    0     -1.21      0.00
    1  -20    1     -0.22      0.00
   10  -20    1     -0.53      0.00
   -2  -19    1      0.75      0.00
   -4  -18    1     -0.24      0.00
   14  -18    1     -0.87      0.00
   -4  -17    1      1.24      0.00
   -1  -17    1      0.09      0.00
   15  -17    1     -0.31      0.00
   -5  -16    1     -0.34      0.00
    0  -16    1      1.31      0.00
    4  -16    1      1.81      0.00
   16  -16    1      0.12      0.00
    4  -15    1      1.19      0.00
    7  -14    1      1.33      0.00
    4  -13    1      0.01      0.00
   18  -13    1     -0.06      0.00
   18   -9    1      0.68      0.00
   19   -9    1      0.60      0.00
  -15   -8    1      0.42      0.00
   15   -6    1     -0.77      0.00
   13   -5    1     -0.87      0.00
   14   -5    1      1.12      0.00
   19   -5    1     -0.91      0.00
  -11   -4    1      0.10      0.00
   -1   -4    1     -0.85      0.00
    3   -4    1     -5.06      0.00
   12   -4    1      1.82      0.00
   19   -4    1     -0.14      0.00
   -2   -3    1    -12.23      0.00
   10   -3    1     -1.28      0.00
   11   -3    1      0.45      0.00
  -18   -2    1     -0.18      0.00
   -2   -2    1     23.80      0.00
   -1   -2    1    -15.23      0.00
    0   -2    1      1.67      0.00
    1   -2    1     36.12      0.00
    3   -2    1      8.29      0.00
    8   -2    1     -1.22      0.00
   -1   -1    1     30.43      0.00
    0   -1    1    -88.26      0.00
    1   -1    1     40.94      0.00
   -1    0    1     22.86      0.00
    0    0    1      2.97      0.00
    4    0    1      2.66      0.00
   18    0    1      2.21      0.00
  -19    1    1      0.85      0.00
   -7    1    1     -3.73      0.00
   -4    1    1      3.55      0.00
   -1    1    1    -21.25      0.00
    0    1    1    -32.11      0.00
  -10    2    1     -0.87      0.00
   -4    2    1     -4.35      0.00
   -1    2    1     -1.65      0.00
    1    2    1    -13.64      0.00
    2    2    1     17.17      0.00
  -12    3    1     -0.45      0.00
   11    3    1     -0.19      0.00
   17    3    1     -1.29      0.00
  -13    4    1      0.13      0.00
  -15    5    1      1.95      0.00
    1    5    1      2.11      0.00
   16    5    1      0.00      0.00
  -16    6    1     -0.93      0.00
  -11    6    1     -0.12      0.00
   14    8    1      0.23      0.00
    1    9    1      0.64      0.00
  -19   10    1     -0.04      0.00
  -18   13    1      0.04      0.00
   -4   14    1      0.15      0.00
   -5   15    1     -1.21      0.00
   -7   17    1     -0.78      0.00
    4   17    1     -1.17      0.00
  -13   18    1      0.63      0.00
    2   18    1      0.04      0.00
  -11   19    1     -0.37      0.00
   -1   19    1     -0.10      0.00
    5  -21    2     -0.18      0.00
    6  -21    2      0.85      0.00
    0  -20    2      1.62      0.00
   11  -20    2     -1.11      0.00
   -3  -19    2      0.51      0.00
   13  -19    2      0.92      0.00
   -4  -18    2     -0.58      0.00
   -5  -17    2     -0.03      0.00
   -4  -17    2      1.20      0.00
   -3  -17    2     -0.78      0.00
    0  -17    2     -0.96      0.00
   -8  -16    2     -0.04      0.00
   -5  -16    2     -0.18      0.00
   16  -16    2     -0.13      0.00
    4  -15    2     -1.26      0.00
    3  -14    2      0.60      0.00
  -14  -10    2     -0.38      0.00
   18   -9    2      0.38      0.00
   17   -8    2     -0.40      0.00
  -16   -7    2      0.13      0.00
   15   -6    2     -0.32      0.00
  -17   -5    2     -1.12      0.00
   13   -5    2      0.44      0.00
    1   -4    2     16.59      0.00
    2   -4    2     -8.22      0.00
    3   -4    2     -6.66      0.00
   12   -4    2      0.04      0.00
  -18   -3    2      0.99      0.00
   -3   -3    2     -0.44      0.00
   -2   -3    2    -16.42      0.00
   10   -3    2      1.37      0.00
  -10   -2    2      0.23      0.00
    7   -2    2      3.32      0.00
   -1   -1    2      2.88      0.00
    0   -1    2    -12.49      0.00
    7   -1    2      1.99      0.00
   18   -1    2     -1.08      0.00
  -19    0    2     -0.46      0.00
  -15    0    2      0.98      0.00
   -5    0    2    -11.13      0.00
   -3    0    2      4.29      0.00
   -1    0    2     26.85      0.00
   12    0    2     -1.46      0.00
   -8    1    2     -0.48      0.00
    4    1    2     -3.57      0.00
  -11    2    2      0.56      0.00
   -4    2    2    -15.38      0.00
   -1    2    2     12.82      0.00
   17    2    2      0.76      0.00
  -12    3    2     -1.19      0.00
  -14    4    2      0.21      0.00
   16    4    2      0.00      0.00
  -15    5    2     -0.11      0.00
   -1    5    2      4.80      0.00
    1    8    2     -1.94      0.00
  -19   10    2     -0.50      0.00
   12   10    2      0.50      0.00
   11   11    2     -0.81      0.00
   10   12    2      0.51      0.00
    9   13    2     -0.11      0.00
    0   15    2      0.05      0.00
  -14   17    2     -1.42      0.00
    3   17    2     -0.15      0.00
   -7   18    2     -0.27      0.00
  -10   19    2      1.53      0.00
   -3   19    2      0.77      0.00
    2  -21    3     -0.47      0.00
    3  -21    3      0.30      0.00
    8  -21    3      1.15      0.00
   -1  -20    3      0.42      0.00
   11  -20    3     -0.74      0.00
   13  -19    3      0.32      0.00
   -4  -18    3     -0.82      0.00
   -2  -18    3      1.10      0.00
   -1  -18    3      0.32      0.00
   -7  -17    3     -0.06      0.00
    0  -17    3     -1.96      0.00
    1  -17    3     -1.01      0.00
    7  -17    3     -2.28      0.00
    4  -16    3      1.87      0.00
   16  -16    3     -0.38      0.00
    3  -15    3      0.40      0.00
    3  -13    3     -0.39      0.00
   18  -12    3     -0.93      0.00
   -9  -11    3     -0.61      0.00
   18  -10    3     -0.29      0.00
  -15   -9    3     -0.42      0.00
   17   -9    3      0.77      0.00
   16   -8    3     -0.88      0.00
   14   -6    3      1.15      0.00
  -11   -5    3      0.32      0.00
   12   -5    3     -0.42      0.00
   11   -4    3      1.11      0.00
  -13   -3    3      0.56      0.00
   -6   -3    3     -0.70      0.00
    9   -3    3     -0.02      0.00
  -15   -2    3      0.97      0.00
   -2   -2    3      3.74      0.00
   -2   -1    3      5.56      0.00
   -1    0    3     -5.22      0.00
   -9    1    3     -1.71      0.00
   17    1    3     -0.20      0.00
  -11    2    3     -0.08      0.00
    7    2    3     -0.34      0.00
  -13    3    3     -0.30      0.00
   16    3    3     -0.04      0.00
  -14    4    3     -0.17      0.00
  -12    4    3      0.65      0.00
    1    4    3     -2.70      0.00
  -16    5    3      0.29      0.00
  -14    5    3     -0.17      0.00
  -13    5    3      0.32      0.00
   -3    5    3      1.94      0.00
    0    5    3      0.71      0.00
    1    5    3      2.27      0.00
   15    5    3     -0.20      0.00
   -3    6    3      1.94      0.00
   11    7    3      0.17      0.00
   13    8    3      0.57      0.00
  -19   10    3      0.69      0.00
    0   12    3     -0.12      0.00
    8   13    3     -0.50      0.00
  -17   14    3      0.68      0.00
   -5   14    3      1.83      0.00
    0   14    3      0.05      0.00
    1   14    3      0.51      0.00
  -16   15    3     -1.38      0.00
   -7   15    3     -0.59      0.00
    3   15    3     -0.09      0.00
  -15   16    3      0.24      0.00
   -8   16    3     -0.69      0.00
  -11   18    3      0.55      0.00
   -1   18    3      0.82      0.00
    1  -21    4     -1.25      0.00
    9  -21    4     -0.58      0.00
   -2  -20    4     -1.11      0.00
   -4  -19    4      0.01      0.00
    7  -19    4     -1.35      0.00
   13  -19    4     -0.20      0.00
   -6  -18    4      1.24      0.00
   -4  -18    4      0.38      0.00
   -2  -18    4      0.79      0.00
    0  -18    4      3.21      0.00
   -6  -17    4      0.91      0.00
   -5  -17    4      0.88      0.00
    6  -17    4      1.08      0.00
   -9  -16    4     -0.03      0.00
    6  -16    4      2.72      0.00
   16  -16    4     -0.09      0.00
    4  -14    4     -0.46      0.00
   17  -14    4      0.11      0.00
  -14  -11    4      0.51      0.00
   18  -11    4      0.49      0.00
   18  -10    4      1.35      0.00
   17   -9    4     -0.52      0.00
  -16   -8    4      0.18      0.00
   16   -8    4      0.00      0.00
   -4   -7    4     -3.33      0.00
   14   -7    4     -1.09      0.00
   15   -7    4      0.68      0.00
   13   -6    4     -0.11      0.00
   12   -5    4     -0.06      0.00
  -18   -4    4     -0.87      0.00
   10   -4    4      0.73      0.00
   18   -4    4     -0.02      0.00
    8   -3    4      0.09      0.00
  -12   -2    4     -0.58      0.00
  -19   -1    4     -0.26      0.00
  -15   -1    4     -1.07      0.00
   -9    1    4      0.93      0.00
  -12    2    4     -0.91      0.00
  -11    2    4      1.42      0.00
   12    2    4     -0.66      0.00
   16    2    4     -0.17      0.00
  -13    3    4      0.69      0.00
  -15    4    4     -0.73      0.00
    0    4    4     -0.89      0.00
    8    4    4      0.29      0.00
   15    4    4      0.20      0.00
  -16    5    4      0.87      0.00
   13    7    4     -0.07      0.00
   10    8    4      0.19      0.00
  -19   10    4     -0.17      0.00
  -18   12    4      0.09      0.00
    6   14    4     -0.73      0.00
    0   17    4      0.63      0.00
  -10   18    4     -0.73      0.00
   -4   18    4      0.87      0.00
   -3   18    4     -0.76      0.00
    0  -21    5     -1.53      0.00
    9  -21    5      0.10      0.00
   -3  -20    5      0.50      0.00
   -5  -19    5      1.24      0.00
   -2  -19    5     -1.17      0.00
   13  -19    5     -0.08      0.00
   -8  -17    5      0.72      0.00
   16  -16    5     -0.90      0.00
    3  -14    5     -0.62      0.00
    6  -13    5     -1.63      0.00
    5  -12    5      1.12      0.00
  -15  -10    5      0.02      0.00
   17  -10    5      0.17      0.00
   16   -9    5      0.43      0.00
   18   -9    5     -0.65      0.00
   15   -8    5     -0.98      0.00
   18   -8    5     -0.85      0.00
   14   -7    5      0.21      0.00
   18   -7    5     -0.61      0.00
  -13   -6    5      0.73      0.00
   12   -6    5      1.02      0.00
   11   -5    5     -0.08      0.00
    9   -4    5     -0.47      0.00
   17   -2    5     -0.21      0.00
  -14    0    5     -1.38      0.00
   -3    0    5      2.27      0.00
  -10    1    5     -0.54      0.00
    9    1    5     -0.58      0.00
   16    1    5      0.03      0.00
  -12    2    5      0.32      0.00
  -14    3    5     -0.22      0.00
   15    3    5      0.33      0.00
  -15    4    5      1.16      0.00
  -14    4    5     -0.21      0.00
  -16    5    5      0.54      0.00
   -5   12    5      1.53      0.00
  -17   13    5     -1.66      0.00
  -16   14    5     -1.42      0.00
  -15   15    5     -0.01      0.00
    3   15    5      0.08      0.00
    1   16    5     -0.08      0.00
  -11   17    5     -0.25      0.00
   -2   17    5     -1.19      0.00
    5  -22    6     -0.82      0.00
   -1  -21    6      0.01      0.00
    2  -21    6      0.45      0.00
   10  -21    6     -0.02      0.00
    7  -20    6      0.81      0.00
   -4  -19    6     -0.08      0.00
   -2  -19    6      0.39      0.00
    2  -19    6      3.07      0.00
   13  -19    6      0.06      0.00
   -7  -18    6      1.41      0.00
    3  -18    6      2.62      0.00
    4  -18    6     -2.39      0.00
   14  -18    6     -0.75      0.00
    5  -17    6     -0.02      0.00
   15  -17    6     -0.16      0.00
    1  -16    6      1.32      0.00
    5  -16    6     -0.96      0.00
  -11  -15    6      0.94      0.00
    2  -15    6     -2.70      0.00
    4  -15    6     -0.17      0.00
    6  -15    6      4.42      0.00
  -12  -14    6      0.02      0.00
    0  -14    6     -1.67      0.00
    5  -14    6     -5.53      0.00
    3  -13    6     -3.52      0.00
    5  -13    6     -1.72      0.00
   17  -13    6      0.56      0.00
   17  -10    6      0.37      0.00
   15   -9    6      0.70      0.00
   16   -9    6     -0.44      0.00
   14   -8    6     -0.58      0.00
  -17   -7    6      0.40      0.00
   13   -7    6     -0.08      0.00
   -2   -6    6     -2.44      0.00
   11   -6    6      0.24      0.00
  -18   -5    6     -0.03      0.00
   10   -5    6      0.05      0.00
   17   -4    6     -0.34      0.00
   -3   -3    6      4.57      0.00
  -19   -2    6     -0.75      0.00
    8    0    6     -0.84      0.00
    7    3    6     -0.70      0.00
   11    5    6      0.20      0.00
    1    8    6      0.78      0.00
  -19    9    6      0.85      0.00
   10    9    6     -0.10      0.00
    9   10    6      0.20      0.00
  -18   11    6      0.10      0.00
   -5   11    6      0.00      0.00
   -1   16    6     -0.33      0.00
   -9   17    6      0.27      0.00
   -8   17    6     -0.84      0.00
   -7   17    6      0.84      0.00
   -6   17    6      0.10      0.00
   -5   17    6     -0.52      0.00
    3  -22    7     -0.64      0.00
    4  -22    7      1.14      0.00
    5  -22    7      0.28      0.00
    6  -22    7     -0.25      0.00
   10  -21    7     -0.39      0.00
   -4  -20    7      0.24      0.00
   -3  -20    7      1.03      0.00
    2  -20    7     -3.20      0.00
   -6  -19    7      1.08      0.00
    0  -19    7     -0.01      0.00
    1  -19    7     -0.63      0.00
    3  -19    7     -4.02      0.00
   13  -19    7     -1.50      0.00
    7  -18    7      1.56      0.00
   14  -18    7     -0.26      0.00
   -9  -17    7     -1.02      0.00
    2  -17    7      3.32      0.00
    4  -17    7      1.90      0.00
    6  -17    7     -0.01      0.00
    3  -16    7     -1.64      0.00
    6  -16    7     -4.30      0.00
    2  -14    7     -0.92      0.00
    4  -14    7     -2.92      0.00
  -14  -12    7      0.02      0.00
    4  -12    7      0.66      0.00
   17  -11    7     -0.16      0.00
   16  -10    7     -0.30      0.00
  -16   -9    7      0.21      0.00
   15   -9    7     -0.19      0.00
   13   -8    7     -0.86      0.00
   14   -8    7      0.95      0.00
   -1   -7    7     -1.21      0.00
   12   -7    7      0.52      0.00
   17   -7    7     -0.07      0.00
   17   -6    7     -0.59      0.00
  -18   -5    7     -0.85      0.00
   -3   -4    7     -2.85      0.00
  -19   -2    7      0.78      0.00
   16   -2    7     -0.11      0.00
  -14   -1    7      0.69      0.00
   -4    0    7      3.07      0.00
    5    4    7     -1.13      0.00
   13    4    7      0.67      0.00
    6    5    7     -0.52      0.00
    4    6    7      0.14      0.00
    5    6    7      0.73      0.00
    4    7    7      1.66      0.00
  -19    8    7     -0.44      0.00
   10    8    7     -0.91      0.00
    9    9    7      0.11      0.00
    8   10    7      0.00      0.00
    2   11    7      0.03      0.00
  -17   12    7     -1.05      0.00
  -16   13    7      0.63      0.00
    4   13    7      0.30      0.00
  -15   14    7      0.31      0.00
  -13   15    7     -0.39      0.00
    0   15    7     -0.37      0.00
  -11   16    7     -0.14      0.00
   -3   16    7     -0.34      0.00
    2  -22    8      1.39      0.00
    3  -22    8     -1.63      0.00
    6  -22    8     -0.35      0.00
   -2  -21    8      0.93      0.00
   -2  -20    8      0.87      0.00
    1  -20    8      0.78      0.00
    2  -20    8     -0.55      0.00
    1  -19    8      0.68      0.00
    3  -19    8     -1.37      0.00
    6  -19    8      0.15      0.00
    9  -18    8     -0.24      0.00
    0  -16    8      1.38      0.00
   15  -16    8     -0.21      0.00
    2  -15    8     -4.24      0.00
   -9  -14    8     -1.35      0.00
   -7  -13    8      0.69      0.00
    1  -13    8     -0.73      0.00
    2  -13    8     -0.91      0.00
    3  -13    8      0.67      0.00
    4  -13    8      0.45      0.00
    3  -12    8      2.64      0.00
   16  -11    8     -0.16      0.00
   15  -10    8     -0.11      0.00
   14   -9    8     -1.44      0.00
   12   -8    8     -0.67      0.00
   13   -8    8      1.02      0.00
   16   -4    8      0.06      0.00
  -19   -2    8     -0.44      0.00
   15   -1    8      1.50      0.00
   14    1    8      0.59      0.00
   13    3    8      0.33      0.00
   -1    6    8      2.14      0.00
  -19    7    8      0.42      0.00
   10    7    8      0.64      0.00
    3    8    8     -0.80      0.00
    4    8    8     -0.71      0.00
    9    8    8     -1.05      0.00
    8    9    8      0.65      0.00
    7   10    8      0.32      0.00
  -17   11    8      0.93      0.00
  -14   14    8     -1.84      0.00
   -2   15    8      0.66      0.00
    1  -22    9      1.29      0.00
    2  -22    9     -1.56      0.00
    5  -22    9     -0.70      0.00
    6  -22    9     -0.18      0.00
    9  -21    9      0.10      0.00
   -1  -20    9      0.34      0.00
    1  -20    9      0.15      0.00
    2  -20    9     -1.51      0.00
   11  -20    9     -0.01      0.00
    1  -19    9      1.10      0.00
    7  -19    9      0.56      0.00
   -8  -18    9     -2.57      0.00
    1  -18    9      1.05      0.00
   14  -17    9      0.67      0.00
   -9  -16    9      0.09      0.00
    0  -15    9      1.25      0.00
   15  -15    9      0.42      0.00
    2  -14    9      2.73      0.00
  -12  -13    9     -0.66      0.00
  -10  -13    9      0.76      0.00
    2  -12    9      2.62      0.00
   16  -12    9     -0.08      0.00
  -15  -11    9     -0.05      0.00
    1  -11    9     -2.00      0.00
    2  -11    9     -0.28      0.00
   15  -11    9      0.04      0.00
   16  -11    9      0.15      0.00
   14  -10    9      1.29      0.00
   13   -9    9     -0.83      0.00
   16   -8    9      0.25      0.00
   16   -7    9     -0.01      0.00
  -12   -6    9     -0.33      0.00
   15   -3    9     -0.26      0.00
  -19   -2    9     -0.12      0.00
    8    2    9      0.69      0.00
    4    5    9      1.56      0.00
  -19    6    9     -0.73      0.00
    4    6    9      0.48      0.00
    5    6    9      1.19      0.00
   10    6    9     -0.92      0.00
    9    7    9      1.50      0.00
   -6    8    9      4.19      0.00
    8    8    9     -1.97      0.00
    3    9    9      0.18      0.00
    4    9    9      0.61      0.00
    7    9    9      0.56      0.00
    3   10    9      0.19      0.00
    3   12    9      0.44      0.00
  -14   13    9      2.14      0.00
    1   13    9      0.33      0.00
  -12   14    9     -0.48      0.00
   -8   15    9     -0.05      0.00
   -7   15    9      0.06      0.00
   -6   15    9      1.09      0.00
    1  -22   10     -0.38      0.00
    2  -22   10      0.24      0.00
    4  -22   10      0.40      0.00
    5  -22   10     -1.74      0.00
    6  -22   10      0.03      0.00
   -2  -21   10      0.19      0.00
    9  -21   10     -0.57      0.00
   -5  -20   10      0.76      0.00
    4  -20   10     -0.08      0.00
    5  -20   10     -1.32      0.00
    9  -19   10     -1.25      0.00
   12  -19   10     -0.67      0.00
   -8  -18   10     -0.06      0.00
    1  -18   10     -1.17      0.00
   14  -16   10     -0.44      0.00
   -9  -15   10      0.77      0.00
    2  -14   10      1.22      0.00
    3  -14   10      0.90      0.00
   15  -14   10     -0.56      0.00
  -12  -13   10     -1.62      0.00
  -11  -13   10      1.82      0.00
    2  -13   10     -1.35      0.00
    3  -13   10      1.68      0.00
    1  -12   10      1.75      0.00
   15  -12   10     -1.02      0.00
  -15  -11   10      0.02      0.00
    2  -11   10     -0.94      0.00
   14  -11   10     -0.69      0.00
   15  -11   10      0.32      0.00
    1  -10   10      0.25      0.00
   13  -10   10      0.93      0.00
   15   -8   10      0.24      0.00
  -18   -5   10      0.07      0.00
   15   -5   10      0.07      0.00
   14   -2   10     -0.11      0.00
  -19   -1   10      0.38      0.00
   12    2   10     -0.15      0.00
    7    3   10      0.15      0.00
    3    6   10     -0.59      0.00
    9    6   10     -1.94      0.00
    3    7   10     -0.07      0.00
    8    7   10      2.45      0.00
    7    8   10     -0.75      0.00
    3   11   10     -0.60      0.00
    1   12   10     -0.20      0.00
  -13   13   10     -0.18      0.00
   -1   13   10     -0.41      0.00
  -10   14   10     -0.65      0.00
   -9   14   10     -0.05      0.00
   -6   14   10     -1.26      0.00
   -5   14   10     -0.29      0.00
    1  -22   11     -0.62      0.00
    2  -22   11      0.34      0.00
    3  -22   11     -1.35      0.00
    4  -22   11     -1.25      0.00
    5  -22   11     -0.08      0.00
    0  -21   11      0.29      0.00
    2  -21   11      1.84      0.00
    3  -21   11      0.00      0.00
    4  -21   11      0.39      0.00
    8  -21   11     -0.64      0.00
   -5  -20   11     -0.07      0.00
    3  -20   11     -0.68      0.00
    5  -20   11     -0.18      0.00
   10  -20   11     -1.14      0.00
    3  -19   11     -0.44      0.00
   10  -19   11      0.37      0.00
    3  -17   11      0.12      0.00
   13  -17   11      0.07      0.00
   -2  -16   11      2.62      0.00
  -11  -15   11     -2.18      0.00
   14  -15   11      0.13      0.00
  -12  -14   11      2.32      0.00
  -13  -13   11      0.45      0.00
  -11  -12   11     -0.90      0.00
   14  -12   11      0.00      0.00
  -15  -11   11     -0.42      0.00
   14  -11   11      1.10      0.00
   15  -10   11      0.18      0.00
  -10   -7   11     -0.21      0.00
  -18   -5   11      0.65      0.00
   14   -4   11      0.40      0.00
  -19    0   11     -0.04      0.00
  -19    1   11     -0.30      0.00
  -19    2   11     -0.63      0.00
  -16    2   11     -0.09      0.00
   11    2   11     -0.42      0.00
    7    4   11     -0.27      0.00
    8    6   11     -1.72      0.00
    7    7   11      0.18      0.00
  -16    8   11     -0.14      0.00
  -15    8   11      0.10      0.00
  -15    9   11      1.27      0.00
    3   10   11      0.87      0.00
  -13   12   11     -0.26      0.00
   -1   12   11     -0.93      0.00
  -10   13   11     -0.08      0.00
   -5   13   11     -0.38      0.00
   -4   13   11     -0.35      0.00
    2  -22   12     -1.47      0.00
    3  -22   12      0.88      0.00
    4  -22   12     -0.67      0.00
    3  -21   12      1.94      0.00
    4  -21   12      0.71      0.00
    8  -21   12      0.89      0.00
   -5  -20   12     -1.54      0.00
    3  -19   12     -2.76      0.00
   13  -16   12     -0.40      0.00
  -10  -15   12      0.05      0.00
   -2  -15   12     -2.74      0.00
    4  -14   12      1.23      0.00
  -13  -13   12     -0.39      0.00
  -12  -13   12     -0.42      0.00
   14  -13   12      0.01      0.00
  -13  -12   12      0.11      0.00
   14  -12   12     -1.17      0.00
  -15  -11   12     -0.13      0.00
   -1  -11   12     -1.93      0.00
   10   -9   12      0.94      0.00
   14   -7   12     -0.43      0.00
   12   -1   12      0.43      0.00
  -18    5   12     -0.43      0.00
    5    7   12     -1.20      0.00
  -15    8   12     -2.30      0.00
   -1    8   12     -0.37      0.00
  -15    9   12     -0.33      0.00
    3    9   12     -0.61      0.00
  -13   11   12      0.37      0.00
   -1   11   12      1.08      0.00
  -10   12   12     -0.10      0.00
   -4   12   12      0.37      0.00
   -2  -21   13     -0.87      0.00
    5  -21   13      0.40      0.00
    6  -21   13      1.11      0.00
    7  -21   13     -0.50      0.00
   -5  -20   13      0.82      0.00
    9  -20   13      0.26      0.00
   10  -19   13     -0.35      0.00
   11  -18   13      1.26      0.00
   -2  -17   13      0.52      0.00
    2  -17   13     -3.07      0.00
    4  -14   13     -0.03      0.00
   13  -14   13      0.57      0.00
  -11  -13   13      0.58      0.00
  -13  -12   13      0.46      0.00
   -3  -12   13      1.23      0.00
   -1  -12   13      0.07      0.00
    1  -11   13     -2.24      0.00
   11  -11   13     -2.07      0.00
  -11  -10   13     -0.03      0.00
   -1  -10   13     -2.21      0.00
  -16   -9   13     -0.22      0.00
  -13   -9   13      0.45      0.00
   13   -6   13     -0.44      0.00
  -18   -3   13      0.54      0.00
   12   -3   13      0.56      0.00
   -3   -2   13      0.23      0.00
   11   -1   13      0.60      0.00
    9    2   13     -0.47      0.00
  -18    3   13      0.18      0.00
    4    5   13      0.01      0.00
  -17    6   13     -0.78      0.00
    1    8   13     -0.45      0.00
    3    8   13      0.35      0.00
    1    9   13     -1.59      0.00
  -13   10   13      0.02      0.00
   -1   10   13     -0.47      0.00
  -11   11   13     -1.67      0.00
   -4   11   13     -0.66      0.00
   -2  -21   14     -1.74      0.00
    5  -21   14      0.49      0.00
    6  -21   14      0.28      0.00
    8  -20   14      0.31      0.00
    9  -19   14     -0.01      0.00
   -8  -18   14     -0.26      0.00
   10  -18   14      0.25      0.00
   11  -17   14     -0.48      0.00
   -2  -16   14      0.81      0.00
    2  -16   14     -2.15      0.00
   12  -15   14     -0.60      0.00
    5  -14   14     -2.03      0.00
  -14  -12   14      0.58      0.00
  -12  -12   14     -0.49      0.00
  -11  -12   14     -0.59      0.00
   -1  -11   14      3.44      0.00
   10  -10   14      0.13      0.00
  -17   -6   14     -0.36      0.00
   12   -6   14     -0.11      0.00
   11   -3   14     -0.01      0.00
   10   -1   14     -1.05      0.00
    8    2   14      0.03      0.00
    7    3   14      0.18      0.00
  -17    4   14      0.21      0.00
   -3    4   14      1.53      0.00
    5    4   14      0.46      0.00
   -2    5   14     -0.23      0.00
    5    5   14      0.26      0.00
  -16    6   14     -0.15      0.00
    4    6   14     -0.06      0.00
  -14    8   14      0.20      0.00
    1    8   14      1.29      0.00
  -13    9   14      0.18      0.00
   -1    9   14     -0.46      0.00
  -10   10   14     -0.38      0.00
   -4   10   14     -0.29      0.00
   -1  -21   15     -0.13      0.00
    0  -21   15     -1.21      0.00
    3  -21   15     -3.02      0.00
    4  -21   15      0.35      0.00
   -4  -20   15      0.82      0.00
    7  -20   15      0.52      0.00
   -6  -19   15      0.04      0.00
    8  -19   15     -0.21      0.00
   -9  -17   15      0.16      0.00
   10  -17   15      0.21      0.00
   -1  -16   15      2.81      0.00
   11  -15   15      0.45      0.00
    3  -14   15      0.25      0.00
  -13  -13   15      0.27      0.00
   -3  -13   15      2.69      0.00
   -1  -13   15      0.68      0.00
   -4  -11   15     -1.28      0.00
   11  -11   15     -0.60      0.00
  -15  -10   15     -0.61      0.00
   -4  -10   15     -0.34      0.00
   -1  -10   15     -1.57      0.00
   -4   -9   15     -1.99      0.00
  -16   -8   15      1.11      0.00
    0   -8   15      0.88      0.00
   -2   -7   15      2.44      0.00
   11   -6   15      0.27      0.00
  -17   -5   15     -0.59      0.00
   -3   -5   15      0.93      0.00
  -17   -4   15     -0.15      0.00
   10   -3   15     -0.61      0.00
  -17    2   15      0.59      0.00
  -15    6   15      0.24      0.00
    2    6   15     -0.03      0.00
  -14    7   15     -0.06      0.00
   -9    7   15      0.59      0.00
  -10    9   15     -0.10      0.00
   -9    9   15      1.45      0.00
   -5    9   15     -0.40      0.00
   -3  -20   16     -0.45      0.00
    5  -20   16     -0.62      0.00
    7  -19   16      0.23      0.00
    8  -18   16      0.21      0.00
    9  -17   16     -0.41      0.00
  -10  -16   16     -1.10      0.00
  -11  -15   16      0.29      0.00
   10  -15   16     -0.05      0.00
   -6  -13   16      1.27      0.00
  -14  -11   16      0.78      0.00
    1  -11   16      0.43      0.00
   -4  -10   16      2.40      0.00
    0  -10   16      0.09      0.00
  -15   -9   16      2.01      0.00
   -5   -9   16     -2.55      0.00
   -2   -9   16     -1.26      0.00
    0   -9   16     -0.67      0.00
   -4   -8   16      0.96      0.00
   -2   -8   16     -3.39      0.00
   -4   -6   16      1.82      0.00
   10   -6   16     -0.03      0.00
    7    0   16     -1.18      0.00
    6    1   16      0.35      0.00
    5    2   16      0.34      0.00
    3    4   16     -0.06      0.00
   -6    6   16     -2.91      0.00
    0    6   16     -0.79      0.00
  -12    7   16     -0.84      0.00
   -4    7   16     -0.65      0.00
   -2    7   16      1.06      0.00
   -9    8   16      0.43      0.00
   -8    8   16     -1.95      0.00
   -7    8   16      1.65      0.00
   -6    8   16     -2.73      0.00
   -2  -20   17     -0.76      0.00
   -1  -20   17      0.23      0.00
    2  -20   17     -0.52      0.00
    3  -20   17      0.02      0.00
    7  -18   17      0.46      0.00
   -8  -17   17     -0.35      0.00
    8  -17   17      0.01      0.00
    9  -15   17     -0.45      0.00
    9  -14   17     -0.83      0.00
   -6  -13   17     -0.79      0.00
  -13  -12   17      0.32      0.00
  -14  -10   17      1.05      0.00
  -15   -8   17     -0.23      0.00
   -5   -8   17     -1.93      0.00
   -4   -8   17      2.00      0.00
   -5   -7   17      0.88      0.00
   -4   -6   17      1.54      0.00
   -2   -6   17      0.25      0.00
  -16   -4   17     -0.08      0.00
    8   -4   17     -0.42      0.00
  -16   -3   17     -1.17      0.00
  -16   -2   17     -0.43      0.00
    7   -2   17      0.89      0.00
  -16   -1   17     -0.87      0.00
  -15    2   17     -0.99      0.00
    1    4   17      0.43      0.00
   -1    5   17     -0.55      0.00
  -11    6   17      0.57      0.00
   -4    6   17      0.80      0.00
   -3    6   17      0.36      0.00
   -3  -19   18      0.90      0.00
    3  -19   18     -0.08      0.00
    4  -19   18      0.66      0.00
    5  -18   18     -0.43      0.00
    2  -17   18     -0.78      0.00
    7  -16   18      0.24      0.00
    1  -14   18     -2.29      0.00
    8  -14   18     -0.40      0.00
   -4  -13   18     -4.62      0.00
   -6  -12   18     -2.09      0.00
  -13  -11   18      0.42      0.00
   -5  -10   18      2.32      0.00
   -1  -10   18      2.04      0.00
  -14   -9   18      0.02      0.00
   -5   -8   18     -3.90      0.00
    8   -8   18     -0.87      0.00
   -5   -7   18     -0.21      0.00
    8   -7   18      0.68      0.00
  -15   -6   18      0.32      0.00
   -6   -6   18     -1.19      0.00
  -15   -5   18     -0.39      0.00
    7   -5   18      0.02      0.00
    6   -3   18      0.50      0.00
  -15   -2   18     -0.97      0.00
  -15   -1   18      0.03      0.00
  -13    3   18     -0.83      0.00
    0    3   18     -0.04      0.00
   -2    4   18     -0.36      0.00
   -9    5   18     -3.12      0.00
   -8    5   18     -1.45      0.00
   -7    5   18      0.47      0.00
   -6    5   18      0.33      0.00
   -5    5   18     -0.36      0.00
   -4  -18   19      0.08      0.00
    3  -18   19     -1.11      0.00
   -6  -17   19     -0.59      0.00
    1  -16   19     -1.00      0.00
   -9  -15   19      0.50      0.00
    6  -15   19      0.59      0.00
  -10  -14   19      0.05      0.00
   -4  -14   19      2.12      0.00
    7  -13   19     -0.35      0.00
   -5  -12   19     -0.88      0.00
    7  -12   19      0.22      0.00
   -5  -11   19     -2.31      0.00
    7  -10   19     -0.10      0.00
   -6   -9   19     -2.12      0.00
   -5   -9   19      7.33      0.00
    7   -9   19      0.07      0.00
   -6   -8   19     -2.75      0.00
   -5   -7   19      3.45      0.00
  -14   -6   19     -0.28      0.00
    6   -6   19      0.38      0.00
  -14   -5   19     -0.21      0.00
    5   -4   19      0.62      0.00
  -14   -3   19     -0.37      0.00
  -14   -2   19      0.15      0.00
   -1    2   19      0.97      0.00
  -10    3   19      0.02      0.00
   -4    3   19      0.28      0.00
   -4  -17   20      0.12      0.00
    1  -17   20      0.76      0.00
    2  -17   20     -0.18      0.00
   -6  -16   20      0.04      0.00
   -9  -14   20      0.12      0.00
    5  -14   20      0.33      0.00
    1  -12   20      1.41      0.00
    2  -12   20      1.02      0.00
  -11  -11   20     -0.57      0.00
   -8  -11   20     -0.12      0.00
   -5  -11   20     -3.97      0.00
    2  -11   20      1.31      0.00
    3  -11   20     -3.78      0.00
   -7  -10   20      1.03      0.00
  -12   -9   20      0.04      0.00
    5   -8   20     -0.45      0.00
   -6   -7   20      0.91      0.00
   -3   -7   20      4.44      0.00
    0   -7   20      1.27      0.00
  -13   -6   20     -0.22      0.00
    4   -6   20     -0.18      0.00
  -13   -5   20      0.81      0.00
  -13   -4   20     -1.26      0.00
   -4   -4   20     -3.48      0.00
    0   -4   20     -1.27      0.00
    3   -4   20     -0.20      0.00
    2   -3   20     -0.09      0.00
    1   -2   20      0.34      0.00
  -12   -1   20     -1.15      0.00
    0   -1   20     -0.71      0.00
  -11    0   20      0.38      0.00
   -1    0   20     -2.48      0.00
  -10    1   20      0.52      0.00
   -3    1   20     -0.41      0.00
   -4  -16   21     -0.02      0.00
   -3  -16   21      0.29      0.00
   -2  -16   21     -1.43      0.00
   -1  -16   21     -0.63      0.00
    0  -16   21     -0.79      0.00
   -6  -15   21      0.17      0.00
    2  -15   21     -0.76      0.00
   -7  -14   21     -1.06      0.00
    3  -14   21      3.09      0.00
   -8  -13   21      1.12      0.00
    3  -13   21     -0.70      0.00
   -9  -12   21     -0.01      0.00
  -10  -11   21     -0.18      0.00
   -7  -11   21      0.97      0.00
   -1  -11   21      2.18      0.00
   -3  -10   21      1.55      0.00
  -11   -9   21     -0.35      0.00
    3   -9   21      0.82      0.00
  -11   -8   21     -0.68      0.00
    3   -8   21      0.47      0.00
   -1   -6   21      0.84      0.00
    2   -6   21      0.71      0.00
    1   -5   21     -1.16      0.00
  -11   -4   21      0.10      0.00
   -4   -4   21     -0.56      0.00
  -10   -2   21     -0.23      0.00
   -2   -2   21     -0.19      0.00
   -9   -1   21     -0.80      0.00
   -8   -1   21     -0.01      0.00
   -5   -1   21      0.50      0.00
   -4   -1   21     -0.05      0.00
   -4  -14   22     -0.14      0.00
   -3  -14   22      2.35      0.00
   -2  -14   22     -4.81      0.00
   -1  -14   22      0.04      0.00
   -6  -13   22      1.17      0.00
   -5  -13   22     -2.23      0.00
   -1  -13   22      0.52      0.00
    0  -13   22      2.06      0.00
   -7  -12   22     -0.61      0.00
   -2  -12   22     -2.66      0.00
    0  -12   22      2.15      0.00
    1  -12   22     -0.30      0.00
   -8  -11   22      0.51      0.00
    1  -11   22      0.43      0.00
   -8  -10   22     -0.88      0.00
   -3  -10   22     -3.67      0.00
    1  -10   22      0.60      0.00
   -9   -9   22      0.16      0.00
   -7   -9   22      2.25      0.00
    1   -9   22     -0.02      0.00
   -9   -8   22      1.82      0.00
   -4   -8   22      1.28      0.00
   -1   -8   22      1.87      0.00
    0   -8   22      0.74      0.00
   -9   -7   22      0.61      0.00
   -6   -7   22      2.21      0.00
    0   -7   22      0.04      0.00
   -9   -6   22      0.84      0.00
   -1   -6   22      0.80      0.00
   -8   -5   22      1.19      0.00
   -2   -5   22      0.85      0.00
   -8   -4   22     -1.25      0.00
   -7   -4   22     -0.39      0.00
   -6   -4   22      0.85      0.00
   -5   -4   22     -2.07      0.00
   -4   -4   22      0.92      0.00
   -3   -4   22      0.13      0.00
    0    0    0      0.00      0.00
# SQUEEZE RESULTS (Version =  21116)
# Note: Data are Listed for all Voids in the P1 Unit Cell
# i.e. Centre of Gravity, Solvent Accessible Volume,
# Recovered number of Electrons in the Void and
# Details about the Squeezed Material
loop_
  _platon_squeeze_void_nr
  _platon_squeeze_void_average_x
  _platon_squeeze_void_average_y
  _platon_squeeze_void_average_z
  _platon_squeeze_void_volume
  _platon_squeeze_void_count_electrons
  _platon_squeeze_void_content
   1 -0.088  0.396  0.896       942        98 ' '
   2  0.056  0.821  0.879        17         0 ' '
   3  0.074  0.133  0.147        13         1 ' '
   4  0.939  0.181  0.120        16        -1 ' '
   5  0.920  0.870  0.852        12         1 ' '
# Missing Reflections Below sin(th)/lambda = 0.25
loop_
  _platon_missing_refln_index_h
  _platon_missing_refln_index_k
  _platon_missing_refln_index_l
  _platon_missing_refln_theta
    1    0    0     1.454
   -7    1    0     9.881
   -5    1    0     6.980
   -4    1    0     5.551
   -1    1    0     1.671
    0    1    0     1.391
    2    1    0     3.593
   -3    2    0     4.389
    2    2    0     4.609
   -4    3    0     6.025
    2    3    0     5.787
    2    4    0     7.048
    1    6    0     8.939
   -1   -4    1     5.624
    3   -4    1     5.799
   -2   -3    1     5.235
   -2   -2    1     4.118
   -1   -2    1     3.062
    0   -2    1     2.457
    1   -2    1     2.632
    3   -2    1     4.629
   -1   -1    1     2.023
    0   -1    1     1.418
    1   -1    1     2.038
   -1    0    1     1.638
    0    0    1     1.362
    4    0    1     6.400
   -7    1    1     9.601
   -4    1    1     5.413
   -1    1    1     2.268
    0    1    1     2.360
   -4    2    1     5.646
   -1    2    1     3.388
    1    2    1     4.369
    2    2    1     5.410
    1    5    1     8.321
    1   -4    2     4.884
    2   -4    2     5.270
    3   -4    2     5.995
   -3   -3    2     6.072
   -2   -3    2     5.005
   -1   -1    2     2.568
    0   -1    2     2.407
   -5    0    2     6.900
   -3    0    2     4.331
   -1    0    2     2.639
    4    1    2     7.899
   -4    2    2     5.991
   -1    2    2     4.397
   -1    5    2     8.203
   -6   -3    3     9.720
   -2   -2    3     4.421
   -2   -1    3     4.069
   -1    0    3     3.868
    1    4    3     8.978
   -3    5    3     9.001
    0    5    3     9.622
   -3    6    3    10.213
    0    4    4     9.480
   -3    0    5     6.804
   -2   -6    6     9.004
   -3   -3    6     7.724
   -1   -7    7    10.069
   -3   -4    7     8.927
   -4    0    7     9.459
_platon_squeeze_void_probe_radius                  1.20
_platon_squeeze_details
)
TITL qq        P -1         R = 0.09
CELL   15.0820   16.8870   17.3380    114.22    102.31    100.88
SPGR P-1
# Solvent Accessible Volume =       998
# Electrons Found in S.A.V. =        99
# Note: Atoms in Void as Cxxx and Qxxx all others
Q101 0.920 0.852 0.126 !       2.71 eA-3
Q102 0.183 0.986 0.250 !       2.62 eA-3
Q103 0.155 0.796 0.214 !       2.51 eA-3
Q104 0.205 0.849 0.206 !       2.49 eA-3
Q105 0.732 0.720 0.134 !       2.49 eA-3
Q106 0.983 0.911 0.123 !       2.48 eA-3
Q107 0.021 0.862 0.281 !       2.44 eA-3
Q108 0.957 0.800 0.281 !       2.33 eA-3
Q109 0.858 0.867 0.100 !       2.28 eA-3
Q110 0.672 0.752 0.093 !       2.13 eA-3
Q111 0.797 0.777 0.135 !       2.10 eA-3
Q112 0.078 0.826 0.172 !       2.00 eA-3
Q113 0.168 0.844 0.058 !       1.97 eA-3
Q114 0.311 0.933 0.264 !       1.88 eA-3
Q115 0.920 0.947 0.078 !       1.88 eA-3
Q116 0.156 0.886 0.168 !       1.83 eA-3
Q117 0.894 0.833 0.234 !       1.83 eA-3
Q118 0.735 0.813 0.089 !       1.73 eA-3
Q119 0.956 0.894 0.229 !       1.69 eA-3
Q120 0.847 0.834 0.103 !       1.49 eA-3
Q121 0.217 0.813 0.233 !       1.38 eA-3
Q122 0.859 0.929 0.059 !       1.31 eA-3
Q123 0.845 0.684 0.199 !       1.21 eA-3
Q124 0.283 0.993 0.282 !       1.15 eA-3
Q125 0.893 0.764 0.272 !       1.09 eA-3
Q126 0.075 0.772 0.190 !       1.04 eA-3
Q127 0.987 0.946 0.111 !       1.04 eA-3
Q128 0.316 0.151 0.316 !       1.01 eA-3
Q129 0.828 0.908 0.057 !       1.01 eA-3
Q130 0.078 0.937 0.078 !       0.98 eA-3
Q131 0.202 0.886 0.191 !       0.97 eA-3
Q132 0.797 0.835 0.104 !       0.97 eA-3
Q133 0.964 0.815 0.158 !       0.94 eA-3
Q134 0.658 0.682 0.126 !       0.94 eA-3
Q135 0.033 0.920 0.261 !       0.90 eA-3
C136 0.813 0.015 0.325 !       0.88 eA-3
Q137 0.857 0.909 0.156 !       0.86 eA-3
Q138 0.340 0.078 0.333 !       0.86 eA-3
Q139 0.782 0.932 0.043 !       0.83 eA-3
Q140 0.502 0.808 0.034 !       0.83 eA-3
Q141 0.876 0.989 0.488 !       0.82 eA-3
Q142 0.923 0.740 0.203 !       0.82 eA-3
Q143 1.003 0.787 0.169 !       0.80 eA-3
Q144 0.796 0.871 0.081 !       0.79 eA-3
Q145 0.786 0.688 0.180 !       0.79 eA-3
Q146 0.441 0.107 0.387 !       0.79 eA-3
Q147 0.132 0.691 0.049 !       0.78 eA-3
Q148 0.746 0.903 0.190 !       0.78 eA-3
Q149 0.017 0.901 0.076 !       0.77 eA-3
C150 0.362 0.923 0.124 !       0.77 eA-3
Q151 0.456 0.871 0.088 !       0.75 eA-3
Q152 0.054 0.668 0.030 !       0.75 eA-3
Q153 0.316 0.014 0.060 !       0.74 eA-3
Q154 0.235 0.918 0.197 !       0.74 eA-3
Q155 0.716 0.986 0.097 !       0.73 eA-3
Q156 0.502 0.824 0.089 !       0.73 eA-3
Q157 0.967 0.767 0.170 !       0.73 eA-3
Q158 0.655 0.546 0.277 !       0.72 eA-3
Q159 0.816 0.892 0.232 !       0.72 eA-3
Q160 0.567 0.793 0.136 !       0.72 eA-3
Q161 0.074 0.022 0.342 !       0.71 eA-3
Q162 0.077 0.628 0.049 !       0.71 eA-3
C163 0.329 0.674 0.172 !       0.70 eA-3
Q164 0.531 0.208 0.421 !       0.70 eA-3
Q165 0.905 0.927 0.157 !       0.70 eA-3
Q166 0.939 0.993 0.205 !       0.70 eA-3
Q167 0.203 0.829 0.141 !       0.69 eA-3
Q168 0.923 0.795 0.393 !       0.69 eA-3
Q169 0.829 0.242 0.114 !       0.69 eA-3
Q170 0.111 0.733 0.241 !       0.69 eA-3
Q171 0.128 0.323 0.485 !       0.67 eA-3
Q172 0.910 0.733 0.039 !       0.67 eA-3
Q173 0.439 0.267 0.340 !       0.67 eA-3
C174 0.627 0.045 0.360 !       0.67 eA-3
Q175 0.029 0.969 0.035 !       0.67 eA-3
Q176 0.376 0.230 0.344 !       0.67 eA-3
Q177 0.909 0.912 0.403 !       0.67 eA-3
Q178 0.279 0.057 0.028 !       0.65 eA-3
Q179 0.749 0.633 0.016 !       0.65 eA-3
Q180 0.250 0.762 0.264 !       0.65 eA-3
Q181 0.188 0.783 0.354 !       0.65 eA-3
Q182 0.060 0.130 0.122 !       0.64 eA-3
C183 0.372 0.690 0.183 !       0.64 eA-3
C184 0.392 0.891 0.464 !       0.64 eA-3
Q185 0.860 0.858 0.343 !       0.64 eA-3
Q186 0.249 0.907 0.297 !       0.64 eA-3
Q187 0.610 0.797 0.047 !       0.63 eA-3
Q188 0.704 0.835 0.076 !       0.63 eA-3
Q189 0.566 0.813 0.031 !       0.62 eA-3
Q190 0.875 0.786 0.148 !       0.62 eA-3
C191 0.642 0.069 0.428 !       0.62 eA-3
Q192 0.469 0.250 0.402 !       0.62 eA-3
C193 0.453 0.907 0.291 !       0.62 eA-3
C194 0.325 0.657 0.092 !       0.62 eA-3
C195 0.436 0.862 0.270 !       0.60 eA-3
C196 0.392 0.858 0.404 !       0.60 eA-3
Q197 0.389 0.919 0.345 !       0.60 eA-3
Q198 0.737 0.685 0.080 !       0.60 eA-3
Q199 0.129 0.588 0.413 !       0.60 eA-3
)
;
_shelx_fab_checksum              62551
loop_
_space_group_symop_operation_xyz
'x, y, z'
'-x, -y, -z'
loop_
_atom_site_label
_atom_site_type_symbol
_atom_site_fract_x
_atom_site_fract_y
_atom_site_fract_z
_atom_site_U_iso_or_equiv
_atom_site_adp_type
_atom_site_occupancy
_atom_site_site_symmetry_order
_atom_site_calc_flag
_atom_site_refinement_flags_posn
_atom_site_refinement_flags_adp
Co1 Co 0.85016(5) 0.16171(5) 0.81144(4) 0.0198(2) Uani 1 1 d . .
Co2 Co 1.07819(5) 0.11129(4) 0.88958(4) 0.0186(2) Uani 1 1 d . .
Co3 Co 1.26845(5) 0.25022(5) 0.88213(5) 0.0220(2) Uani 1 1 d . .
Co4 Co 1.03275(5) 0.15519(4) 0.73443(4) 0.0193(2) Uani 1 1 d . .
N1 N 1.1779(3) 0.0528(3) 0.9296(3) 0.0246(10) Uani 1 1 d . .
N2 N 1.2735(4) 0.0070(4) 1.0038(3) 0.0339(12) Uani 1 1 d . .
H2A H 1.3028 -0.0012 1.0469 0.041 Uiso 1 1 calc R U
N3 N 1.5119(4) -0.1444(4) 1.0750(4) 0.0416(13) Uani 1 1 d . .
H3 H 1.4722 -0.1173 1.0940 0.050 Uiso 1 1 calc R U
N4 N 1.6228(3) -0.2107(3) 1.0735(3) 0.0275(10) Uani 1 1 d . .
O1 O 0.9300(7) 0.3232(5) 0.9627(5) 0.095(3) Uani 1 1 d . .
O2 O 0.8148(4) 0.2061(4) 0.9235(3) 0.0563(14) Uani 1 1 d . .
O3 O 0.9805(3) 1.0088(2) 1.6624(2) 0.0232(8) Uani 1 1 d . .
O4 O 1.0044(3) 0.9853(2) 1.7830(2) 0.0243(8) Uani 1 1 d . .
O5 O 0.9041(3) 0.1547(3) 1.6637(3) 0.0292(9) Uani 1 1 d . .
O6 O 0.8231(3) 0.2317(3) 1.7434(3) 0.0285(9) Uani 1 1 d . .
O7 O 0.7601(4) 0.0386(3) 0.7278(3) 0.0504(13) Uani 1 1 d . .
O8 O 0.8082(4) 0.0064(4) 0.8380(4) 0.0586(14) Uani 1 1 d . .
O9 O 0.2571(3) -0.6713(3) -0.0019(2) 0.0296(9) Uani 1 1 d . .
O10 O 0.1403(3) -0.7667(3) 0.0073(2) 0.0305(9) Uani 1 1 d . .
O11 O 0.2887(3) -0.6665(3) 0.8299(3) 0.0356(10) Uani 1 1 d . .
O12 O 0.3254(4) -0.7827(3) 0.7381(3) 0.0471(12) Uani 1 1 d . .
O13 O 0.9884(2) 0.1758(2) 0.8448(2) 0.0189(7) Uani 1 1 d . .
H13A H 1.0191 0.2411 0.8863 0.023 Uiso 1 1 calc R U
O15 O 1.0881(3) 0.3022(3) 0.7862(3) 0.0377(10) Uani 1 1 d . .
H15A H 1.0767 0.3292 0.8347 0.057 Uiso 1 1 d R U
H15B H 1.1480 0.3175 0.7960 0.057 Uiso 1 1 d R U
O16 O 1.1534(2) 0.1462(2) 0.8093(2) 0.0202(7) Uani 1 1 d . .
H16A H 1.1701 0.0934 0.7717 0.024 Uiso 1 1 calc R U
O17 O 0.9843(3) 0.0779(3) 0.9558(3) 0.0341(9) Uani 1 1 d . .
H17A H 1.0155 0.0711 0.9985 0.051 Uiso 1 1 d R U
H17C H 0.9400 0.0284 0.9188 0.051 Uiso 1 1 d R U
C1 C 0.8719(5) 0.2800(5) 0.9817(4) 0.0449(17) Uani 1 1 d . .
C2 C 0.8683(5) 0.3170(4) 1.0754(4) 0.0339(13) Uani 1 1 d . .
C3 C 0.9335(6) 0.4003(4) 1.1415(4) 0.0456(17) Uani 1 1 d . .
H3A H 0.9790 0.4323 1.1273 0.055 Uiso 1 1 calc R U
C4 C 0.9310(5) 0.4358(4) 1.2283(4) 0.0404(15) Uani 1 1 d . .
H4 H 0.9758 0.4912 1.2719 0.048 Uiso 1 1 calc R U
C5 C 0.8631(4) 0.3906(4) 1.2516(3) 0.0237(11) Uani 1 1 d . .
C6 C 0.7987(5) 0.3085(5) 1.1849(4) 0.0468(18) Uani 1 1 d . .
H6 H 0.7531 0.2759 1.1985 0.056 Uiso 1 1 calc R U
C7 C 0.8006(6) 0.2737(5) 1.0977(4) 0.055(2) Uani 1 1 d . .
H7 H 0.7546 0.2194 1.0536 0.065 Uiso 1 1 calc R U
C8 C 0.8632(4) 0.4302(3) 1.3465(3) 0.0218(11) Uani 1 1 d . .
C9 C 0.8854(4) 0.5254(4) 1.3972(4) 0.0232(11) Uani 1 1 d . .
H9 H 0.8960 0.5625 1.3705 0.028 Uiso 1 1 calc R U
C10 C 0.8917(4) 0.5647(3) 1.4877(3) 0.0209(10) Uani 1 1 d . .
C11 C 0.8785(4) 0.5074(4) 1.5263(3) 0.0226(11) Uani 1 1 d . .
H11 H 0.8861 0.5332 1.5870 0.027 Uiso 1 1 calc R U
C12 C 0.8542(4) 0.4124(4) 1.4771(4) 0.0219(11) Uani 1 1 d . .
C13 C 0.8450(4) 0.3745(3) 1.3863(4) 0.0240(11) Uani 1 1 d . .
H13 H 0.8264 0.3114 1.3519 0.029 Uiso 1 1 calc R U
C14 C 0.9133(4) 0.6651(3) 1.5407(3) 0.0194(10) Uani 1 1 d . .
C15 C 0.8823(4) 0.7173(3) 1.5023(3) 0.0212(10) Uani 1 1 d . .
H15D H 0.8470 0.6886 1.4419 0.025 Uiso 1 1 calc R U
C16 C 0.9029(4) 0.8114(3) 1.5523(3) 0.0222(11) Uani 1 1 d . .
H16 H 0.8806 0.8445 1.5253 0.027 Uiso 1 1 calc R U
C17 C 0.9567(4) 0.8557(3) 1.6423(3) 0.0204(10) Uani 1 1 d . .
C18 C 0.9891(4) 0.8043(4) 1.6811(3) 0.0234(11) Uani 1 1 d . .
H18 H 1.0264 0.8336 1.7410 0.028 Uiso 1 1 calc R U
C19 C 0.9668(4) 0.7108(4) 1.6319(3) 0.0234(11) Uani 1 1 d . .
H19 H 0.9875 0.6776 1.6597 0.028 Uiso 1 1 calc R U
C20 C 0.9818(4) 0.9574(3) 1.6988(3) 0.0197(10) Uani 1 1 d . .
C21 C 0.8465(4) 0.3556(3) 1.5240(4) 0.0226(11) Uani 1 1 d . .
C22 C 0.8197(4) 0.3850(4) 1.6014(4) 0.0288(12) Uani 1 1 d . .
H22 H 0.8004 0.4370 1.6199 0.035 Uiso 1 1 calc R U
C23 C 0.8214(4) 0.3380(4) 1.6507(4) 0.0273(12) Uani 1 1 d . .
H23 H 0.8042 0.3593 1.7023 0.033 Uiso 1 1 calc R U
C24 C 0.8488(4) 0.2588(3) 1.6235(3) 0.0215(10) Uani 1 1 d . .
C25 C 0.8718(4) 0.2271(4) 1.5449(4) 0.0275(12) Uani 1 1 d . .
H25 H 0.8890 0.1739 1.5254 0.033 Uiso 1 1 calc R U
C26 C 0.8693(4) 0.2741(4) 1.4957(4) 0.0259(11) Uani 1 1 d . .
H26 H 0.8832 0.2509 1.4425 0.031 Uiso 1 1 calc R U
C27 C 0.8589(4) 0.2131(3) 1.6808(4) 0.0239(11) Uani 1 1 d . .
C28 C 0.7548(5) -0.0140(4) 0.7610(4) 0.0398(15) Uani 1 1 d . .
C29 C 0.6780(5) -0.1053(5) 0.7061(5) 0.0450(18) Uani 1 1 d . .
C30 C 0.5982(5) -0.1222(4) 0.6373(5) 0.0440(17) Uani 1 1 d . .
H30 H 0.5929 -0.0763 0.6218 0.053 Uiso 1 1 calc R U
C31 C 0.5261(5) -0.2055(4) 0.5911(4) 0.0338(13) Uani 1 1 d . .
H31 H 0.4733 -0.2154 0.5452 0.041 Uiso 1 1 calc R U
C32 C 0.5342(4) -0.2741(4) 0.6147(3) 0.0261(12) Uani 1 1 d . .
C33 C 0.6150(4) -0.2565(4) 0.6846(4) 0.0345(14) Uani 1 1 d . .
H33 H 0.6212 -0.3021 0.7004 0.041 Uiso 1 1 calc R U
C34 C 0.6855(5) -0.1723(4) 0.7303(5) 0.0393(15) Uani 1 1 d . .
H34 H 0.7378 -0.1612 0.7772 0.047 Uiso 1 1 calc R U
C35 C 0.4621(4) -0.3667(4) 0.5663(3) 0.0232(11) Uani 1 1 d . .
C36 C 0.4191(4) -0.4088(3) 0.4736(3) 0.0209(10) Uani 1 1 d . .
H36 H 0.4310 -0.3765 0.4425 0.025 Uiso 1 1 calc R U
C37 C 0.3585(4) -0.4986(3) 0.4272(3) 0.0214(11) Uani 1 1 d . .
C38 C 0.3408(4) -0.5450(3) 0.4756(4) 0.0220(11) Uani 1 1 d . .
H38 H 0.3009 -0.6051 0.4450 0.026 Uiso 1 1 calc R U
C39 C 0.3805(4) -0.5048(4) 0.5674(3) 0.0241(11) Uani 1 1 d . .
C40 C 0.4417(4) -0.4147(4) 0.6128(3) 0.0248(11) Uani 1 1 d . .
H40 H 0.4690 -0.3865 0.6747 0.030 Uiso 1 1 calc R U
C41 C 0.3179(4) -0.5454(3) 0.3279(3) 0.0195(10) Uani 1 1 d . .
C42 C 0.3688(4) -0.5250(3) 0.2765(3) 0.0233(11) Uani 1 1 d . .
H42 H 0.4272 -0.4789 0.3048 0.028 Uiso 1 1 calc R U
C43 C 0.3335(4) -0.5723(4) 0.1840(4) 0.0254(11) Uani 1 1 d . .
H43 H 0.3686 -0.5582 0.1507 0.030 Uiso 1 1 calc R U
C44 C 0.2457(4) -0.6411(4) 0.1404(3) 0.0217(11) Uani 1 1 d . .
C45 C 0.1929(4) -0.6599(4) 0.1911(4) 0.0255(11) Uani 1 1 d . .
H45 H 0.1334 -0.7045 0.1628 0.031 Uiso 1 1 calc R U
C46 C 0.2286(4) -0.6126(3) 0.2833(3) 0.0214(10) Uani 1 1 d . .
H46 H 0.1925 -0.6256 0.3164 0.026 Uiso 1 1 calc R U
C47 C 0.2105(4) -0.6973(4) 0.0409(3) 0.0227(11) Uani 1 1 d . .
C48 C 0.3626(4) -0.5570(4) 0.6164(4) 0.0261(11) Uani 1 1 d . .
C49 C 0.3614(4) -0.6474(4) 0.5822(4) 0.0278(12) Uani 1 1 d . .
H49 H 0.3704 -0.6761 0.5272 0.033 Uiso 1 1 calc R U
C50 C 0.3471(4) -0.6954(4) 0.6295(4) 0.0303(12) Uani 1 1 d . .
H50 H 0.3471 -0.7558 0.6061 0.036 Uiso 1 1 calc R U
C51 C 0.3326(4) -0.6537(4) 0.7115(4) 0.0291(12) Uani 1 1 d . .
C52 C 0.3315(4) -0.5633(4) 0.7452(4) 0.0335(13) Uani 1 1 d . .
H52 H 0.3193 -0.5356 0.7989 0.040 Uiso 1 1 calc R U
C53 C 0.3483(4) -0.5148(4) 0.6992(4) 0.0316(13) Uani 1 1 d . .
H53 H 0.3501 -0.4539 0.7234 0.038 Uiso 1 1 calc R U
C54 C 0.3150(4) -0.7054(5) 0.7620(4) 0.0347(14) Uani 1 1 d . .
C55 C 1.2093(4) 0.0522(4) 1.0062(4) 0.0317(13) Uani 1 1 d . .
H55 H 1.1895 0.0794 1.0553 0.038 Uiso 1 1 calc R U
C56 C 1.2248(4) 0.0043(4) 0.8760(4) 0.0259(11) Uani 1 1 d . .
H56 H 1.2160 -0.0070 0.8173 0.031 Uiso 1 1 calc R U
C57 C 1.2850(4) -0.0246(4) 0.9201(4) 0.0248(11) Uani 1 1 d . .
C58 C 1.3503(4) -0.0764(4) 0.8924(4) 0.0275(12) Uani 1 1 d . .
C59 C 1.4066(4) -0.0965(4) 0.9512(4) 0.0290(12) Uani 1 1 d . .
H59 H 1.4040 -0.0748 1.0091 0.035 Uiso 1 1 calc R U
C60 C 1.4674(4) -0.1481(4) 0.9273(4) 0.0308(12) Uani 1 1 d . .
C61 C 1.4726(6) -0.1790(6) 0.8411(5) 0.0493(18) Uani 1 1 d . .
H61 H 1.5116 -0.2147 0.8231 0.059 Uiso 1 1 calc R U
C62 C 1.4191(6) -0.1561(6) 0.7822(5) 0.058(2) Uani 1 1 d . .
H62 H 1.4249 -0.1743 0.7256 0.069 Uiso 1 1 calc R U
C63 C 1.3566(6) -0.1063(6) 0.8067(5) 0.0482(18) Uani 1 1 d . .
H63 H 1.3196 -0.0931 0.7660 0.058 Uiso 1 1 calc R U
C64 C 1.5231(4) -0.1684(4) 0.9926(4) 0.0331(13) Uani 1 1 d . .
C65 C 1.5720(5) -0.1699(5) 1.1201(4) 0.0383(15) Uani 1 1 d . .
H65 H 1.5778 -0.1600 1.1780 0.046 Uiso 1 1 calc R U
C66 C 1.5910(4) -0.2116(4) 0.9920(4) 0.0288(12) Uani 1 1 d . .
H66 H 1.6127 -0.2377 0.9439 0.035 Uiso 1 1 calc R U
O14 O 1.0878(3) 0.1531(3) 0.6323(3) 0.0408(11) Uani 1 1 d . .
H14A H 1.0773 0.0981 0.5941 0.061 Uiso 1 1 d R U
H14C H 1.1476 0.1803 0.6546 0.061 Uiso 1 1 d R U
loop_
_atom_site_aniso_label
_atom_site_aniso_U_11
_atom_site_aniso_U_22
_atom_site_aniso_U_33
_atom_site_aniso_U_23
_atom_site_aniso_U_13
_atom_site_aniso_U_12
Co1 0.0258(4) 0.0167(4) 0.0180(4) 0.0084(3) 0.0099(3) 0.0050(3)
Co2 0.0251(4) 0.0155(4) 0.0152(3) 0.0069(3) 0.0077(3) 0.0055(3)
Co3 0.0253(4) 0.0240(4) 0.0189(4) 0.0110(3) 0.0103(3) 0.0071(3)
Co4 0.0281(4) 0.0161(4) 0.0182(4) 0.0095(3) 0.0112(3) 0.0089(3)
N1 0.031(2) 0.023(2) 0.020(2) 0.0108(19) 0.0069(18) 0.0084(18)
N2 0.047(3) 0.047(3) 0.023(2) 0.024(2) 0.016(2) 0.026(2)
N3 0.052(3) 0.063(4) 0.044(3) 0.040(3) 0.032(3) 0.037(3)
N4 0.029(2) 0.035(3) 0.024(2) 0.016(2) 0.0108(19) 0.014(2)
O1 0.189(8) 0.064(4) 0.075(4) 0.043(4) 0.097(5) 0.047(5)
O2 0.060(3) 0.068(4) 0.026(2) 0.008(3) 0.023(2) 0.010(3)
O3 0.0307(19) 0.0160(17) 0.0229(18) 0.0089(15) 0.0079(15) 0.0092(14)
O4 0.039(2) 0.0163(18) 0.0172(18) 0.0083(15) 0.0084(15) 0.0074(15)
O5 0.038(2) 0.025(2) 0.027(2) 0.0147(17) 0.0065(17) 0.0148(17)
O6 0.038(2) 0.031(2) 0.031(2) 0.0225(18) 0.0178(17) 0.0145(17)
O7 0.078(4) 0.033(3) 0.027(2) 0.004(2) 0.023(2) 0.005(2)
O8 0.048(3) 0.046(3) 0.056(3) 0.018(3) -0.007(2) 0.001(2)
O9 0.045(2) 0.024(2) 0.0164(18) 0.0058(16) 0.0141(16) 0.0074(17)
O10 0.037(2) 0.024(2) 0.0195(18) 0.0046(16) 0.0075(16) 0.0023(17)
O11 0.043(2) 0.045(3) 0.038(2) 0.033(2) 0.0213(19) 0.0130(19)
O12 0.068(3) 0.041(3) 0.040(3) 0.029(2) 0.017(2) 0.009(2)
O13 0.0251(18) 0.0164(17) 0.0146(16) 0.0063(14) 0.0075(13) 0.0064(13)
O15 0.040(2) 0.024(2) 0.048(3) 0.0133(19) 0.019(2) 0.0101(17)
O16 0.0275(18) 0.0182(17) 0.0194(17) 0.0097(15) 0.0117(14) 0.0104(14)
O17 0.032(2) 0.036(2) 0.030(2) 0.0172(19) 0.0073(17) 0.0006(17)
C1 0.052(4) 0.053(4) 0.028(3) 0.013(3) 0.022(3) 0.019(3)
C2 0.049(4) 0.037(3) 0.020(3) 0.011(3) 0.021(3) 0.017(3)
C3 0.071(5) 0.028(3) 0.035(3) 0.010(3) 0.035(3) 0.002(3)
C4 0.055(4) 0.024(3) 0.034(3) 0.006(3) 0.023(3) 0.002(3)
C5 0.037(3) 0.017(3) 0.019(3) 0.009(2) 0.011(2) 0.008(2)
C6 0.058(4) 0.031(3) 0.031(3) 0.001(3) 0.026(3) -0.011(3)
C7 0.064(5) 0.041(4) 0.024(3) -0.001(3) 0.014(3) -0.018(3)
C8 0.032(3) 0.015(2) 0.015(2) 0.003(2) 0.007(2) 0.008(2)
C9 0.031(3) 0.019(3) 0.026(3) 0.013(2) 0.014(2) 0.009(2)
C10 0.029(3) 0.014(2) 0.020(2) 0.007(2) 0.009(2) 0.010(2)
C11 0.033(3) 0.019(3) 0.021(2) 0.011(2) 0.014(2) 0.010(2)
C12 0.027(3) 0.019(3) 0.027(3) 0.014(2) 0.013(2) 0.010(2)
C13 0.033(3) 0.013(2) 0.024(3) 0.007(2) 0.010(2) 0.006(2)
C14 0.024(2) 0.015(2) 0.019(2) 0.007(2) 0.0090(19) 0.0055(19)
C15 0.031(3) 0.018(2) 0.013(2) 0.006(2) 0.009(2) 0.006(2)
C16 0.031(3) 0.017(2) 0.021(3) 0.011(2) 0.009(2) 0.008(2)
C17 0.028(3) 0.016(2) 0.018(2) 0.006(2) 0.011(2) 0.009(2)
C18 0.034(3) 0.020(3) 0.015(2) 0.006(2) 0.006(2) 0.012(2)
C19 0.036(3) 0.020(3) 0.018(2) 0.010(2) 0.010(2) 0.013(2)
C20 0.026(3) 0.015(2) 0.019(2) 0.006(2) 0.011(2) 0.0076(19)
C21 0.028(3) 0.017(2) 0.026(3) 0.012(2) 0.009(2) 0.007(2)
C22 0.042(3) 0.024(3) 0.037(3) 0.019(3) 0.023(3) 0.021(2)
C23 0.043(3) 0.029(3) 0.023(3) 0.015(2) 0.022(2) 0.020(2)
C24 0.027(3) 0.018(2) 0.026(3) 0.014(2) 0.012(2) 0.009(2)
C25 0.043(3) 0.017(3) 0.031(3) 0.013(2) 0.019(2) 0.015(2)
C26 0.039(3) 0.016(2) 0.027(3) 0.009(2) 0.017(2) 0.013(2)
C27 0.026(3) 0.015(2) 0.029(3) 0.010(2) 0.007(2) 0.004(2)
C28 0.048(4) 0.027(3) 0.038(3) 0.006(3) 0.019(3) 0.011(3)
C29 0.031(3) 0.039(4) 0.043(4) 0.001(3) 0.020(3) -0.003(3)
C30 0.067(5) 0.025(3) 0.044(4) 0.015(3) 0.033(3) 0.007(3)
C31 0.043(3) 0.026(3) 0.023(3) 0.006(2) 0.014(2) 0.002(2)
C32 0.030(3) 0.019(3) 0.020(3) 0.001(2) 0.012(2) 0.003(2)
C33 0.027(3) 0.027(3) 0.035(3) 0.004(3) 0.006(2) 0.007(2)
C34 0.034(3) 0.026(3) 0.042(4) 0.003(3) 0.010(3) 0.009(2)
C35 0.024(3) 0.018(3) 0.021(3) 0.004(2) 0.007(2) 0.004(2)
C36 0.028(3) 0.016(2) 0.020(2) 0.009(2) 0.009(2) 0.004(2)
C37 0.024(3) 0.015(2) 0.021(3) 0.004(2) 0.007(2) 0.0034(19)
C38 0.021(2) 0.019(3) 0.027(3) 0.014(2) 0.008(2) 0.0018(19)
C39 0.030(3) 0.022(3) 0.019(2) 0.007(2) 0.011(2) 0.007(2)
C40 0.029(3) 0.023(3) 0.019(2) 0.008(2) 0.006(2) 0.007(2)
C41 0.025(2) 0.015(2) 0.013(2) 0.0025(19) 0.0067(19) 0.0040(19)
C42 0.030(3) 0.016(2) 0.022(3) 0.009(2) 0.009(2) 0.001(2)
C43 0.030(3) 0.023(3) 0.021(3) 0.011(2) 0.011(2) 0.002(2)
C44 0.022(2) 0.020(3) 0.021(3) 0.007(2) 0.009(2) 0.007(2)
C45 0.023(3) 0.022(3) 0.023(3) 0.005(2) 0.009(2) -0.001(2)
C46 0.027(3) 0.016(2) 0.019(2) 0.006(2) 0.011(2) 0.004(2)
C47 0.025(3) 0.022(3) 0.022(3) 0.010(2) 0.008(2) 0.008(2)
C48 0.024(3) 0.031(3) 0.025(3) 0.013(2) 0.010(2) 0.009(2)
C49 0.028(3) 0.029(3) 0.026(3) 0.013(2) 0.011(2) 0.006(2)
C50 0.030(3) 0.029(3) 0.033(3) 0.017(3) 0.009(2) 0.008(2)
C51 0.024(3) 0.040(3) 0.030(3) 0.025(3) 0.008(2) 0.007(2)
C52 0.037(3) 0.041(3) 0.025(3) 0.016(3) 0.015(2) 0.012(3)
C53 0.040(3) 0.032(3) 0.029(3) 0.017(3) 0.015(2) 0.014(2)
C54 0.030(3) 0.045(4) 0.037(3) 0.029(3) 0.009(2) 0.006(3)
C55 0.045(3) 0.034(3) 0.031(3) 0.021(3) 0.019(3) 0.021(3)
C56 0.034(3) 0.031(3) 0.022(3) 0.016(2) 0.015(2) 0.015(2)
C57 0.033(3) 0.026(3) 0.023(3) 0.014(2) 0.015(2) 0.009(2)
C58 0.031(3) 0.024(3) 0.033(3) 0.017(2) 0.012(2) 0.010(2)
C59 0.033(3) 0.029(3) 0.028(3) 0.013(2) 0.014(2) 0.013(2)
C60 0.032(3) 0.030(3) 0.034(3) 0.017(3) 0.013(2) 0.011(2)
C61 0.061(5) 0.071(5) 0.049(4) 0.037(4) 0.039(4) 0.047(4)
C62 0.087(6) 0.087(6) 0.043(4) 0.044(4) 0.045(4) 0.063(5)
C63 0.068(5) 0.070(5) 0.041(4) 0.039(4) 0.033(3) 0.046(4)
C64 0.029(3) 0.034(3) 0.040(3) 0.017(3) 0.017(2) 0.011(2)
C65 0.046(4) 0.057(4) 0.037(3) 0.032(3) 0.027(3) 0.029(3)
C66 0.034(3) 0.030(3) 0.028(3) 0.015(2) 0.014(2) 0.013(2)
O14 0.058(3) 0.039(3) 0.039(2) 0.022(2) 0.030(2) 0.020(2)
loop_
_atom_type_symbol
_atom_type_description
_atom_type_scat_dispersion_real
_atom_type_scat_dispersion_imag
_atom_type_scat_source
C C 0.0033 0.0016 'International Tables Vol C Tables 4.2.6.8 and 6.1.1.4'
H H 0.0000 0.0000 'International Tables Vol C Tables 4.2.6.8 and 6.1.1.4'
N N 0.0061 0.0033 'International Tables Vol C Tables 4.2.6.8 and 6.1.1.4'
O O 0.0106 0.0060 'International Tables Vol C Tables 4.2.6.8 and 6.1.1.4'
Co Co 0.3494 0.9721 'International Tables Vol C Tables 4.2.6.8 and 6.1.1.4'
loop_
_geom_angle_atom_site_label_1
_geom_angle_atom_site_label_2
_geom_angle_atom_site_label_3
_geom_angle
_geom_angle_site_symmetry_1
_geom_angle_site_symmetry_3
O7 Co1 O13 118.1(2) . .
O7 Co1 O2 107.2(2) . .
O13 Co1 O2 108.30(19) . .
O7 Co1 O6 101.9(2) . 1_554
O13 Co1 O6 108.76(15) . 1_554
O2 Co1 O6 112.6(2) . 1_554
O4 Co2 O10 171.50(16) 1_544 1_666
O4 Co2 N1 87.92(16) 1_544 .
O10 Co2 N1 92.26(17) 1_666 .
O4 Co2 O13 93.47(14) 1_544 .
O10 Co2 O13 87.20(15) 1_666 .
N1 Co2 O13 174.16(16) . .
O4 Co2 O17 86.64(16) 1_544 .
O10 Co2 O17 84.88(16) 1_666 .
N1 Co2 O17 95.24(17) . .
O13 Co2 O17 90.50(15) . .
O4 Co2 O16 90.21(14) 1_544 .
O10 Co2 O16 98.26(15) 1_666 .
N1 Co2 O16 93.21(16) . .
O13 Co2 O16 81.13(13) . .
O17 Co2 O16 170.86(15) . .
O16 Co3 O9 110.77(16) . 1_666
O16 Co3 O11 112.54(17) . 1_665
O9 Co3 O11 102.98(18) 1_666 1_665
O16 Co3 N4 110.79(18) . 2_857
O9 Co3 N4 98.65(18) 1_666 2_857
O11 Co3 N4 119.63(19) 1_665 2_857
O5 Co4 O16 173.75(15) 1_554 .
O5 Co4 O13 91.69(15) 1_554 .
O16 Co4 O13 84.00(13) . .
O5 Co4 O14 89.84(18) 1_554 .
O16 Co4 O14 95.03(17) . .
O13 Co4 O14 172.31(17) . .
O5 Co4 O3 87.37(15) 1_554 1_544
O16 Co4 O3 88.86(14) . 1_544
O13 Co4 O3 99.30(14) . 1_544
O14 Co4 O3 88.30(16) . 1_544
O5 Co4 O15 89.85(16) 1_554 .
O16 Co4 O15 94.67(16) . .
O13 Co4 O15 90.09(16) . .
O14 Co4 O15 82.37(18) . .
O3 Co4 O15 170.28(16) 1_544 .
C55 N1 C56 105.3(5) . .
C55 N1 Co2 130.2(4) . .
C56 N1 Co2 124.5(3) . .
C55 N2 C57 108.7(5) . .
C55 N2 H2A 125.6 . .
C57 N2 H2A 125.6 . .
C65 N3 C64 108.6(5) . .
C65 N3 H3 125.7 . .
C64 N3 H3 125.7 . .
C65 N4 C66 104.9(5) . .
C65 N4 Co3 126.3(4) . 2_857
C66 N4 Co3 128.5(4) . 2_857
C1 O2 Co1 111.3(5) . .
C20 O3 Co4 124.3(3) . 1_566
C20 O4 Co2 131.5(3) . 1_566
C27 O5 Co4 131.9(4) . 1_556
C27 O6 Co1 112.1(3) . 1_556
C28 O7 Co1 113.2(4) . .
C47 O9 Co3 126.3(3) . 1_444
C47 O10 Co2 138.4(4) . 1_444
C54 O11 Co3 108.2(4) . 1_445
Co1 O13 Co4 109.18(15) . .
Co1 O13 Co2 137.05(18) . .
Co4 O13 Co2 93.61(14) . .
Co1 O13 H13A 104.4 . .
Co4 O13 H13A 104.4 . .
Co2 O13 H13A 104.4 . .
Co4 O15 H15A 109.3 . .
Co4 O15 H15B 109.4 . .
H15A O15 H15B 109.5 . .
Co3 O16 Co4 122.29(17) . .
Co3 O16 Co2 112.13(16) . .
Co4 O16 Co2 92.27(14) . .
Co3 O16 H16A 109.6 . .
Co4 O16 H16A 109.6 . .
Co2 O16 H16A 109.6 . .
Co2 O17 H17A 109.4 . .
Co2 O17 H17C 109.4 . .
H17A O17 H17C 109.5 . .
O1 C1 O2 119.8(7) . .
O1 C1 C2 120.7(7) . .
O2 C1 C2 119.5(6) . .
C7 C2 C3 118.3(5) . .
C7 C2 C1 122.2(6) . .
C3 C2 C1 119.5(6) . .
C4 C3 C2 120.4(6) . .
C4 C3 H3A 119.8 . .
C2 C3 H3A 119.8 . .
C3 C4 C5 121.4(6) . .
C3 C4 H4 119.3 . .
C5 C4 H4 119.3 . .
C6 C5 C4 117.2(5) . .
C6 C5 C8 122.7(5) . .
C4 C5 C8 120.1(5) . .
C5 C6 C7 121.2(6) . .
C5 C6 H6 119.4 . .
C7 C6 H6 119.4 . .
C2 C7 C6 121.5(6) . .
C2 C7 H7 119.3 . .
C6 C7 H7 119.3 . .
C13 C8 C9 119.4(5) . .
C13 C8 C5 121.0(4) . .
C9 C8 C5 119.5(5) . .
C10 C9 C8 120.6(5) . .
C10 C9 H9 119.7 . .
C8 C9 H9 119.7 . .
C11 C10 C9 118.2(5) . .
C11 C10 C14 121.3(4) . .
C9 C10 C14 120.5(5) . .
C10 C11 C12 122.4(5) . .
C10 C11 H11 118.8 . .
C12 C11 H11 118.8 . .
C13 C12 C11 118.3(5) . .
C13 C12 C21 122.1(5) . .
C11 C12 C21 119.4(5) . .
C12 C13 C8 120.9(5) . .
C12 C13 H13 119.6 . .
C8 C13 H13 119.6 . .
C15 C14 C19 117.6(5) . .
C15 C14 C10 121.9(4) . .
C19 C14 C10 120.5(5) . .
C16 C15 C14 121.6(5) . .
C16 C15 H15D 119.2 . .
C14 C15 H15D 119.2 . .
C17 C16 C15 120.1(5) . .
C17 C16 H16 120.0 . .
C15 C16 H16 120.0 . .
C16 C17 C18 118.8(5) . .
C16 C17 C20 122.0(5) . .
C18 C17 C20 119.2(4) . .
C19 C18 C17 121.0(5) . .
C19 C18 H18 119.5 . .
C17 C18 H18 119.5 . .
C18 C19 C14 120.8(5) . .
C18 C19 H19 119.6 . .
C14 C19 H19 119.6 . .
O3 C20 O4 124.6(4) . .
O3 C20 C17 120.2(4) . .
O4 C20 C17 115.1(4) . .
C26 C21 C22 117.3(5) . .
C26 C21 C12 122.1(5) . .
C22 C21 C12 120.6(5) . .
C23 C22 C21 121.3(5) . .
C23 C22 H22 119.3 . .
C21 C22 H22 119.3 . .
C22 C23 C24 120.4(5) . .
C22 C23 H23 119.8 . .
C24 C23 H23 119.8 . .
C25 C24 C23 118.7(5) . .
C25 C24 C27 120.9(5) . .
C23 C24 C27 120.2(5) . .
C26 C25 C24 120.5(5) . .
C26 C25 H25 119.7 . .
C24 C25 H25 119.7 . .
C25 C26 C21 121.6(5) . .
C25 C26 H26 119.2 . .
C21 C26 H26 119.2 . .
O6 C27 O5 122.1(5) . .
O6 C27 C24 120.7(5) . .
O5 C27 C24 117.3(5) . .
O7 C28 O8 123.4(6) . .
O7 C28 C29 116.6(6) . .
O8 C28 C29 119.9(7) . .
C34 C29 C30 119.3(6) . .
C34 C29 C28 117.2(6) . .
C30 C29 C28 123.3(7) . .
C29 C30 C31 122.0(7) . .
C29 C30 H30 119.0 . .
C31 C30 H30 119.0 . .
C30 C31 C32 118.8(6) . .
C30 C31 H31 120.6 . .
C32 C31 H31 120.6 . .
C31 C32 C33 118.9(5) . .
C31 C32 C35 122.3(5) . .
C33 C32 C35 118.7(5) . .
C34 C33 C32 121.0(6) . .
C34 C33 H33 119.5 . .
C32 C33 H33 119.5 . .
C29 C34 C33 119.9(6) . .
C29 C34 H34 120.1 . .
C33 C34 H34 120.1 . .
C40 C35 C36 119.3(5) . .
C40 C35 C32 119.9(5) . .
C36 C35 C32 120.7(5) . .
C37 C36 C35 120.7(5) . .
C37 C36 H36 119.6 . .
C35 C36 H36 119.6 . .
C36 C37 C38 118.5(5) . .
C36 C37 C41 120.7(5) . .
C38 C37 C41 120.7(4) . .
C39 C38 C37 122.2(5) . .
C39 C38 H38 118.9 . .
C37 C38 H38 118.9 . .
C38 C39 C40 118.5(5) . .
C38 C39 C48 120.8(5) . .
C40 C39 C48 120.7(5) . .
C35 C40 C39 120.8(5) . .
C35 C40 H40 119.6 . .
C39 C40 H40 119.6 . .
C42 C41 C46 118.0(4) . .
C42 C41 C37 120.9(4) . .
C46 C41 C37 121.1(4) . .
C43 C42 C41 120.9(5) . .
C43 C42 H42 119.6 . .
C41 C42 H42 119.6 . .
C42 C43 C44 120.4(5) . .
C42 C43 H43 119.8 . .
C44 C43 H43 119.8 . .
C45 C44 C43 119.1(5) . .
C45 C44 C47 120.0(5) . .
C43 C44 C47 120.7(5) . .
C46 C45 C44 120.1(5) . .
C46 C45 H45 119.9 . .
C44 C45 H45 119.9 . .
C45 C46 C41 121.3(5) . .
C45 C46 H46 119.3 . .
C41 C46 H46 119.3 . .
O10 C47 O9 125.5(5) . .
O10 C47 C44 117.6(5) . .
O9 C47 C44 116.9(5) . .
C49 C48 C53 118.9(5) . .
C49 C48 C39 120.9(5) . .
C53 C48 C39 120.2(5) . .
C50 C49 C48 120.7(5) . .
C50 C49 H49 119.7 . .
C48 C49 H49 119.7 . .
C49 C50 C51 120.3(6) . .
C49 C50 H50 119.8 . .
C51 C50 H50 119.8 . .
C50 C51 C52 119.2(5) . .
C50 C51 C54 120.8(6) . .
C52 C51 C54 120.0(5) . .
C53 C52 C51 120.3(5) . .
C53 C52 H52 119.8 . .
C51 C52 H52 119.8 . .
C52 C53 C48 120.4(6) . .
C52 C53 H53 119.8 . .
C48 C53 H53 119.8 . .
O12 C54 O11 122.3(5) . .
O12 C54 C51 121.0(6) . .
O11 C54 C51 116.7(6) . .
N1 C55 N2 110.8(5) . .
N1 C55 H55 124.6 . .
N2 C55 H55 124.6 . .
C57 C56 N1 111.2(5) . .
C57 C56 H56 124.4 . .
N1 C56 H56 124.4 . .
C56 C57 N2 104.0(5) . .
C56 C57 C58 131.3(5) . .
N2 C57 C58 124.7(5) . .
C59 C58 C63 118.8(6) . .
C59 C58 C57 120.4(5) . .
C63 C58 C57 120.9(5) . .
C58 C59 C60 122.6(6) . .
C58 C59 H59 118.7 . .
C60 C59 H59 118.7 . .
C59 C60 C61 118.5(6) . .
C59 C60 C64 119.4(5) . .
C61 C60 C64 122.1(6) . .
C62 C61 C60 119.5(6) . .
C62 C61 H61 120.2 . .
C60 C61 H61 120.2 . .
C61 C62 C63 121.1(6) . .
C61 C62 H62 119.5 . .
C63 C62 H62 119.5 . .
C58 C63 C62 119.4(6) . .
C58 C63 H63 120.3 . .
C62 C63 H63 120.3 . .
C66 C64 N3 104.5(5) . .
C66 C64 C60 133.6(6) . .
N3 C64 C60 121.9(5) . .
N4 C65 N3 111.9(5) . .
N4 C65 H65 124.0 . .
N3 C65 H65 124.0 . .
C64 C66 N4 109.9(5) . .
C64 C66 H66 125.0 . .
N4 C66 H66 125.0 . .
Co4 O14 H14A 109.3 . .
Co4 O14 H14C 109.4 . .
H14A O14 H14C 109.5 . .
loop_
_geom_bond_atom_site_label_1
_geom_bond_atom_site_label_2
_geom_bond_distance
_geom_bond_site_symmetry_2
Co1 O7 1.972(5) .
Co1 O13 1.980(3) .
Co1 O2 2.005(5) .
Co1 O6 2.019(4) 1_554
Co2 O4 2.045(4) 1_544
Co2 O10 2.072(4) 1_666
Co2 N1 2.097(5) .
Co2 O13 2.105(3) .
Co2 O17 2.137(4) .
Co2 O16 2.160(3) .
Co3 O16 1.946(4) .
Co3 O9 1.968(4) 1_666
Co3 O11 1.972(4) 1_665
Co3 N4 2.006(5) 2_857
Co4 O5 2.059(4) 1_554
Co4 O16 2.068(4) .
Co4 O13 2.078(3) .
Co4 O14 2.101(4) .
Co4 O3 2.146(4) 1_544
Co4 O15 2.175(4) .
N1 C55 1.316(7) .
N1 C56 1.382(7) .
N2 C55 1.339(8) .
N2 C57 1.388(7) .
N2 H2A 0.8600 .
N3 C65 1.319(8) .
N3 C64 1.374(8) .
N3 H3 0.8600 .
N4 C65 1.311(8) .
N4 C66 1.385(7) .
N4 Co3 2.006(5) 2_857
O1 C1 1.220(10) .
O2 C1 1.228(9) .
O3 C20 1.266(6) .
O3 Co4 2.146(4) 1_566
O4 C20 1.277(6) .
O4 Co2 2.045(4) 1_566
O5 C27 1.275(7) .
O5 Co4 2.059(4) 1_556
O6 C27 1.264(7) .
O6 Co1 2.019(4) 1_556
O7 C28 1.241(8) .
O8 C28 1.269(9) .
O9 C47 1.270(7) .
O9 Co3 1.968(4) 1_444
O10 C47 1.242(7) .
O10 Co2 2.072(4) 1_444
O11 C54 1.280(8) .
O11 Co3 1.972(4) 1_445
O12 C54 1.251(8) .
O13 H13A 0.9800 .
O15 H15A 0.8500 .
O15 H15B 0.8499 .
O16 H16A 0.9800 .
O17 H17A 0.8499 .
O17 H17C 0.8500 .
C1 C2 1.500(8) .
C2 C7 1.359(9) .
C2 C3 1.389(9) .
C3 C4 1.385(9) .
C3 H3A 0.9300 .
C4 C5 1.390(8) .
C4 H4 0.9300 .
C5 C6 1.378(8) .
C5 C8 1.499(7) .
C6 C7 1.388(9) .
C6 H6 0.9300 .
C7 H7 0.9300 .
C8 C13 1.398(8) .
C8 C9 1.406(7) .
C9 C10 1.403(7) .
C9 H9 0.9300 .
C10 C11 1.393(7) .
C10 C14 1.487(7) .
C11 C12 1.399(7) .
C11 H11 0.9300 .
C12 C13 1.397(7) .
C12 C21 1.494(7) .
C13 H13 0.9300 .
C14 C15 1.394(7) .
C14 C19 1.402(7) .
C15 C16 1.392(7) .
C15 H15D 0.9300 .
C16 C17 1.388(7) .
C16 H16 0.9300 .
C17 C18 1.393(7) .
C17 C20 1.506(7) .
C18 C19 1.382(7) .
C18 H18 0.9300 .
C19 H19 0.9300 .
C21 C26 1.396(7) .
C21 C22 1.405(8) .
C22 C23 1.383(8) .
C22 H22 0.9300 .
C23 C24 1.399(7) .
C23 H23 0.9300 .
C24 C25 1.392(8) .
C24 C27 1.489(7) .
C25 C26 1.383(8) .
C25 H25 0.9300 .
C26 H26 0.9300 .
C28 C29 1.509(9) .
C29 C34 1.373(11) .
C29 C30 1.389(11) .
C30 C31 1.390(9) .
C30 H30 0.9300 .
C31 C32 1.394(9) .
C31 H31 0.9300 .
C32 C33 1.407(8) .
C32 C35 1.491(7) .
C33 C34 1.389(9) .
C33 H33 0.9300 .
C34 H34 0.9300 .
C35 C40 1.398(8) .
C35 C36 1.397(7) .
C36 C37 1.395(7) .
C36 H36 0.9300 .
C37 C38 1.395(7) .
C37 C41 1.488(7) .
C38 C39 1.381(7) .
C38 H38 0.9300 .
C39 C40 1.401(8) .
C39 C48 1.481(8) .
C40 H40 0.9300 .
C41 C42 1.396(7) .
C41 C46 1.400(7) .
C42 C43 1.385(7) .
C42 H42 0.9300 .
C43 C44 1.395(7) .
C43 H43 0.9300 .
C44 C45 1.394(8) .
C44 C47 1.494(7) .
C45 C46 1.380(7) .
C45 H45 0.9300 .
C46 H46 0.9300 .
C48 C49 1.388(8) .
C48 C53 1.403(8) .
C49 C50 1.389(8) .
C49 H49 0.9300 .
C50 C51 1.391(9) .
C50 H50 0.9300 .
C51 C52 1.398(9) .
C51 C54 1.496(8) .
C52 C53 1.383(9) .
C52 H52 0.9300 .
C53 H53 0.9300 .
C55 H55 0.9300 .
C56 C57 1.350(8) .
C56 H56 0.9300 .
C57 C58 1.465(8) .
C58 C59 1.378(8) .
C58 C63 1.392(9) .
C59 C60 1.392(8) .
C59 H59 0.9300 .
C60 C61 1.391(9) .
C60 C64 1.460(9) .
C61 C62 1.390(10) .
C61 H61 0.9300 .
C62 C63 1.397(10) .
C62 H62 0.9300 .
C63 H63 0.9300 .
C64 C66 1.362(8) .
C65 H65 0.9300 .
C66 H66 0.9300 .
O14 H14A 0.8501 .
O14 H14C 0.8500 .
loop_
_geom_hbond_atom_site_label_D
_geom_hbond_atom_site_label_H
_geom_hbond_atom_site_label_A
_geom_hbond_distance_DH
_geom_hbond_distance_HA
_geom_hbond_distance_DA
_geom_hbond_angle_DHA
_geom_hbond_site_symmetry_A
C65 H65 O12 0.93 2.44 3.088(8) 126.7 2_747
C65 H65 O12 0.93 2.44 3.088(8) 126.7 2_747
C65 H65 O12 0.93 2.44 3.088(8) 126.7 2_747
loop_
_geom_torsion_atom_site_label_1
_geom_torsion_atom_site_label_2
_geom_torsion_atom_site_label_3
_geom_torsion_atom_site_label_4
_geom_torsion
_geom_torsion_site_symmetry_1
Co1 O2 C1 O1 11.8(10) .
Co1 O2 C1 C2 -169.3(5) .
O1 C1 C2 C7 175.6(9) .
O2 C1 C2 C7 -3.3(12) .
O1 C1 C2 C3 -1.7(12) .
O2 C1 C2 C3 179.4(7) .
C7 C2 C3 C4 2.3(12) .
C1 C2 C3 C4 179.7(7) .
C2 C3 C4 C5 -1.0(12) .
C3 C4 C5 C6 0.4(10) .
C3 C4 C5 C8 179.2(6) .
C4 C5 C6 C7 -1.2(11) .
C8 C5 C6 C7 -179.9(7) .
C3 C2 C7 C6 -3.2(13) .
C1 C2 C7 C6 179.5(8) .
C5 C6 C7 C2 2.7(14) .
C6 C5 C8 C13 38.7(9) .
C4 C5 C8 C13 -140.0(6) .
C6 C5 C8 C9 -143.6(6) .
C4 C5 C8 C9 37.7(8) .
C13 C8 C9 C10 1.6(8) .
C5 C8 C9 C10 -176.1(5) .
C8 C9 C10 C11 2.0(8) .
C8 C9 C10 C14 -178.8(5) .
C9 C10 C11 C12 -3.6(8) .
C14 C10 C11 C12 177.3(5) .
C10 C11 C12 C13 1.3(8) .
C10 C11 C12 C21 176.6(5) .
C11 C12 C13 C8 2.5(8) .
C21 C12 C13 C8 -172.7(5) .
C9 C8 C13 C12 -4.0(8) .
C5 C8 C13 C12 173.7(5) .
C11 C10 C14 C15 -147.9(5) .
C9 C10 C14 C15 33.0(8) .
C11 C10 C14 C19 32.6(8) .
C9 C10 C14 C19 -146.6(5) .
C19 C14 C15 C16 -0.3(8) .
C10 C14 C15 C16 -179.9(5) .
C14 C15 C16 C17 0.9(8) .
C15 C16 C17 C18 0.0(8) .
C15 C16 C17 C20 179.3(5) .
C16 C17 C18 C19 -1.4(8) .
C20 C17 C18 C19 179.2(5) .
C17 C18 C19 C14 2.1(8) .
C15 C14 C19 C18 -1.2(8) .
C10 C14 C19 C18 178.4(5) .
Co4 O3 C20 O4 8.1(7) 1_566
Co4 O3 C20 C17 -171.1(3) 1_566
Co2 O4 C20 O3 -18.9(8) 1_566
Co2 O4 C20 C17 160.3(3) 1_566
C16 C17 C20 O3 -21.5(7) .
C18 C17 C20 O3 157.8(5) .
C16 C17 C20 O4 159.2(5) .
C18 C17 C20 O4 -21.5(7) .
C13 C12 C21 C26 27.4(8) .
C11 C12 C21 C26 -147.7(5) .
C13 C12 C21 C22 -155.5(5) .
C11 C12 C21 C22 29.4(8) .
C26 C21 C22 C23 3.8(9) .
C12 C21 C22 C23 -173.5(5) .
C21 C22 C23 C24 -0.9(9) .
C22 C23 C24 C25 -1.6(8) .
C22 C23 C24 C27 174.5(5) .
C23 C24 C25 C26 1.2(8) .
C27 C24 C25 C26 -174.9(5) .
C24 C25 C26 C21 1.8(9) .
C22 C21 C26 C25 -4.3(8) .
C12 C21 C26 C25 173.0(5) .
Co1 O6 C27 O5 1.7(6) 1_556
Co1 O6 C27 C24 -178.8(4) 1_556
Co4 O5 C27 O6 -67.6(7) 1_556
Co4 O5 C27 C24 112.9(5) 1_556
C25 C24 C27 O6 -167.9(5) .
C23 C24 C27 O6 16.0(8) .
C25 C24 C27 O5 11.6(8) .
C23 C24 C27 O5 -164.4(5) .
Co1 O7 C28 O8 -6.3(9) .
Co1 O7 C28 C29 171.9(4) .
O7 C28 C29 C34 164.1(6) .
O8 C28 C29 C34 -17.6(10) .
O7 C28 C29 C30 -20.3(10) .
O8 C28 C29 C30 157.9(7) .
C34 C29 C30 C31 -1.0(10) .
C28 C29 C30 C31 -176.5(6) .
C29 C30 C31 C32 0.1(10) .
C30 C31 C32 C33 0.2(8) .
C30 C31 C32 C35 -177.5(5) .
C31 C32 C33 C34 0.5(9) .
C35 C32 C33 C34 178.3(6) .
C30 C29 C34 C33 1.6(10) .
C28 C29 C34 C33 177.4(6) .
C32 C33 C34 C29 -1.4(10) .
C31 C32 C35 C40 -146.4(5) .
C33 C32 C35 C40 35.9(8) .
C31 C32 C35 C36 37.9(8) .
C33 C32 C35 C36 -139.8(6) .
C40 C35 C36 C37 -1.8(8) .
C32 C35 C36 C37 173.9(5) .
C35 C36 C37 C38 0.9(8) .
C35 C36 C37 C41 -175.9(5) .
C36 C37 C38 C39 0.6(8) .
C41 C37 C38 C39 177.3(5) .
C37 C38 C39 C40 -0.9(8) .
C37 C38 C39 C48 -178.1(5) .
C36 C35 C40 C39 1.4(8) .
C32 C35 C40 C39 -174.4(5) .
C38 C39 C40 C35 -0.1(8) .
C48 C39 C40 C35 177.1(5) .
C36 C37 C41 C42 31.8(8) .
C38 C37 C41 C42 -144.9(5) .
C36 C37 C41 C46 -149.7(5) .
C38 C37 C41 C46 33.6(7) .
C46 C41 C42 C43 -2.5(8) .
C37 C41 C42 C43 176.1(5) .
C41 C42 C43 C44 0.6(8) .
C42 C43 C44 C45 1.5(8) .
C42 C43 C44 C47 -175.3(5) .
C43 C44 C45 C46 -1.7(8) .
C47 C44 C45 C46 175.1(5) .
C44 C45 C46 C41 -0.2(8) .
C42 C41 C46 C45 2.3(8) .
C37 C41 C46 C45 -176.3(5) .
Co2 O10 C47 O9 19.1(9) 1_444
Co2 O10 C47 C44 -158.8(4) 1_444
Co3 O9 C47 O10 -26.3(8) 1_444
Co3 O9 C47 C44 151.6(4) 1_444
C45 C44 C47 O10 -8.5(8) .
C43 C44 C47 O10 168.3(5) .
C45 C44 C47 O9 173.4(5) .
C43 C44 C47 O9 -9.8(8) .
C38 C39 C48 C49 40.5(8) .
C40 C39 C48 C49 -136.6(6) .
C38 C39 C48 C53 -140.8(6) .
C40 C39 C48 C53 42.1(8) .
C53 C48 C49 C50 -0.5(8) .
C39 C48 C49 C50 178.3(5) .
C48 C49 C50 C51 0.6(8) .
C49 C50 C51 C52 0.9(8) .
C49 C50 C51 C54 178.7(5) .
C50 C51 C52 C53 -2.6(9) .
C54 C51 C52 C53 179.6(5) .
C51 C52 C53 C48 2.8(9) .
C49 C48 C53 C52 -1.2(9) .
C39 C48 C53 C52 180.0(5) .
Co3 O11 C54 O12 -0.8(7) 1_445
Co3 O11 C54 C51 179.0(4) 1_445
C50 C51 C54 O12 9.7(9) .
C52 C51 C54 O12 -172.5(6) .
C50 C51 C54 O11 -170.1(5) .
C52 C51 C54 O11 7.7(8) .
C56 N1 C55 N2 0.6(7) .
Co2 N1 C55 N2 -179.8(4) .
C57 N2 C55 N1 -0.2(7) .
C55 N1 C56 C57 -0.8(6) .
Co2 N1 C56 C57 179.6(4) .
N1 C56 C57 N2 0.6(6) .
N1 C56 C57 C58 -179.0(5) .
C55 N2 C57 C56 -0.2(7) .
C55 N2 C57 C58 179.4(5) .
C56 C57 C58 C59 178.8(6) .
N2 C57 C58 C59 -0.7(9) .
C56 C57 C58 C63 -1.2(10) .
N2 C57 C58 C63 179.3(6) .
C63 C58 C59 C60 -2.2(9) .
C57 C58 C59 C60 177.8(5) .
C58 C59 C60 C61 1.2(9) .
C58 C59 C60 C64 -178.5(5) .
C59 C60 C61 C62 1.4(11) .
C64 C60 C61 C62 -178.9(7) .
C60 C61 C62 C63 -3.1(14) .
C59 C58 C63 C62 0.5(11) .
C57 C58 C63 C62 -179.5(7) .
C61 C62 C63 C58 2.1(14) .
C65 N3 C64 C66 1.8(7) .
C65 N3 C64 C60 -179.0(6) .
C59 C60 C64 C66 -175.9(6) .
C61 C60 C64 C66 4.5(11) .
C59 C60 C64 N3 5.3(9) .
C61 C60 C64 N3 -174.4(7) .
C66 N4 C65 N3 -0.6(8) .
Co3 N4 C65 N3 173.7(5) 2_857
C64 N3 C65 N4 -0.8(8) .
N3 C64 C66 N4 -2.2(7) .
C60 C64 C66 N4 178.8(6) .
C65 N4 C66 C64 1.8(7) .
Co3 N4 C66 C64 -172.3(4) 2_857
