#------------------------------------------------------------------------------
#$Date: 2017-09-19 06:41:43 +0300 (Tue, 19 Sep 2017) $
#$Revision: 201012 $
#$URL: file:///home/coder/svn-repositories/cod/cif/7/04/42/7044260.cif $
#------------------------------------------------------------------------------
#
# This file is available in the Crystallography Open Database (COD),
# http://www.crystallography.net/
#
# All data on this site have been placed in the public domain by the
# contributors.
#
data_7044260
loop_
_publ_author_name
'Liu, Zhi-Qiang'
'Zhao, Yue'
'Zhang, Xiu-Du'
'Kang, Yan-Shang'
'Lu, Qingyi'
'Azam, Mohammad'
'Al-Resayes, Saud I'
'Sun, Wei-Yin'
_publ_section_title
;
 Metal-organic frameworks with 1,4-di(1H-imidazol-4-yl)benzene and varied
 carboxylate ligands for selectively sensing Fe(III) Ion and ketone
 molecules
;
_journal_name_full               'Dalton Trans.'
_journal_paper_doi               10.1039/C7DT02981K
_journal_year                    2017
_chemical_formula_sum            'C27 H18 N4 O5 Zn'
_chemical_formula_weight         543.82
_space_group_crystal_system      orthorhombic
_space_group_IT_number           52
_space_group_name_Hall           '-P 2a 2bc'
_space_group_name_H-M_alt        'P n n a'
_symmetry_space_group_name_Hall  '-P 2a 2bc'
_symmetry_space_group_name_H-M   'P n n a'
_atom_sites_solution_hydrogens   geom
_audit_creation_method           SHELXL-2014/7
_audit_update_record
;
2017-09-13 deposited with the CCDC.
2017-09-18 downloaded from the CCDC.
;
_cell_angle_alpha                90
_cell_angle_beta                 90
_cell_angle_gamma                90
_cell_formula_units_Z            4
_cell_length_a                   11.0779(11)
_cell_length_b                   22.030(2)
_cell_length_c                   11.4217(10)
_cell_measurement_reflns_used    3389
_cell_measurement_temperature    293(2)
_cell_measurement_theta_max      27.2841
_cell_measurement_theta_min      2.5613
_cell_volume                     2787.4(4)
_computing_cell_refinement       'Bruker SMART'
_computing_data_collection       'Bruker SMART'
_computing_data_reduction        'Bruker SAINT'
_computing_molecular_graphics    'Bruker SHELXTL'
_computing_publication_material  'Bruker SHELXTL'
_computing_structure_refinement  'SHELXL-2014/7 (Sheldrick, 2014)'
_computing_structure_solution    'SHELXS-2014/7 (Sheldrick, 2014)'
_diffrn_ambient_temperature      293(2)
_diffrn_measured_fraction_theta_full 0.998
_diffrn_measured_fraction_theta_max 0.996
_diffrn_measurement_device_type  'Bruker APEX-II CCD'
_diffrn_measurement_method       '\f and \w scans'
_diffrn_radiation_type           MoK\a
_diffrn_radiation_wavelength     0.71073
_diffrn_reflns_av_R_equivalents  0.1133
_diffrn_reflns_av_unetI/netI     0.1032
_diffrn_reflns_Laue_measured_fraction_full 0.998
_diffrn_reflns_Laue_measured_fraction_max 0.996
_diffrn_reflns_limit_h_max       14
_diffrn_reflns_limit_h_min       -14
_diffrn_reflns_limit_k_max       21
_diffrn_reflns_limit_k_min       -28
_diffrn_reflns_limit_l_max       14
_diffrn_reflns_limit_l_min       -14
_diffrn_reflns_number            15068
_diffrn_reflns_point_group_measured_fraction_full 0.998
_diffrn_reflns_point_group_measured_fraction_max 0.996
_diffrn_reflns_theta_full        25.242
_diffrn_reflns_theta_max         27.544
_diffrn_reflns_theta_min         2.008
_diffrn_source                   'fine-focus sealed tube'
_exptl_absorpt_coefficient_mu    0.922
_exptl_absorpt_correction_T_max  0.7456
_exptl_absorpt_correction_T_min  0.4367
_exptl_absorpt_correction_type   multi-scan
_exptl_absorpt_process_details   SADABS
_exptl_crystal_colour            colorless
_exptl_crystal_density_diffrn    1.296
_exptl_crystal_description       block
_exptl_crystal_F_000             1112
_exptl_crystal_size_max          0.240
_exptl_crystal_size_mid          0.180
_exptl_crystal_size_min          0.140
_refine_diff_density_max         0.959
_refine_diff_density_min         -0.828
_refine_diff_density_rms         0.092
_refine_ls_extinction_method     none
_refine_ls_goodness_of_fit_ref   0.920
_refine_ls_hydrogen_treatment    constr
_refine_ls_matrix_type           full
_refine_ls_number_parameters     169
_refine_ls_number_reflns         3211
_refine_ls_number_restraints     0
_refine_ls_restrained_S_all      0.920
_refine_ls_R_factor_all          0.1042
_refine_ls_R_factor_gt           0.0655
_refine_ls_shift/su_max          0.021
_refine_ls_shift/su_mean         0.003
_refine_ls_structure_factor_coef Fsqd
_refine_ls_weighting_details
'w=1/[\s^2^(Fo^2^)+(0.0915P)^2^+5.6379P] where P=(Fo^2^+2Fc^2^)/3'
_refine_ls_weighting_scheme      calc
_refine_ls_wR_factor_gt          0.1655
_refine_ls_wR_factor_ref         0.1872
_reflns_Friedel_coverage         0.000
_reflns_number_gt                2136
_reflns_number_total             3211
_reflns_threshold_expression     'I > 2\s(I)'
_cod_data_source_file            c7dt02981k2.cif
_cod_data_source_block           1
_cod_database_code               7044260
_shelx_shelxl_version_number     2014/7
_shelx_space_group_comment
;
The symmetry employed for this shelxl refinement is uniquely defined
by the following loop, which should always be used as a source of
symmetry information in preference to the above space-group names.
They are only intended as comments.
;
_shelx_estimated_absorpt_t_min   0.809
_shelx_estimated_absorpt_t_max   0.882
_shelx_res_file
;

    2.res created by SHELXL-2014/7

TITL 2.res in Pc                  New: Pnna
CELL  0.71073   11.0779   22.0300   11.4217    90.000    90.000    90.000
ZERR        4    0.0011    0.0020    0.0010     0.000     0.000     0.000
LATT 1
SYMM     0.50000 - X ,            - Y ,              Z
SYMM               X ,    0.50000 - Y ,    0.50000 - Z
SYMM     0.50000 - X ,    0.50000 + Y ,    0.50000 - Z
SFAC C  H  N  O  Zn
UNIT 108 72 16 20 4
L.S. 5 0    9
ACTA
BOND $H
FMAP 2
PLAN 20
HTAB N2 O2_$1
HTAB N2 O2_$1
HTAB N2 O2_$1
HTAB N2 O2_$1
HTAB N2 O2_$1
HTAB N2 O2_$1
HTAB N2 O2_$1
HTAB N2 O2_$1
HTAB N2 O2_$1
HTAB N2 O2_$1
HTAB N2 O2_$1
HTAB N2 O2_$1
HTAB N2 O2_$1
HTAB N2 O2_$1
HTAB N2 O2_$1
htab
conf
size 0.24 0.18 0.14
isor .01 o1w
WGHT    0.091500    5.637900
FVAR       0.38578
RESI 0
CONF
EQIV $1 x+1/2, -y+1/2, z-1/2
HTAB N2 O2_$1
HTAB N2 O2_$1
HTAB N2 O2_$1
HTAB N2 O2_$1
HTAB N2 O2_$1
HTAB N2 O2_$1
HTAB N2 O2_$1
HTAB N2 O2_$1
HTAB N2 O2_$1
HTAB N2 O2_$1
HTAB N2 O2_$1
HTAB N2 O2_$1
HTAB N2 O2_$1
HTAB N2 O2_$1
HTAB N2 O2_$1
FREE Zn1  C7
temp 20
ABIN
ZN1   5    0.215219    0.250000    0.250000    10.50000    0.03470    0.02289 =
         0.02363    0.00169    0.00000    0.00000
N1    3    0.319511    0.301751    0.146757    11.00000    0.04628    0.02377 =
         0.02986    0.00089    0.00593   -0.00675
N2    3    0.428971    0.330518   -0.003893    11.00000    0.06094    0.02995 =
         0.03554   -0.00519    0.02124   -0.00961
AFIX  43
H2    2    0.469325    0.328450   -0.068092    11.00000   -1.20000
AFIX   0
O1    4    0.151407    0.191202    0.125649    11.00000    0.03386    0.03118 =
         0.03478    0.00049    0.00256   -0.01127
O2    4    0.042079    0.183823    0.286071    11.00000    0.04567    0.03217 =
         0.03220    0.00079    0.00235   -0.00495
O3    4   -0.250000    0.000000   -0.165894    10.50000    0.04584    0.09679 =
         0.02748    0.00000    0.00000   -0.03451
C1    1    0.341533    0.363318    0.154606    11.00000    0.03920    0.02940 =
         0.02941   -0.00508    0.00469   -0.00823
AFIX  43
H1    2    0.313926    0.388279    0.214563    11.00000   -1.20000
AFIX   0
C2    1    0.374148    0.284312    0.049660    11.00000    0.07775    0.02455 =
         0.03723   -0.00532    0.02010   -0.00698
AFIX  43
H2A   2    0.374375    0.244614    0.021967    11.00000   -1.20000
AFIX   0
C3    1    0.409573    0.382385    0.061904    11.00000    0.03830    0.02690 =
         0.03234   -0.00245    0.00623   -0.00304
C4    1    0.457438    0.441997    0.029371    11.00000    0.03493    0.02607 =
         0.03244   -0.00270    0.01026   -0.00594
C5    1    0.419973    0.492983    0.090358    11.00000    0.04417    0.03460 =
         0.04337    0.00057    0.02167   -0.00679
AFIX  43
H5    2    0.365823    0.488678    0.152023    11.00000   -1.20000
AFIX   0
C6    1    0.538717    0.450412   -0.061426    11.00000    0.05217    0.02887 =
         0.04638   -0.00711    0.02055   -0.00321
AFIX  43
H6    2    0.565733    0.416933   -0.103538    11.00000   -1.20000
AFIX   0
C7    1    0.062296    0.169910    0.181147    11.00000    0.03184    0.02719 =
         0.03049    0.00428   -0.00075   -0.00166
C8    1   -0.020240    0.126256    0.119253    11.00000    0.02766    0.02757 =
         0.03123    0.00437    0.00037   -0.00426
C9    1    0.005550    0.106491    0.006341    11.00000    0.02751    0.03229 =
         0.03472    0.00151    0.00711   -0.00626
AFIX  43
H9    2    0.073897    0.120920   -0.031881    11.00000   -1.20000
AFIX   0
C10   1   -0.069223    0.065742   -0.049374    11.00000    0.02938    0.03764 =
         0.02533   -0.00073    0.00131    0.00128
AFIX  43
H10   2   -0.051067    0.052797   -0.124848    11.00000   -1.20000
AFIX   0
C11   1   -0.172024    0.043826    0.006936    11.00000    0.02495    0.04054 =
         0.03045    0.00334   -0.00351   -0.00858
C12   1   -0.199822    0.065679    0.117752    11.00000    0.02879    0.05203 =
         0.03424   -0.00189    0.00515   -0.01401
AFIX  43
H12   2   -0.270095    0.052765    0.154685    11.00000   -1.20000
AFIX   0
C13   1   -0.125042    0.106069    0.173536    11.00000    0.03353    0.04671 =
         0.02947   -0.00562    0.00760   -0.00969
AFIX  43
H13   2   -0.144623    0.119989    0.248023    11.00000   -1.20000
AFIX   0
C14   1   -0.250000    0.000000   -0.058631    10.50000    0.03114    0.05323 =
         0.02783    0.00000    0.00000   -0.01103
HKLF 4 1  0.0000  0.0000  1.0000  1.0000  0.0000  0.0000  0.0000  1.0000  0.0000

REM  qqq_b.res in Pc                  New: Pnna
REM R1 =  0.0655 for    2136 Fo > 4sig(Fo)  and  0.1042 for all    3211 data
REM    169 parameters refined using      0 restraints

END

WGHT      0.0760      2.0713

REM Instructions for potential hydrogen bonds
HTAB N2 O2_$1

REM Highest difference peak  0.959,  deepest hole -0.828,  1-sigma level  0.092
Q1    1   0.2100  0.2817  0.1926  11.00000  0.05    0.96
Q2    1   0.1964  0.2819  0.3065  11.00000  0.05    0.83
Q3    1   0.4465  0.4122  0.0740  11.00000  0.05    0.46
Q4    1  -0.2130  0.0214 -0.0185  11.00000  0.05    0.35
Q5    1   0.0124  0.1473  0.1448  11.00000  0.05    0.34
Q6    1  -0.2037  0.0762  0.0591  11.00000  0.05    0.32
Q7    1   0.3472  0.2788  0.2069  11.00000  0.05    0.32
Q8    1  -0.2578 -0.0271 -0.1159  11.00000  0.05    0.32
Q9    1  -0.0042  0.0926  0.0633  11.00000  0.05    0.32
Q10   1  -0.0154  0.1337  0.0543  11.00000  0.05    0.30
Q11   1   0.4605  0.4694  0.0706  11.00000  0.05    0.30
Q12   1   0.0355  0.2110  0.3336  11.00000  0.05    0.30
Q13   1   0.3232  0.2509  0.0132  11.00000  0.05    0.30
Q14   1   0.0747  0.1523  0.2432  11.00000  0.05    0.29
Q15   1   0.0187  0.1568  0.3183  11.00000  0.05    0.28
Q16   1   0.3294  0.2884  0.0797  11.00000  0.05    0.27
Q17   1   0.4355  0.3630  0.0540  11.00000  0.05    0.27
Q18   1   0.0361  0.2145  0.2479  11.00000  0.05    0.27
Q19   1  -0.1677  0.0408  0.1023  11.00000  0.05    0.27
Q20   1   0.4154  0.5194  0.0458  11.00000  0.05    0.27
;
_shelx_res_checksum              46879
_shelx_fab_file
;
    2    0    0    -19.39      0.00
    4    0    0    -14.96      0.00
    6    0    0      0.95      0.00
    8    0    0      6.34      0.00
   10    0    0     -3.34      0.00
   12    0    0      1.98      0.00
   14    0    0     -1.85      0.00
    1    0    1     48.89      0.00
    3    0    1      8.87      0.00
    5    0    1    -10.49      0.00
    7    0    1     -5.25      0.00
    9    0    1      3.57      0.00
   11    0    1     -1.18      0.00
   13    0    1      1.23      0.00
    0    0    2    -30.50      0.00
    2    0    2      0.36      0.00
    4    0    2     12.11      0.00
    6    0    2     -3.38      0.00
    8    0    2     -4.11      0.00
   10    0    2      0.60      0.00
   12    0    2      1.55      0.00
   14    0    2      0.74      0.00
    1    0    3     -0.30      0.00
    3    0    3     -9.88      0.00
    5    0    3      8.55      0.00
    7    0    3      1.37      0.00
    9    0    3     -1.54      0.00
   11    0    3     -1.75      0.00
   13    0    3      0.54      0.00
    0    0    4     -1.60      0.00
    2    0    4      5.31      0.00
    4    0    4     -7.50      0.00
    6    0    4      1.61      0.00
    8    0    4      2.14      0.00
   10    0    4      0.25      0.00
   12    0    4     -0.13      0.00
    1    0    5     -0.16      0.00
    3    0    5      3.90      0.00
    5    0    5     -1.24      0.00
    7    0    5     -0.94      0.00
    9    0    5      1.05      0.00
   11    0    5     -0.30      0.00
   13    0    5      0.76      0.00
    0    0    6     -0.04      0.00
    2    0    6     -0.33      0.00
    4    0    6      1.04      0.00
    8    0    6      0.37      0.00
   10    0    6      0.56      0.00
   12    0    6     -0.11      0.00
    1    0    7      0.37      0.00
    3    0    7     -0.90      0.00
    5    0    7      1.22      0.00
    7    0    7     -3.42      0.00
    9    0    7      1.21      0.00
   11    0    7     -0.70      0.00
    0    0    8     -0.23      0.00
    2    0    8      0.28      0.00
    4    0    8     -1.29      0.00
    6    0    8      2.56      0.00
    8    0    8     -3.41      0.00
   10    0    8      3.36      0.00
   12    0    8     -0.51      0.00
    1    0    9      0.28      0.00
    3    0    9      0.67      0.00
    5    0    9     -0.31      0.00
    7    0    9     -0.10      0.00
    9    0    9     -5.13      0.00
   11    0    9      2.44      0.00
    0    0   10     -0.83      0.00
    2    0   10     -0.34      0.00
    4    0   10      0.14      0.00
    6    0   10      2.72      0.00
    8    0   10     -0.23      0.00
   10    0   10     -4.10      0.00
    1    0   11     -0.49      0.00
    3    0   11     -0.74      0.00
    5    0   11     -0.63      0.00
    7    0   11      4.10      0.00
    9    0   11      0.51      0.00
    0    0   12      0.65      0.00
    2    0   12      0.56      0.00
    4    0   12     -0.80      0.00
    6    0   12     -1.87      0.00
    8    0   12      3.18      0.00
    1    0   13     -0.33      0.00
    3    0   13      0.96      0.00
    5    0   13      0.19      0.00
    0    0   14      0.47      0.00
    2    0   14     -0.47      0.00
    4    0   14      0.55      0.00
    2    1    0    -40.14      0.00
    4    1    0      6.55      0.00
    6    1    0      8.17      0.00
    8    1    0     -0.75      0.00
   10    1    0     -0.48      0.00
   12    1    0     -0.06      0.00
   14    1    0      0.44      0.00
    0    1    1     -8.19      0.00
    1    1    1     28.79      0.00
    2    1    1      5.38      0.00
    3    1    1    -17.70      0.00
    4    1    1     -0.75      0.00
    5    1    1     -3.89      0.00
    6    1    1      0.83      0.00
    7    1    1      4.75      0.00
    8    1    1     -0.73      0.00
    9    1    1      0.66      0.00
   10    1    1      0.29      0.00
   11    1    1     -1.42      0.00
   12    1    1     -0.92      0.00
   13    1    1     -0.99      0.00
   14    1    1      0.18      0.00
    1    1    2     -8.31      0.00
    2    1    2     15.42      0.00
    3    1    2      2.31      0.00
    4    1    2     -1.77      0.00
    5    1    2     -0.01      0.00
    6    1    2     -6.25      0.00
    7    1    2      0.45      0.00
    8    1    2      0.55      0.00
    9    1    2      0.03      0.00
   10    1    2      2.41      0.00
   11    1    2      0.39      0.00
   12    1    2     -0.38      0.00
   13    1    2     -0.13      0.00
   14    1    2     -1.01      0.00
    0    1    3      4.14      0.00
    1    1    3     -5.23      0.00
    2    1    3     -2.60      0.00
    3    1    3      2.91      0.00
    4    1    3     -1.38      0.00
    5    1    3      2.47      0.00
    6    1    3      1.51      0.00
    7    1    3     -3.48      0.00
    8    1    3     -0.45      0.00
    9    1    3     -1.67      0.00
   10    1    3      0.64      0.00
   11    1    3      1.72      0.00
   12    1    3     -0.42      0.00
   13    1    3      0.48      0.00
   14    1    3      0.65      0.00
    1    1    4      0.71      0.00
    2    1    4     -3.57      0.00
    3    1    4      1.34      0.00
    4    1    4      0.56      0.00
    5    1    4     -2.58      0.00
    6    1    4      3.05      0.00
    7    1    4      1.71      0.00
    8    1    4     -0.33      0.00
    9    1    4     -0.28      0.00
   10    1    4     -1.19      0.00
   11    1    4      0.31      0.00
   12    1    4      0.26      0.00
   13    1    4     -0.61      0.00
    0    1    5     -0.59      0.00
    1    1    5      1.72      0.00
    2    1    5      0.04      0.00
    3    1    5     -2.35      0.00
    4    1    5      1.49      0.00
    5    1    5     -1.63      0.00
    6    1    5     -1.61      0.00
    7    1    5      1.09      0.00
    8    1    5     -0.21      0.00
    9    1    5     -0.07      0.00
   10    1    5      0.60      0.00
   11    1    5     -0.34      0.00
   12    1    5     -0.45      0.00
   13    1    5      0.63      0.00
    1    1    6     -1.03      0.00
    2    1    6      1.21      0.00
    3    1    6      0.26      0.00
    4    1    6      0.94      0.00
    5    1    6      0.35      0.00
    6    1    6     -0.23      0.00
    7    1    6      0.58      0.00
    8    1    6      1.77      0.00
    9    1    6     -1.08      0.00
   10    1    6      0.25      0.00
   11    1    6      1.28      0.00
   12    1    6     -0.83      0.00
   13    1    6     -0.88      0.00
    0    1    7      0.71      0.00
    1    1    7      0.43      0.00
    2    1    7     -0.60      0.00
    3    1    7      0.01      0.00
    4    1    7      0.00      0.00
    5    1    7     -0.30      0.00
    6    1    7     -0.15      0.00
    7    1    7     -0.98      0.00
    8    1    7      0.55      0.00
    9    1    7      1.15      0.00
   10    1    7     -1.29      0.00
   11    1    7      0.59      0.00
   12    1    7      0.70      0.00
    1    1    8      0.17      0.00
    2    1    8     -0.20      0.00
    3    1    8      0.04      0.00
    4    1    8      0.65      0.00
    5    1    8     -1.08      0.00
    6    1    8     -0.67      0.00
    7    1    8      0.70      0.00
    8    1    8      0.09      0.00
    9    1    8     -0.03      0.00
   10    1    8      0.87      0.00
   11    1    8     -0.63      0.00
   12    1    8     -0.42      0.00
    0    1    9     -0.06      0.00
    1    1    9      0.14      0.00
    2    1    9      0.20      0.00
    3    1    9     -0.45      0.00
    4    1    9      0.75      0.00
    5    1    9      0.37      0.00
    6    1    9     -1.08      0.00
    7    1    9     -1.58      0.00
    8    1    9      1.71      0.00
    9    1    9      0.93      0.00
   10    1    9      0.02      0.00
   11    1    9      2.35      0.00
    1    1   10     -0.24      0.00
    2    1   10      0.19      0.00
    3    1   10      0.40      0.00
    4    1   10     -0.03      0.00
    5    1   10      0.02      0.00
    6    1   10     -0.38      0.00
    7    1   10     -1.17      0.00
    8    1   10     -2.57      0.00
    9    1   10      1.32      0.00
   10    1   10     -1.34      0.00
    0    1   11      0.09      0.00
    1    1   11     -0.45      0.00
    2    1   11     -0.67      0.00
    3    1   11      0.40      0.00
    4    1   11      0.52      0.00
    5    1   11      0.72      0.00
    6    1   11     -0.31      0.00
    7    1   11     -0.48      0.00
    8    1   11     -1.30      0.00
    9    1   11     -0.88      0.00
    1    1   12      0.26      0.00
    2    1   12     -0.68      0.00
    3    1   12     -0.45      0.00
    4    1   12      0.28      0.00
    5    1   12      0.05      0.00
    6    1   12      1.55      0.00
    7    1   12      0.40      0.00
    8    1   12     -0.13      0.00
    0    1   13      0.13      0.00
    1    1   13      0.16      0.00
    2    1   13      0.30      0.00
    3    1   13     -0.28      0.00
    4    1   13      0.38      0.00
    5    1   13     -0.42      0.00
    6    1   13     -0.32      0.00
    1    1   14      0.05      0.00
    2    1   14      0.09      0.00
    3    1   14      0.01      0.00
    4    1   14      0.12      0.00
    2    2    0      6.70      0.00
    4    2    0     11.15      0.00
    6    2    0     -3.81      0.00
    8    2    0     -1.68      0.00
   10    2    0      2.20      0.00
   12    2    0      0.20      0.00
   14    2    0      0.38      0.00
    1    2    1    -26.07      0.00
    2    2    1      3.66      0.00
    3    2    1     -6.36      0.00
    4    2    1     -1.29      0.00
    5    2    1      7.77      0.00
    6    2    1     -0.44      0.00
    7    2    1      1.30      0.00
    8    2    1     -0.02      0.00
    9    2    1     -2.04      0.00
   10    2    1     -0.73      0.00
   11    2    1      1.06      0.00
   12    2    1      0.06      0.00
   13    2    1     -0.08      0.00
   14    2    1      0.35      0.00
    0    2    2     18.44      0.00
    1    2    2     -1.62      0.00
    2    2    2     -1.81      0.00
    3    2    2      3.66      0.00
    4    2    2     -4.99      0.00
    5    2    2      0.32      0.00
    6    2    2      1.90      0.00
    7    2    2     -0.66      0.00
    8    2    2      2.73      0.00
    9    2    2      0.10      0.00
   10    2    2     -1.86      0.00
   11    2    2     -0.71      0.00
   12    2    2      0.02      0.00
   13    2    2     -0.47      0.00
   14    2    2     -0.94      0.00
    1    2    3      2.09      0.00
    2    2    3     -2.15      0.00
    3    2    3      2.10      0.00
    4    2    3      0.98      0.00
    5    2    3     -3.53      0.00
    6    2    3      0.49      0.00
    7    2    3     -1.47      0.00
    8    2    3     -1.09      0.00
    9    2    3      1.49      0.00
   10    2    3      0.29      0.00
   11    2    3     -0.35      0.00
   12    2    3      0.55      0.00
   13    2    3      0.71      0.00
   14    2    3      0.41      0.00
    0    2    4      1.20      0.00
    1    2    4      0.46      0.00
    2    2    4     -1.63      0.00
    3    2    4     -2.45      0.00
    4    2    4      3.35      0.00
    5    2    4      1.08      0.00
    6    2    4     -0.94      0.00
    7    2    4      1.82      0.00
    8    2    4     -0.42      0.00
    9    2    4     -0.78      0.00
   10    2    4     -0.23      0.00
   11    2    4     -0.22      0.00
   12    2    4     -0.42      0.00
   13    2    4      0.15      0.00
    1    2    5      1.41      0.00
    2    2    5      2.30      0.00
    3    2    5     -2.60      0.00
    4    2    5     -2.37      0.00
    5    2    5      1.19      0.00
    6    2    5      0.00      0.00
    7    2    5     -0.83      0.00
    8    2    5      1.46      0.00
    9    2    5      0.46      0.00
   10    2    5     -0.60      0.00
   11    2    5     -0.22      0.00
   12    2    5     -0.03      0.00
   13    2    5     -0.06      0.00
    0    2    6     -1.51      0.00
    1    2    6     -0.90      0.00
    2    2    6      0.85      0.00
    3    2    6      1.79      0.00
    4    2    6     -0.80      0.00
    5    2    6     -0.98      0.00
    6    2    6      0.33      0.00
    7    2    6     -0.46      0.00
    8    2    6     -0.78      0.00
    9    2    6      0.63      0.00
   10    2    6     -0.40      0.00
   11    2    6     -0.48      0.00
   12    2    6     -0.30      0.00
   13    2    6      0.24      0.00
    1    2    7     -0.11      0.00
    2    2    7     -0.47      0.00
    3    2    7      0.32      0.00
    4    2    7      0.81      0.00
    5    2    7      0.23      0.00
    6    2    7      0.35      0.00
    7    2    7      1.08      0.00
    8    2    7      0.07      0.00
    9    2    7      0.57      0.00
   10    2    7      0.47      0.00
   11    2    7      0.06      0.00
   12    2    7      0.12      0.00
    0    2    8     -0.76      0.00
    1    2    8      0.27      0.00
    2    2    8      0.35      0.00
    3    2    8     -0.89      0.00
    4    2    8      0.70      0.00
    5    2    8     -0.23      0.00
    6    2    8     -0.46      0.00
    7    2    8     -0.01      0.00
    8    2    8      0.39      0.00
    9    2    8     -0.69      0.00
   10    2    8     -0.82      0.00
   11    2    8     -0.87      0.00
   12    2    8     -0.08      0.00
    1    2    9     -0.72      0.00
    2    2    9      0.74      0.00
    3    2    9     -0.86      0.00
    4    2    9     -0.58      0.00
    5    2    9      0.73      0.00
    6    2    9     -0.31      0.00
    7    2    9      0.70      0.00
    8    2    9      0.13      0.00
    9    2    9      2.10      0.00
   10    2    9     -0.20      0.00
   11    2    9     -1.01      0.00
    0    2   10      0.93      0.00
    1    2   10     -0.11      0.00
    2    2   10      0.12      0.00
    3    2   10      0.40      0.00
    4    2   10     -0.74      0.00
    5    2   10      0.60      0.00
    6    2   10     -1.13      0.00
    7    2   10      0.82      0.00
    8    2   10      0.36      0.00
    9    2   10      0.85      0.00
   10    2   10      2.27      0.00
    1    2   11      1.08      0.00
    2    2   11     -0.01      0.00
    3    2   11     -0.12      0.00
    4    2   11     -0.26      0.00
    5    2   11      0.44      0.00
    6    2   11     -0.20      0.00
    7    2   11     -2.41      0.00
    8    2   11      0.08      0.00
    9    2   11     -0.32      0.00
    0    2   12     -1.48      0.00
    1    2   12     -0.08      0.00
    2    2   12      0.74      0.00
    3    2   12     -0.92      0.00
    4    2   12     -0.49      0.00
    5    2   12      0.06      0.00
    6    2   12      1.31      0.00
    7    2   12     -0.28      0.00
    8    2   12     -1.95      0.00
    1    2   13     -0.24      0.00
    2    2   13      0.74      0.00
    3    2   13      0.08      0.00
    4    2   13     -1.38      0.00
    5    2   13     -0.41      0.00
    6    2   13      0.03      0.00
    0    2   14     -1.00      0.00
    1    2   14     -0.07      0.00
    2    2   14      0.54      0.00
    3    2   14      1.10      0.00
    4    2   14     -0.35      0.00
    2    3    0     12.40      0.00
    4    3    0     -4.06      0.00
    6    3    0     -1.29      0.00
    8    3    0      1.71      0.00
   10    3    0      0.06      0.00
   12    3    0     -0.37      0.00
   14    3    0     -1.62      0.00
    0    3    1      1.21      0.00
    1    3    1     -8.80      0.00
    2    3    1     -0.89      0.00
    3    3    1      5.15      0.00
    4    3    1     -1.85      0.00
    5    3    1     -1.26      0.00
    6    3    1      0.96      0.00
    7    3    1     -1.81      0.00
    8    3    1     -0.62      0.00
    9    3    1      1.23      0.00
   10    3    1      0.85      0.00
   11    3    1      1.31      0.00
   12    3    1     -0.41      0.00
   13    3    1      1.25      0.00
   14    3    1      1.11      0.00
    1    3    2      0.91      0.00
    2    3    2     -1.96      0.00
    3    3    2      1.43      0.00
    4    3    2      1.65      0.00
    5    3    2     -1.84      0.00
    6    3    2      1.24      0.00
    7    3    2      1.63      0.00
    8    3    2     -0.90      0.00
    9    3    2     -0.90      0.00
   10    3    2     -0.14      0.00
   11    3    2      0.38      0.00
   12    3    2      0.18      0.00
   13    3    2     -1.89      0.00
   14    3    2      0.16      0.00
    0    3    3      0.62      0.00
    1    3    3     -1.42      0.00
    2    3    3      0.64      0.00
    3    3    3      1.12      0.00
    4    3    3      2.02      0.00
    5    3    3     -0.09      0.00
    6    3    3     -3.04      0.00
    7    3    3      1.00      0.00
    8    3    3      0.72      0.00
    9    3    3     -0.35      0.00
   10    3    3      0.15      0.00
   11    3    3     -0.24      0.00
   12    3    3      0.65      0.00
   13    3    3      0.41      0.00
   14    3    3     -1.91      0.00
    1    3    4     -1.75      0.00
    2    3    4     -2.12      0.00
    3    3    4     -0.44      0.00
    4    3    4      0.13      0.00
    5    3    4      2.92      0.00
    6    3    4     -0.62      0.00
    7    3    4     -3.03      0.00
    8    3    4      0.61      0.00
    9    3    4     -0.96      0.00
   10    3    4     -0.35      0.00
   11    3    4      1.31      0.00
   12    3    4     -0.81      0.00
   13    3    4      0.67      0.00
    0    3    5      2.97      0.00
    1    3    5      1.22      0.00
    2    3    5     -1.69      0.00
    3    3    5     -0.09      0.00
    4    3    5     -1.49      0.00
    5    3    5     -0.03      0.00
    6    3    5      3.72      0.00
    7    3    5     -0.16      0.00
    8    3    5     -0.45      0.00
    9    3    5      1.34      0.00
   10    3    5     -1.45      0.00
   11    3    5      0.89      0.00
   12    3    5      1.47      0.00
   13    3    5     -1.40      0.00
    1    3    6      1.36      0.00
    2    3    6      0.49      0.00
    3    3    6      0.09      0.00
    4    3    6      0.06      0.00
    5    3    6     -1.85      0.00
    6    3    6     -1.09      0.00
    7    3    6      1.19      0.00
    8    3    6     -1.78      0.00
    9    3    6     -0.14      0.00
   10    3    6     -0.24      0.00
   11    3    6     -1.40      0.00
   12    3    6      1.40      0.00
   13    3    6      1.28      0.00
    0    3    7      0.19      0.00
    1    3    7     -0.67      0.00
    2    3    7     -0.38      0.00
    3    3    7     -0.03      0.00
    4    3    7      0.68      0.00
    5    3    7      0.84      0.00
    6    3    7     -0.22      0.00
    7    3    7      0.22      0.00
    8    3    7      0.42      0.00
    9    3    7     -1.10      0.00
   10    3    7      0.33      0.00
   11    3    7     -0.96      0.00
   12    3    7     -0.44      0.00
    1    3    8      0.10      0.00
    2    3    8      0.01      0.00
    3    3    8     -0.41      0.00
    4    3    8     -0.64      0.00
    5    3    8      0.70      0.00
    6    3    8      0.55      0.00
    7    3    8      0.93      0.00
    8    3    8      0.65      0.00
    9    3    8      0.16      0.00
   10    3    8     -0.20      0.00
   11    3    8      0.21      0.00
   12    3    8      0.25      0.00
    0    3    9      1.00      0.00
    1    3    9      0.12      0.00
    2    3    9     -0.10      0.00
    3    3    9      0.79      0.00
    4    3    9     -1.20      0.00
    5    3    9     -0.65      0.00
    6    3    9     -1.03      0.00
    7    3    9      0.04      0.00
    8    3    9     -0.06      0.00
    9    3    9      0.24      0.00
   10    3    9     -0.52      0.00
   11    3    9     -0.80      0.00
    1    3   10      0.34      0.00
    2    3   10     -0.18      0.00
    3    3   10      0.83      0.00
    4    3   10      0.96      0.00
    5    3   10     -0.01      0.00
    6    3   10      0.16      0.00
    7    3   10     -0.70      0.00
    8    3   10      0.07      0.00
    9    3   10     -0.30      0.00
   10    3   10      0.55      0.00
    0    3   11     -0.03      0.00
    1    3   11      0.11      0.00
    2    3   11     -0.07      0.00
    3    3   11     -0.59      0.00
    4    3   11      0.74      0.00
    5    3   11      0.26      0.00
    6    3   11      0.82      0.00
    7    3   11      0.89      0.00
    8    3   11      0.55      0.00
    9    3   11      0.10      0.00
    1    3   12     -0.99      0.00
    2    3   12      0.56      0.00
    3    3   12      0.46      0.00
    4    3   12     -0.53      0.00
    5    3   12      0.31      0.00
    6    3   12     -0.73      0.00
    7    3   12      0.02      0.00
    8    3   12      0.53      0.00
    0    3   13      1.66      0.00
    1    3   13     -0.18      0.00
    2    3   13     -2.04      0.00
    3    3   13      0.54      0.00
    4    3   13     -0.01      0.00
    5    3   13     -0.28      0.00
    6    3   13      0.24      0.00
    1    3   14      1.38      0.00
    2    3   14     -0.11      0.00
    3    3   14     -1.15      0.00
    4    3   14      0.53      0.00
    0    4    0     15.97      0.00
    2    4    0     -6.91      0.00
    4    4    0     -0.56      0.00
    6    4    0      4.66      0.00
    8    4    0     -1.77      0.00
   10    4    0     -1.36      0.00
   12    4    0     -0.83      0.00
   14    4    0     -1.33      0.00
    1    4    1      9.75      0.00
    2    4    1      0.01      0.00
    3    4    1     -2.91      0.00
    4    4    1      0.11      0.00
    5    4    1     -2.91      0.00
    6    4    1     -0.06      0.00
    7    4    1      2.55      0.00
    8    4    1     -0.34      0.00
    9    4    1      0.18      0.00
   10    4    1      0.06      0.00
   11    4    1     -0.62      0.00
   12    4    1      0.27      0.00
   13    4    1      0.34      0.00
   14    4    1      0.63      0.00
    0    4    2     -3.14      0.00
    1    4    2     -1.48      0.00
    2    4    2      2.74      0.00
    3    4    2     -0.38      0.00
    4    4    2     -1.01      0.00
    5    4    2      0.07      0.00
    6    4    2     -1.55      0.00
    7    4    2      0.82      0.00
    8    4    2      0.32      0.00
    9    4    2     -0.33      0.00
   10    4    2      0.77      0.00
   11    4    2     -0.06      0.00
   12    4    2     -0.65      0.00
   13    4    2      0.01      0.00
   14    4    2      1.51      0.00
    1    4    3      3.15      0.00
    2    4    3     -0.06      0.00
    3    4    3      1.52      0.00
    4    4    3      0.15      0.00
    5    4    3     -0.12      0.00
    6    4    3      0.11      0.00
    7    4    3      0.22      0.00
    8    4    3      1.87      0.00
    9    4    3      0.11      0.00
   10    4    3     -0.49      0.00
   11    4    3      0.76      0.00
   12    4    3     -0.67      0.00
   13    4    3     -1.20      0.00
    0    4    4     -6.38      0.00
    1    4    4     -0.31      0.00
    2    4    4      1.62      0.00
    3    4    4      1.21      0.00
    4    4    4      0.68      0.00
    5    4    4     -0.73      0.00
    6    4    4     -0.03      0.00
    7    4    4     -2.09      0.00
    8    4    4     -0.80      0.00
    9    4    4      1.30      0.00
   10    4    4     -0.53      0.00
   11    4    4     -0.16      0.00
   12    4    4      0.74      0.00
   13    4    4     -0.33      0.00
    1    4    5     -2.89      0.00
    2    4    5     -1.92      0.00
    3    4    5     -0.38      0.00
    4    4    5      1.08      0.00
    5    4    5     -0.07      0.00
    6    4    5      0.27      0.00
    7    4    5      2.18      0.00
    8    4    5     -1.73      0.00
    9    4    5      0.05      0.00
   10    4    5      0.77      0.00
   11    4    5     -0.78      0.00
   12    4    5      0.09      0.00
   13    4    5     -0.54      0.00
    0    4    6      1.24      0.00
    1    4    6      0.85      0.00
    2    4    6      0.33      0.00
    3    4    6     -0.71      0.00
    4    4    6     -0.22      0.00
    5    4    6      0.51      0.00
    6    4    6     -2.03      0.00
    7    4    6      0.44      0.00
    8    4    6      2.20      0.00
    9    4    6     -0.23      0.00
   10    4    6      1.07      0.00
   11    4    6      0.21      0.00
   12    4    6      0.41      0.00
   13    4    6      0.33      0.00
    1    4    7     -0.21      0.00
    2    4    7      0.08      0.00
    3    4    7      0.23      0.00
    4    4    7     -0.25      0.00
    5    4    7      0.98      0.00
    6    4    7     -0.24      0.00
    7    4    7     -3.00      0.00
    8    4    7     -1.35      0.00
    9    4    7      0.23      0.00
   10    4    7      0.26      0.00
   11    4    7     -0.30      0.00
   12    4    7     -0.33      0.00
    0    4    8      0.30      0.00
    1    4    8     -0.62      0.00
    2    4    8     -0.41      0.00
    3    4    8      0.50      0.00
    4    4    8     -0.74      0.00
    5    4    8      0.71      0.00
    6    4    8      1.65      0.00
    7    4    8      1.16      0.00
    8    4    8     -1.39      0.00
    9    4    8     -1.03      0.00
   10    4    8      0.20      0.00
   11    4    8      0.91      0.00
    1    4    9      0.77      0.00
    2    4    9     -1.16      0.00
    3    4    9     -0.34      0.00
    4    4    9     -0.02      0.00
    5    4    9     -0.69      0.00
    6    4    9      0.65      0.00
    7    4    9      0.55      0.00
    8    4    9      1.23      0.00
    9    4    9      0.14      0.00
   10    4    9     -0.41      0.00
   11    4    9      0.06      0.00
    0    4   10     -0.80      0.00
    1    4   10      0.65      0.00
    2    4   10      1.06      0.00
    3    4   10     -0.32      0.00
    4    4   10     -0.38      0.00
    5    4   10     -1.13      0.00
    6    4   10      0.32      0.00
    7    4   10     -0.49      0.00
    8    4   10     -1.24      0.00
    9    4   10     -0.40      0.00
   10    4   10      0.59      0.00
    1    4   11     -0.62      0.00
    2    4   11      0.16      0.00
    3    4   11      0.39      0.00
    4    4   11      0.27      0.00
    5    4   11     -0.46      0.00
    6    4   11     -0.28      0.00
    7    4   11      1.69      0.00
    8    4   11      0.29      0.00
    9    4   11     -1.47      0.00
    0    4   12      0.25      0.00
    1    4   12     -0.14      0.00
    2    4   12      0.14      0.00
    3    4   12      1.07      0.00
    4    4   12     -0.19      0.00
    5    4   12     -0.18      0.00
    6    4   12     -0.82      0.00
    7    4   12     -0.09      0.00
    8    4   12      1.81      0.00
    1    4   13     -0.13      0.00
    2    4   13     -1.31      0.00
    3    4   13      0.37      0.00
    4    4   13      1.84      0.00
    5    4   13      0.07      0.00
    6    4   13      0.16      0.00
    0    4   14      0.51      0.00
    1    4   14      0.61      0.00
    2    4   14      0.12      0.00
    3    4   14     -1.85      0.00
    4    4   14     -0.17      0.00
    2    5    0     -0.28      0.00
    4    5    0      4.87      0.00
    6    5    0     -2.89      0.00
    8    5    0     -1.90      0.00
   10    5    0      0.69      0.00
   12    5    0     -0.47      0.00
   14    5    0      2.59      0.00
    0    5    1      2.66      0.00
    1    5    1     -1.02      0.00
    2    5    1      0.00      0.00
    3    5    1     -1.80      0.00
    4    5    1      0.41      0.00
    5    5    1      4.60      0.00
    6    5    1     -1.88      0.00
    7    5    1      0.17      0.00
    8    5    1      1.01      0.00
    9    5    1     -1.55      0.00
   10    5    1     -0.74      0.00
   11    5    1     -0.30      0.00
   12    5    1      1.79      0.00
   13    5    1     -1.93      0.00
   14    5    1     -0.95      0.00
    1    5    2      1.46      0.00
    2    5    2     -2.03      0.00
    3    5    2     -0.23      0.00
    4    5    2     -2.53      0.00
    5    5    2      1.33      0.00
    6    5    2      1.40      0.00
    7    5    2     -3.00      0.00
    8    5    2      0.82      0.00
    9    5    2      0.52      0.00
   10    5    2     -0.43      0.00
   11    5    2     -1.01      0.00
   12    5    2      0.35      0.00
   13    5    2      2.29      0.00
   14    5    2     -0.42      0.00
    0    5    3     -0.42      0.00
    1    5    3      2.62      0.00
    2    5    3     -0.43      0.00
    3    5    3     -1.15      0.00
    4    5    3     -0.83      0.00
    5    5    3     -1.13      0.00
    6    5    3      2.63      0.00
    7    5    3     -0.30      0.00
    8    5    3     -0.92      0.00
    9    5    3      0.78      0.00
   10    5    3     -0.34      0.00
   11    5    3     -0.22      0.00
   12    5    3     -0.32      0.00
   13    5    3     -0.30      0.00
    1    5    4      2.12      0.00
    2    5    4      2.35      0.00
    3    5    4      0.74      0.00
    4    5    4      0.18      0.00
    5    5    4     -0.77      0.00
    6    5    4     -0.09      0.00
    7    5    4      1.59      0.00
    8    5    4     -1.37      0.00
    9    5    4      1.26      0.00
   10    5    4      0.66      0.00
   11    5    4     -1.67      0.00
   12    5    4      0.57      0.00
   13    5    4      0.75      0.00
    0    5    5     -3.01      0.00
    1    5    5     -0.69      0.00
    2    5    5      0.67      0.00
    3    5    5     -0.02      0.00
    4    5    5      0.35      0.00
    5    5    5      0.76      0.00
    6    5    5     -1.10      0.00
    7    5    5      0.77      0.00
    8    5    5     -0.98      0.00
    9    5    5     -1.98      0.00
   10    5    5      1.89      0.00
   11    5    5     -0.67      0.00
   12    5    5     -2.10      0.00
   13    5    5      0.97      0.00
    1    5    6     -0.94      0.00
    2    5    6      0.40      0.00
    3    5    6     -0.17      0.00
    4    5    6     -0.92      0.00
    5    5    6      0.49      0.00
    6    5    6      0.45      0.00
    7    5    6      0.22      0.00
    8    5    6      2.17      0.00
    9    5    6     -0.72      0.00
   10    5    6     -0.03      0.00
   11    5    6      1.39      0.00
   12    5    6     -0.85      0.00
    0    5    7      0.25      0.00
    1    5    7     -0.31      0.00
    2    5    7      0.63      0.00
    3    5    7      0.59      0.00
    4    5    7     -0.58      0.00
    5    5    7     -0.23      0.00
    6    5    7     -0.07      0.00
    7    5    7     -0.75      0.00
    8    5    7     -0.36      0.00
    9    5    7      1.21      0.00
   10    5    7      0.72      0.00
   11    5    7      0.74      0.00
   12    5    7     -0.01      0.00
    1    5    8      0.00      0.00
    2    5    8     -0.18      0.00
    3    5    8      1.06      0.00
    4    5    8      0.29      0.00
    5    5    8     -0.81      0.00
    6    5    8      0.22      0.00
    7    5    8     -0.43      0.00
    8    5    8     -1.36      0.00
    9    5    8     -2.32      0.00
   10    5    8     -0.31      0.00
   11    5    8      1.71      0.00
    0    5    9     -1.42      0.00
    1    5    9     -0.38      0.00
    2    5    9     -0.44      0.00
    3    5    9     -0.55      0.00
    4    5    9      1.14      0.00
    5    5    9      0.65      0.00
    6    5    9      0.38      0.00
    7    5    9      0.87      0.00
    8    5    9      1.45      0.00
    9    5    9     -0.62      0.00
   10    5    9     -2.01      0.00
   11    5    9     -0.83      0.00
    1    5   10     -0.85      0.00
    2    5   10     -0.29      0.00
    3    5   10     -0.10      0.00
    4    5   10     -1.26      0.00
    5    5   10     -0.01      0.00
    6    5   10      0.17      0.00
    7    5   10     -0.41      0.00
    8    5   10      1.29      0.00
    9    5   10      1.17      0.00
   10    5   10      0.65      0.00
    0    5   11      0.87      0.00
    1    5   11      0.49      0.00
    2    5   11     -0.71      0.00
    3    5   11      0.41      0.00
    4    5   11      0.70      0.00
    5    5   11     -0.66      0.00
    6    5   11      0.15      0.00
    7    5   11     -1.17      0.00
    8    5   11     -0.56      0.00
    9    5   11      0.17      0.00
    1    5   12      1.09      0.00
    2    5   12      0.10      0.00
    3    5   12     -1.12      0.00
    4    5   12      0.29      0.00
    5    5   12     -0.23      0.00
    6    5   12      0.61      0.00
    7    5   12      0.27      0.00
    8    5   12     -0.75      0.00
    0    5   13     -1.63      0.00
    1    5   13     -0.36      0.00
    2    5   13      1.41      0.00
    3    5   13     -0.17      0.00
    4    5   13      0.30      0.00
    5    5   13      0.06      0.00
    6    5   13     -0.61      0.00
    1    5   14     -1.42      0.00
    2    5   14     -0.38      0.00
    3    5   14      0.48      0.00
    4    5   14     -0.38      0.00
    0    6    0     -4.73      0.00
    2    6    0      4.89      0.00
    4    6    0     -0.28      0.00
    6    6    0     -4.49      0.00
    8    6    0      2.33      0.00
   10    6    0      0.81      0.00
   12    6    0     -0.38      0.00
   14    6    0      0.33      0.00
    1    6    1     -4.39      0.00
    2    6    1     -3.22      0.00
    3    6    1      2.81      0.00
    4    6    1      0.04      0.00
    5    6    1      1.99      0.00
    6    6    1      1.57      0.00
    7    6    1     -3.22      0.00
    8    6    1      0.69      0.00
    9    6    1      0.41      0.00
   10    6    1      0.06      0.00
   11    6    1      0.87      0.00
   12    6    1      0.57      0.00
   13    6    1      0.17      0.00
   14    6    1     -2.22      0.00
    0    6    2      1.85      0.00
    1    6    2      3.16      0.00
    2    6    2     -2.81      0.00
    3    6    2     -1.95      0.00
    4    6    2      0.60      0.00
    5    6    2     -2.00      0.00
    6    6    2      2.03      0.00
    7    6    2      0.49      0.00
    8    6    2     -0.43      0.00
    9    6    2      0.89      0.00
   10    6    2     -0.09      0.00
   11    6    2     -0.19      0.00
   12    6    2     -0.17      0.00
   13    6    2      1.80      0.00
    1    6    3      0.10      0.00
    2    6    3      1.03      0.00
    3    6    3     -0.74      0.00
    4    6    3     -0.36      0.00
    5    6    3     -0.79      0.00
    6    6    3     -2.23      0.00
    7    6    3      0.65      0.00
    8    6    3     -1.11      0.00
    9    6    3      0.15      0.00
   10    6    3      0.81      0.00
   11    6    3      0.30      0.00
   12    6    3     -0.42      0.00
   13    6    3     -0.19      0.00
    0    6    4      0.60      0.00
    1    6    4      0.79      0.00
    2    6    4     -0.48      0.00
    3    6    4      0.03      0.00
    4    6    4      0.54      0.00
    5    6    4      0.79      0.00
    6    6    4     -1.26      0.00
    7    6    4     -0.05      0.00
    8    6    4      0.34      0.00
    9    6    4     -0.95      0.00
   10    6    4      0.15      0.00
   11    6    4      0.59      0.00
   12    6    4      0.05      0.00
   13    6    4     -0.10      0.00
    1    6    5     -0.52      0.00
    2    6    5      1.28      0.00
    3    6    5     -0.35      0.00
    4    6    5      0.02      0.00
    5    6    5      1.27      0.00
    6    6    5      0.66      0.00
    7    6    5     -1.38      0.00
    8    6    5      0.61      0.00
    9    6    5     -0.55      0.00
   10    6    5     -0.19      0.00
   11    6    5      0.21      0.00
   12    6    5      0.18      0.00
   13    6    5     -0.25      0.00
    0    6    6      2.63      0.00
    1    6    6     -0.88      0.00
    2    6    6     -0.55      0.00
    3    6    6      0.52      0.00
    4    6    6     -1.11      0.00
    5    6    6     -0.85      0.00
    6    6    6      1.30      0.00
    7    6    6      0.41      0.00
    8    6    6     -0.21      0.00
    9    6    6     -0.62      0.00
   10    6    6     -0.99      0.00
   11    6    6      0.08      0.00
   12    6    6      0.45      0.00
    1    6    7      1.94      0.00
    2    6    7     -0.92      0.00
    3    6    7      1.13      0.00
    4    6    7      0.72      0.00
    5    6    7     -1.75      0.00
    6    6    7     -0.60      0.00
    7    6    7      0.55      0.00
    8    6    7      2.32      0.00
    9    6    7      1.14      0.00
   10    6    7     -0.48      0.00
   11    6    7     -0.35      0.00
   12    6    7     -0.61      0.00
    0    6    8     -1.86      0.00
    1    6    8      1.39      0.00
    2    6    8     -0.30      0.00
    3    6    8     -0.66      0.00
    4    6    8      2.36      0.00
    5    6    8     -0.35      0.00
    6    6    8     -1.04      0.00
    7    6    8     -2.08      0.00
    8    6    8     -0.51      0.00
    9    6    8      1.73      0.00
   10    6    8      0.76      0.00
   11    6    8      0.92      0.00
    1    6    9     -0.75      0.00
    2    6    9      1.33      0.00
    3    6    9     -1.02      0.00
    4    6    9      0.42      0.00
    5    6    9      1.39      0.00
    6    6    9     -0.06      0.00
    7    6    9     -0.14      0.00
    8    6    9     -1.61      0.00
    9    6    9     -1.17      0.00
   10    6    9     -0.75      0.00
   11    6    9     -0.07      0.00
    0    6   10      0.76      0.00
    1    6   10     -0.90      0.00
    2    6   10     -0.62      0.00
    3    6   10     -0.11      0.00
    4    6   10     -0.22      0.00
    5    6   10     -0.12      0.00
    6    6   10      0.21      0.00
    7    6   10      0.10      0.00
    8    6   10      1.08      0.00
    9    6   10      0.90      0.00
   10    6   10     -0.72      0.00
    1    6   11      0.63      0.00
    2    6   11      0.13      0.00
    3    6   11     -0.60      0.00
    4    6   11      0.70      0.00
    5    6   11      0.28      0.00
    6    6   11     -0.72      0.00
    7    6   11     -0.75      0.00
    8    6   11     -0.99      0.00
    9    6   11      1.31      0.00
    0    6   12      0.11      0.00
    1    6   12      0.11      0.00
    2    6   12      0.41      0.00
    3    6   12     -0.64      0.00
    4    6   12     -0.16      0.00
    5    6   12      1.53      0.00
    6    6   12      0.48      0.00
    7    6   12      0.15      0.00
    1    6   13      0.34      0.00
    2    6   13      0.90      0.00
    3    6   13      0.12      0.00
    4    6   13     -1.68      0.00
    5    6   13     -0.08      0.00
    6    6   13      0.10      0.00
    0    6   14     -0.96      0.00
    1    6   14     -0.60      0.00
    2    6   14     -0.16      0.00
    3    6   14      1.36      0.00
    2    7    0      3.57      0.00
    4    7    0     -4.54      0.00
    6    7    0      1.52      0.00
    8    7    0      1.76      0.00
   10    7    0     -1.24      0.00
   12    7    0     -1.76      0.00
    0    7    1     -4.91      0.00
    1    7    1     -1.13      0.00
    2    7    1      0.61      0.00
    3    7    1      4.08      0.00
    4    7    1      1.58      0.00
    5    7    1     -3.22      0.00
    6    7    1      1.71      0.00
    7    7    1     -0.99      0.00
    8    7    1     -1.75      0.00
    9    7    1      1.01      0.00
   10    7    1      0.06      0.00
   11    7    1      0.53      0.00
   12    7    1     -1.12      0.00
   13    7    1     -0.91      0.00
    1    7    2     -2.93      0.00
    2    7    2     -2.11      0.00
    3    7    2     -1.70      0.00
    4    7    2      2.62      0.00
    5    7    2      0.99      0.00
    6    7    2     -0.42      0.00
    7    7    2      3.62      0.00
    8    7    2     -1.00      0.00
    9    7    2     -0.39      0.00
   10    7    2     -0.48      0.00
   11    7    2      0.17      0.00
   12    7    2      1.02      0.00
   13    7    2     -1.21      0.00
    0    7    3      0.15      0.00
    1    7    3      1.23      0.00
    2    7    3      0.71      0.00
    3    7    3     -1.68      0.00
    4    7    3     -1.90      0.00
    5    7    3      0.84      0.00
    6    7    3     -0.96      0.00
    7    7    3      1.56      0.00
    8    7    3      1.91      0.00
    9    7    3      0.15      0.00
   10    7    3      0.92      0.00
   11    7    3     -0.90      0.00
   12    7    3     -0.11      0.00
   13    7    3      0.41      0.00
    1    7    4     -2.16      0.00
    2    7    4      1.97      0.00
    3    7    4      0.39      0.00
    4    7    4     -0.85      0.00
    5    7    4     -1.23      0.00
    6    7    4     -0.96      0.00
    7    7    4     -1.67      0.00
    8    7    4      1.49      0.00
    9    7    4     -0.68      0.00
   10    7    4      0.49      0.00
   11    7    4      1.20      0.00
   12    7    4     -0.51      0.00
   13    7    4      0.05      0.00
    0    7    5      2.51      0.00
    1    7    5     -1.99      0.00
    2    7    5     -0.87      0.00
    3    7    5      1.39      0.00
    4    7    5      0.58      0.00
    5    7    5      0.16      0.00
    6    7    5      0.61      0.00
    7    7    5     -1.52      0.00
    8    7    5     -0.04      0.00
    9    7    5      0.69      0.00
   10    7    5     -1.16      0.00
   11    7    5      0.21      0.00
   12    7    5      0.53      0.00
   13    7    5     -0.45      0.00
    1    7    6      1.40      0.00
    2    7    6     -2.22      0.00
    3    7    6     -0.76      0.00
    4    7    6      0.61      0.00
    5    7    6     -0.12      0.00
    6    7    6      1.20      0.00
    7    7    6      0.28      0.00
    8    7    6     -1.14      0.00
    9    7    6      0.08      0.00
   10    7    6     -0.33      0.00
   11    7    6      0.03      0.00
   12    7    6     -0.09      0.00
    1    7    7      1.90      0.00
    2    7    7      0.77      0.00
    3    7    7     -1.54      0.00
    4    7    7     -0.21      0.00
    5    7    7     -0.91      0.00
    6    7    7      0.39      0.00
    7    7    7      1.13      0.00
    8    7    7      0.62      0.00
    9    7    7      0.11      0.00
   10    7    7     -1.93      0.00
   11    7    7     -0.43      0.00
   12    7    7      0.08      0.00
    1    7    8     -1.11      0.00
    2    7    8      1.92      0.00
    3    7    8     -0.61      0.00
    4    7    8     -0.17      0.00
    5    7    8     -0.09      0.00
    6    7    8     -1.06      0.00
    7    7    8      0.52      0.00
    8    7    8      0.15      0.00
    9    7    8      3.22      0.00
   10    7    8      1.01      0.00
   11    7    8     -1.74      0.00
    0    7    9      1.53      0.00
    1    7    9     -0.90      0.00
    2    7    9      0.91      0.00
    3    7    9      0.77      0.00
    4    7    9     -0.77      0.00
    5    7    9      0.27      0.00
    6    7    9      0.05      0.00
    7    7    9     -0.16      0.00
    8    7    9     -1.63      0.00
    9    7    9     -0.71      0.00
   10    7    9      2.64      0.00
    1    7   10      0.18      0.00
    2    7   10     -0.40      0.00
    3    7   10      0.48      0.00
    4    7   10      0.21      0.00
    5    7   10     -0.52      0.00
    6    7   10      0.10      0.00
    7    7   10      1.31      0.00
    8    7   10     -0.17      0.00
    9    7   10     -1.30      0.00
   10    7   10     -0.71      0.00
    0    7   11     -0.39      0.00
    1    7   11     -0.06      0.00
    2    7   11      0.11      0.00
    3    7   11     -0.25      0.00
    4    7   11     -0.98      0.00
    5    7   11     -0.17      0.00
    6    7   11     -1.46      0.00
    7    7   11      0.80      0.00
    8    7   11      0.62      0.00
    9    7   11     -0.14      0.00
    1    7   12     -0.29      0.00
    2    7   12      0.08      0.00
    3    7   12      1.29      0.00
    4    7   12     -0.10      0.00
    5    7   12      0.20      0.00
    6    7   12     -0.71      0.00
    7    7   12     -0.74      0.00
    0    7   13      0.41      0.00
    1    7   13      0.25      0.00
    2    7   13     -0.75      0.00
    3    7   13      0.58      0.00
    4    7   13      0.27      0.00
    5    7   13      0.11      0.00
    6    7   13      0.73      0.00
    1    7   14      0.48      0.00
    2    7   14     -0.31      0.00
    3    7   14     -0.50      0.00
    0    8    0      6.57      0.00
    2    8    0     -2.84      0.00
    4    8    0     -2.03      0.00
    6    8    0      1.78      0.00
    8    8    0      0.11      0.00
   10    8    0     -1.64      0.00
   12    8    0      2.68      0.00
    1    8    1      4.95      0.00
    2    8    1      2.91      0.00
    3    8    1      0.47      0.00
    4    8    1      0.22      0.00
    5    8    1     -1.68      0.00
    6    8    1     -2.23      0.00
    7    8    1      0.47      0.00
    8    8    1     -1.20      0.00
    9    8    1      0.37      0.00
   10    8    1      1.22      0.00
   11    8    1     -2.60      0.00
   12    8    1     -1.29      0.00
   13    8    1     -0.02      0.00
    0    8    2     -4.35      0.00
    1    8    2     -2.40      0.00
    2    8    2      1.43      0.00
    3    8    2      2.08      0.00
    4    8    2      0.99      0.00
    5    8    2      2.51      0.00
    6    8    2     -1.12      0.00
    7    8    2     -1.67      0.00
    8    8    2     -0.95      0.00
    9    8    2     -2.24      0.00
   10    8    2      0.63      0.00
   11    8    2      1.54      0.00
   12    8    2     -0.48      0.00
   13    8    2     -1.22      0.00
    1    8    3     -2.72      0.00
    2    8    3     -1.08      0.00
    3    8    3     -0.83      0.00
    4    8    3      0.54      0.00
    5    8    3      1.18      0.00
    6    8    3      3.60      0.00
    7    8    3      0.02      0.00
    8    8    3      0.46      0.00
    9    8    3     -1.05      0.00
   10    8    3     -1.29      0.00
   11    8    3     -0.03      0.00
   12    8    3      0.55      0.00
   13    8    3      0.69      0.00
    0    8    4      3.78      0.00
    1    8    4     -0.65      0.00
    2    8    4     -0.02      0.00
    3    8    4     -0.31      0.00
    4    8    4     -1.48      0.00
    5    8    4     -1.03      0.00
    6    8    4      1.30      0.00
    7    8    4      1.86      0.00
    8    8    4      0.67      0.00
    9    8    4      0.52      0.00
   10    8    4     -0.16      0.00
   11    8    4      0.29      0.00
   12    8    4     -0.40      0.00
   13    8    4     -0.85      0.00
    1    8    5      2.19      0.00
    2    8    5     -0.91      0.00
    3    8    5      1.29      0.00
    4    8    5      0.48      0.00
    5    8    5     -2.04      0.00
    6    8    5     -1.38      0.00
    7    8    5      0.65      0.00
    8    8    5      0.20      0.00
    9    8    5      0.42      0.00
   10    8    5     -1.25      0.00
   11    8    5      0.46      0.00
   12    8    5      1.00      0.00
    0    8    6     -3.48      0.00
    1    8    6      0.44      0.00
    2    8    6      0.15      0.00
    3    8    6     -1.37      0.00
    4    8    6      2.37      0.00
    5    8    6      1.15      0.00
    6    8    6     -1.65      0.00
    7    8    6     -0.57      0.00
    8    8    6     -0.37      0.00
    9    8    6      1.35      0.00
   10    8    6      0.21      0.00
   11    8    6     -0.98      0.00
   12    8    6      0.37      0.00
    1    8    7     -2.69      0.00
    2    8    7      1.22      0.00
    3    8    7     -1.69      0.00
    4    8    7     -1.35      0.00
    5    8    7      2.82      0.00
    6    8    7      0.50      0.00
    7    8    7      0.12      0.00
    8    8    7     -1.84      0.00
    9    8    7     -1.19      0.00
   10    8    7      0.35      0.00
   11    8    7      0.11      0.00
   12    8    7      0.70      0.00
    0    8    8      3.96      0.00
    1    8    8     -1.08      0.00
    2    8    8     -0.13      0.00
    3    8    8      0.90      0.00
    4    8    8     -2.67      0.00
    5    8    8     -0.33      0.00
    6    8    8      0.71      0.00
    7    8    8      1.23      0.00
    8    8    8      0.97      0.00
    9    8    8     -0.94      0.00
   10    8    8     -0.50      0.00
   11    8    8     -1.88      0.00
    1    8    9      2.03      0.00
    2    8    9     -0.77      0.00
    3    8    9      1.42      0.00
    4    8    9      0.32      0.00
    5    8    9     -0.91      0.00
    6    8    9     -0.69      0.00
    7    8    9     -0.35      0.00
    8    8    9      0.77      0.00
    9    8    9     -0.12      0.00
   10    8    9      1.38      0.00
    0    8   10     -2.12      0.00
    1    8   10      0.32      0.00
    2    8   10      0.07      0.00
    3    8   10      0.25      0.00
    4    8   10      0.63      0.00
    5    8   10      1.94      0.00
    6    8   10      0.20      0.00
    7    8   10     -0.14      0.00
    8    8   10      0.33      0.00
    9    8   10     -0.52      0.00
    1    8   11     -1.13      0.00
    2    8   11     -0.88      0.00
    3    8   11     -0.19      0.00
    4    8   11     -1.33      0.00
    5    8   11     -0.04      0.00
    6    8   11      1.57      0.00
    7    8   11      0.17      0.00
    8    8   11      0.46      0.00
    0    8   12      0.82      0.00
    1    8   12      0.76      0.00
    2    8   12     -0.50      0.00
    3    8   12     -0.47      0.00
    4    8   12     -0.19      0.00
    5    8   12     -1.65      0.00
    6    8   12     -0.56      0.00
    7    8   12     -0.08      0.00
    1    8   13      0.28      0.00
    2    8   13      0.96      0.00
    3    8   13     -0.05      0.00
    4    8   13      0.45      0.00
    5    8   13      0.19      0.00
    0    8   14      0.21      0.00
    1    8   14     -0.49      0.00
    2    8   14      0.25      0.00
    2    9    0     -3.30      0.00
    4    9    0      2.15      0.00
    6    9    0     -0.78      0.00
    8    9    0      0.19      0.00
   10    9    0      1.13      0.00
   12    9    0      3.13      0.00
    0    9    1      2.70      0.00
    1    9    1      1.82      0.00
    2    9    1     -0.36      0.00
    3    9    1     -2.80      0.00
    4    9    1     -1.56      0.00
    5    9    1      1.51      0.00
    6    9    1     -0.07      0.00
    7    9    1      0.07      0.00
    8    9    1      0.60      0.00
    9    9    1     -0.51      0.00
   10    9    1      1.05      0.00
   11    9    1     -0.45      0.00
   12    9    1     -0.90      0.00
   13    9    1      2.03      0.00
    1    9    2      1.64      0.00
    2    9    2      2.77      0.00
    3    9    2      1.46      0.00
    4    9    2     -1.56      0.00
    5    9    2     -2.97      0.00
    6    9    2      0.11      0.00
    7    9    2     -1.10      0.00
    8    9    2      0.79      0.00
    9    9    2     -1.13      0.00
   10    9    2     -0.60      0.00
   11    9    2      1.58      0.00
   12    9    2     -1.06      0.00
   13    9    2     -1.63      0.00
    0    9    3      0.14      0.00
    1    9    3     -2.49      0.00
    2    9    3     -0.43      0.00
    3    9    3      1.88      0.00
    4    9    3      2.84      0.00
    5    9    3     -0.09      0.00
    6    9    3     -2.39      0.00
    7    9    3     -1.64      0.00
    8    9    3     -0.46      0.00
    9    9    3      0.58      0.00
   10    9    3     -2.04      0.00
   11    9    3      0.01      0.00
   12    9    3      2.20      0.00
   13    9    3     -0.10      0.00
    1    9    4      1.36      0.00
    2    9    4     -2.90      0.00
    3    9    4     -0.55      0.00
    4    9    4     -0.01      0.00
    5    9    4      2.77      0.00
    6    9    4      1.52      0.00
    7    9    4     -0.05      0.00
    8    9    4     -1.07      0.00
    9    9    4      1.30      0.00
   10    9    4      0.00      0.00
   11    9    4     -1.36      0.00
   12    9    4      0.21      0.00
   13    9    4      0.90      0.00
    0    9    5     -1.51      0.00
    1    9    5      2.07      0.00
    2    9    5      0.92      0.00
    3    9    5     -0.94      0.00
    4    9    5     -0.02      0.00
    5    9    5     -1.23      0.00
    6    9    5      0.17      0.00
    7    9    5      1.04      0.00
    8    9    5     -0.15      0.00
    9    9    5      0.29      0.00
   10    9    5      0.38      0.00
   11    9    5     -0.37      0.00
   12    9    5      0.09      0.00
    1    9    6     -1.40      0.00
    2    9    6      1.92      0.00
    3    9    6      0.29      0.00
    4    9    6     -0.06      0.00
    5    9    6      1.17      0.00
    6    9    6     -1.62      0.00
    7    9    6     -0.29      0.00
    8    9    6     -0.25      0.00
    9    9    6      0.40      0.00
   10    9    6      1.36      0.00
   11    9    6     -1.58      0.00
   12    9    6     -0.95      0.00
    0    9    7      1.53      0.00
    1    9    7     -2.04      0.00
    2    9    7     -1.18      0.00
    3    9    7      1.76      0.00
    4    9    7     -0.83      0.00
    5    9    7      1.26      0.00
    6    9    7      0.60      0.00
    7    9    7     -1.07      0.00
    8    9    7     -0.04      0.00
    9    9    7     -1.46      0.00
   10    9    7      2.22      0.00
   11    9    7      1.81      0.00
    1    9    8      1.06      0.00
    2    9    8     -2.66      0.00
    3    9    8      0.27      0.00
    4    9    8      0.08      0.00
    5    9    8     -0.90      0.00
    6    9    8      1.63      0.00
    7    9    8     -0.32      0.00
    8    9    8      0.42      0.00
    9    9    8     -1.20      0.00
   10    9    8     -1.29      0.00
   11    9    8      0.96      0.00
    0    9    9     -0.37      0.00
    1    9    9      1.70      0.00
    2    9    9     -0.55      0.00
    3    9    9     -0.59      0.00
    4    9    9      0.49      0.00
    5    9    9     -0.69      0.00
    6    9    9     -1.53      0.00
    7    9    9      0.03      0.00
    8    9    9     -0.21      0.00
    9    9    9      0.31      0.00
   10    9    9     -0.41      0.00
    1    9   10      0.74      0.00
    2    9   10      0.58      0.00
    3    9   10     -0.09      0.00
    4    9   10      0.10      0.00
    5    9   10      1.66      0.00
    6    9   10      0.29      0.00
    7    9   10     -1.64      0.00
    8    9   10     -0.23      0.00
    9    9   10     -0.57      0.00
    0    9   11     -0.92      0.00
    1    9   11     -0.20      0.00
    2    9   11      0.20      0.00
    3    9   11      0.11      0.00
    4    9   11      0.21      0.00
    5    9   11     -0.52      0.00
    6    9   11      2.89      0.00
    7    9   11      0.49      0.00
    8    9   11     -0.09      0.00
    1    9   12     -0.67      0.00
    2    9   12      0.06      0.00
    3    9   12     -0.92      0.00
    4    9   12      0.45      0.00
    5    9   12     -1.31      0.00
    6    9   12     -0.47      0.00
    7    9   12      1.06      0.00
    0    9   13      1.27      0.00
    1    9   13     -0.33      0.00
    2    9   13      0.45      0.00
    3    9   13     -0.13      0.00
    4    9   13     -0.20      0.00
    5    9   13      0.03      0.00
    1    9   14      0.51      0.00
    0   10    0     -2.56      0.00
    2   10    0      1.23      0.00
    4   10    0     -0.18      0.00
    6   10    0     -0.02      0.00
    8   10    0      2.13      0.00
   10   10    0     -0.30      0.00
   12   10    0     -1.29      0.00
    1   10    1     -1.84      0.00
    2   10    1     -2.13      0.00
    3   10    1      0.10      0.00
    4   10    1      0.49      0.00
    5   10    1     -0.06      0.00
    6   10    1      1.96      0.00
    7   10    1     -1.00      0.00
    8   10    1      0.79      0.00
    9   10    1      2.12      0.00
   10   10    1     -0.90      0.00
   11   10    1      1.54      0.00
   12   10    1      1.60      0.00
   13   10    1      1.01      0.00
    0   10    2      2.08      0.00
    1   10    2      1.94      0.00
    2   10    2     -0.26      0.00
    3   10    2     -2.54      0.00
    4   10    2     -0.25      0.00
    5   10    2     -1.53      0.00
    6   10    2      0.43      0.00
    7   10    2      2.36      0.00
    8   10    2     -0.92      0.00
    9   10    2      1.94      0.00
   10   10    2      0.09      0.00
   11   10    2     -2.25      0.00
   12   10    2      0.42      0.00
   13   10    2      0.86      0.00
    1   10    3      1.74      0.00
    2   10    3      1.88      0.00
    3   10    3      0.77      0.00
    4   10    3     -1.53      0.00
    5   10    3      0.23      0.00
    6   10    3     -3.93      0.00
    7   10    3     -0.78      0.00
    8   10    3     -0.35      0.00
    9   10    3      0.79      0.00
   10   10    3      1.82      0.00
   11   10    3     -0.77      0.00
   12   10    3     -1.72      0.00
   13   10    3     -0.23      0.00
    0   10    4     -2.68      0.00
    1   10    4     -0.19      0.00
    2   10    4     -0.04      0.00
    3   10    4      0.84      0.00
    4   10    4      0.21      0.00
    5   10    4      0.44      0.00
    6   10    4      1.60      0.00
    7   10    4     -2.04      0.00
    8   10    4     -1.95      0.00
    9   10    4     -1.15      0.00
   10   10    4      1.39      0.00
   11   10    4      1.09      0.00
   12   10    4     -0.56      0.00
    1   10    5     -0.97      0.00
    2   10    5      0.80      0.00
    3   10    5     -0.78      0.00
    4   10    5     -0.09      0.00
    5   10    5     -0.25      0.00
    6   10    5      0.65      0.00
    7   10    5      1.62      0.00
    8   10    5      0.19      0.00
    9   10    5     -1.21      0.00
   10   10    5      0.44      0.00
   11   10    5      0.80      0.00
   12   10    5      0.35      0.00
    0   10    6      1.30      0.00
    1   10    6     -0.45      0.00
    2   10    6      0.32      0.00
    3   10    6      1.79      0.00
    4   10    6     -1.78      0.00
    5   10    6     -0.03      0.00
    6   10    6      0.47      0.00
    7   10    6     -0.26      0.00
    8   10    6      0.69      0.00
    9   10    6     -1.27      0.00
   10   10    6     -0.36      0.00
   11   10    6      0.02      0.00
   12   10    6     -0.34      0.00
    1   10    7      1.81      0.00
    2   10    7     -1.57      0.00
    3   10    7      1.87      0.00
    4   10    7      1.10      0.00
    5   10    7     -2.85      0.00
    6   10    7      0.78      0.00
    7   10    7     -0.07      0.00
    8   10    7      1.03      0.00
    9   10    7      0.39      0.00
   10   10    7     -0.89      0.00
   11   10    7      0.47      0.00
    0   10    8     -4.08      0.00
    1   10    8      0.91      0.00
    2   10    8      0.09      0.00
    3   10    8     -1.11      0.00
    4   10    8      2.63      0.00
    5   10    8      0.00      0.00
    6   10    8     -1.08      0.00
    7   10    8      0.97      0.00
    8   10    8     -0.48      0.00
    9   10    8      1.33      0.00
   10   10    8     -0.18      0.00
   11   10    8     -0.07      0.00
    1   10    9     -2.26      0.00
    2   10    9      0.68      0.00
    3   10    9     -0.99      0.00
    4   10    9     -0.77      0.00
    5   10    9      0.91      0.00
    6   10    9     -0.82      0.00
    7   10    9      0.01      0.00
    8   10    9      0.81      0.00
    9   10    9      0.54      0.00
   10   10    9      0.64      0.00
    0   10   10      1.77      0.00
    1   10   10     -0.14      0.00
    2   10   10     -0.03      0.00
    3   10   10      0.40      0.00
    4   10   10      0.17      0.00
    5   10   10     -1.72      0.00
    6   10   10      0.18      0.00
    7   10   10     -1.95      0.00
    8   10   10     -0.64      0.00
    9   10   10      0.07      0.00
    1   10   11      0.25      0.00
    2   10   11      0.39      0.00
    3   10   11     -0.50      0.00
    4   10   11      1.97      0.00
    5   10   11      0.19      0.00
    6   10   11     -0.38      0.00
    7   10   11      0.09      0.00
    8   10   11     -0.97      0.00
    0   10   12      0.05      0.00
    1   10   12     -1.05      0.00
    2   10   12      0.23      0.00
    3   10   12     -0.25      0.00
    4   10   12     -0.45      0.00
    5   10   12      1.56      0.00
    6   10   12      0.46      0.00
    1   10   13      0.24      0.00
    2   10   13     -1.62      0.00
    3   10   13      0.25      0.00
    4   10   13     -0.77      0.00
    2   11    0      0.80      0.00
    4   11    0     -1.42      0.00
    6   11    0      2.26      0.00
    8   11    0     -1.78      0.00
   10   11    0     -1.07      0.00
   12   11    0     -1.84      0.00
    0   11    1     -1.78      0.00
    1   11    1     -0.49      0.00
    2   11    1      0.03      0.00
    3   11    1      1.11      0.00
    4   11    1      1.76      0.00
    5   11    1     -1.59      0.00
    6   11    1     -0.43      0.00
    7   11    1      2.10      0.00
    8   11    1     -0.43      0.00
    9   11    1      0.43      0.00
   10   11    1     -0.29      0.00
   11   11    1     -0.24      0.00
   12   11    1      0.08      0.00
   13   11    1     -0.81      0.00
    1   11    2     -1.82      0.00
    2   11    2     -1.02      0.00
    3   11    2     -1.18      0.00
    4   11    2      0.85      0.00
    5   11    2      3.05      0.00
    6   11    2     -1.09      0.00
    7   11    2      2.12      0.00
    8   11    2      0.14      0.00
    9   11    2      0.09      0.00
   10   11    2      1.21      0.00
   11   11    2      0.31      0.00
   12   11    2     -0.21      0.00
   13   11    2      1.26      0.00
    0   11    3      1.87      0.00
    1   11    3      1.09      0.00
    2   11    3     -0.55      0.00
    3   11    3     -0.49      0.00
    4   11    3     -2.21      0.00
    5   11    3     -0.15      0.00
    6   11    3      0.81      0.00
    7   11    3     -0.04      0.00
    8   11    3      2.70      0.00
    9   11    3     -0.75      0.00
   10   11    3     -0.10      0.00
   11   11    3      0.42      0.00
   12   11    3     -1.30      0.00
    1   11    4      0.21      0.00
    2   11    4      0.80      0.00
    3   11    4     -0.28      0.00
    4   11    4      0.88      0.00
    5   11    4     -1.94      0.00
    6   11    4     -0.37      0.00
    7   11    4     -1.82      0.00
    8   11    4      0.11      0.00
    9   11    4      0.26      0.00
   10   11    4     -0.30      0.00
   11   11    4     -0.02      0.00
   12   11    4     -0.30      0.00
    0   11    5      0.88      0.00
    1   11    5     -0.18      0.00
    2   11    5     -0.51      0.00
    3   11    5     -0.40      0.00
    4   11    5     -0.46      0.00
    5   11    5      0.74      0.00
    6   11    5     -0.15      0.00
    7   11    5      0.26      0.00
    8   11    5     -0.29      0.00
    9   11    5      0.28      0.00
   10   11    5      0.40      0.00
   11   11    5      0.42      0.00
   12   11    5      0.10      0.00
    1   11    6      1.33      0.00
    2   11    6     -0.05      0.00
    3   11    6      0.25      0.00
    4   11    6     -0.16      0.00
    5   11    6     -0.73      0.00
    6   11    6      0.36      0.00
    7   11    6     -0.01      0.00
    8   11    6      0.19      0.00
    9   11    6     -0.32      0.00
   10   11    6     -0.20      0.00
   11   11    6      1.15      0.00
    0   11    7     -1.09      0.00
    1   11    7      0.71      0.00
    2   11    7      0.38      0.00
    3   11    7     -0.58      0.00
    4   11    7      0.92      0.00
    5   11    7     -0.43      0.00
    6   11    7     -0.69      0.00
    7   11    7      0.47      0.00
    8   11    7     -0.42      0.00
    9   11    7      0.63      0.00
   10   11    7     -1.51      0.00
   11   11    7     -1.04      0.00
    1   11    8     -0.33      0.00
    2   11    8      1.14      0.00
    3   11    8     -0.84      0.00
    4   11    8      0.03      0.00
    5   11    8      1.23      0.00
    6   11    8     -0.88      0.00
    7   11    8      0.18      0.00
    8   11    8     -0.38      0.00
    9   11    8     -0.20      0.00
   10   11    8      0.97      0.00
    0   11    9      0.53      0.00
    1   11    9     -0.77      0.00
    2   11    9      0.72      0.00
    3   11    9     -0.37      0.00
    4   11    9     -0.91      0.00
    5   11    9     -0.02      0.00
    6   11    9      2.24      0.00
    7   11    9     -0.28      0.00
    8   11    9      1.36      0.00
    9   11    9     -0.22      0.00
   10   11    9     -0.29      0.00
    1   11   10      0.22      0.00
    2   11   10      0.80      0.00
    3   11   10      0.40      0.00
    4   11   10      0.17      0.00
    5   11   10     -2.78      0.00
    6   11   10     -0.02      0.00
    7   11   10      1.65      0.00
    8   11   10     -0.46      0.00
    9   11   10      1.30      0.00
    0   11   11     -0.20      0.00
    1   11   11     -0.54      0.00
    2   11   11      0.32      0.00
    3   11   11      0.63      0.00
    4   11   11      1.17      0.00
    5   11   11      0.48      0.00
    6   11   11     -3.67      0.00
    7   11   11      0.67      0.00
    1   11   12      0.29      0.00
    2   11   12     -0.75      0.00
    3   11   12      0.48      0.00
    4   11   12     -0.14      0.00
    5   11   12      2.15      0.00
    6   11   12     -0.58      0.00
    0   11   13     -1.69      0.00
    1   11   13      0.29      0.00
    2   11   13     -0.66      0.00
    3   11   13     -0.34      0.00
    4   11   13      0.15      0.00
    0   12    0      0.73      0.00
    2   12    0     -0.46      0.00
    4   12    0      0.71      0.00
    6   12    0     -1.68      0.00
    8   12    0     -1.36      0.00
   10   12    0      0.06      0.00
   12   12    0      1.49      0.00
    1   12    1      0.48      0.00
    2   12    1      1.12      0.00
    3   12    1     -0.48      0.00
    4   12    1     -0.12      0.00
    5   12    1      1.31      0.00
    6   12    1     -2.15      0.00
    7   12    1     -0.32      0.00
    8   12    1     -0.17      0.00
    9   12    1     -1.13      0.00
   10   12    1     -0.70      0.00
   11   12    1     -0.85      0.00
   12   12    1     -1.31      0.00
   13   12    1      0.43      0.00
    0   12    2     -0.46      0.00
    1   12    2     -1.35      0.00
    2   12    2      0.21      0.00
    3   12    2      1.53      0.00
    4   12    2     -0.72      0.00
    5   12    2      1.98      0.00
    6   12    2      1.22      0.00
    7   12    2     -2.22      0.00
    8   12    2      0.33      0.00
    9   12    2     -0.91      0.00
   10   12    2      0.04      0.00
   11   12    2      1.97      0.00
   12   12    2      0.05      0.00
    1   12    3     -0.29      0.00
    2   12    3     -1.27      0.00
    3   12    3      0.12      0.00
    4   12    3      1.21      0.00
    5   12    3     -1.19      0.00
    6   12    3      3.98      0.00
    7   12    3      0.82      0.00
    8   12    3      1.09      0.00
    9   12    3     -0.55      0.00
   10   12    3     -2.09      0.00
   11   12    3     -0.24      0.00
   12   12    3      3.39      0.00
    0   12    4      0.26      0.00
    1   12    4     -0.02      0.00
    2   12    4      0.04      0.00
    3   12    4     -0.51      0.00
    4   12    4      0.48      0.00
    5   12    4     -0.39      0.00
    6   12    4     -1.10      0.00
    7   12    4      1.29      0.00
    8   12    4      0.44      0.00
    9   12    4      1.79      0.00
   10   12    4     -0.85      0.00
   11   12    4     -2.55      0.00
   12   12    4     -0.79      0.00
    1   12    5      0.04      0.00
    2   12    5     -1.75      0.00
    3   12    5     -0.05      0.00
    4   12    5      0.10      0.00
    5   12    5      0.20      0.00
    6   12    5     -0.77      0.00
    7   12    5      0.27      0.00
    8   12    5     -0.91      0.00
    9   12    5      0.17      0.00
   10   12    5      0.56      0.00
   11   12    5     -0.36      0.00
   12   12    5     -0.93      0.00
    0   12    6     -0.37      0.00
    1   12    6      1.39      0.00
    2   12    6      0.28      0.00
    3   12    6     -2.32      0.00
    4   12    6      0.57      0.00
    5   12    6      0.97      0.00
    6   12    6     -1.39      0.00
    7   12    6      0.32      0.00
    8   12    6      0.95      0.00
    9   12    6     -0.40      0.00
   10   12    6      0.49      0.00
   11   12    6      0.81      0.00
    1   12    7     -0.96      0.00
    2   12    7      1.83      0.00
    3   12    7     -0.49      0.00
    4   12    7     -1.54      0.00
    5   12    7      1.97      0.00
    6   12    7      0.69      0.00
    7   12    7     -1.41      0.00
    8   12    7      0.50      0.00
    9   12    7      0.06      0.00
   10   12    7     -1.04      0.00
   11   12    7     -0.10      0.00
    0   12    8      1.56      0.00
    1   12    8     -0.87      0.00
    2   12    8      0.26      0.00
    3   12    8      0.13      0.00
    4   12    8     -1.05      0.00
    5   12    8     -1.30      0.00
    6   12    8      1.90      0.00
    7   12    8     -0.44      0.00
    8   12    8     -0.24      0.00
    9   12    8      0.22      0.00
   10   12    8     -0.51      0.00
    1   12    9      0.01      0.00
    2   12    9      0.03      0.00
    3   12    9      0.18      0.00
    4   12    9      0.51      0.00
    5   12    9     -1.20      0.00
    6   12    9     -0.88      0.00
    7   12    9      1.04      0.00
    8   12    9     -0.48      0.00
    9   12    9      0.26      0.00
    0   12   10      0.24      0.00
    1   12   10      0.28      0.00
    2   12   10     -0.21      0.00
    3   12   10     -0.29      0.00
    4   12   10     -0.40      0.00
    5   12   10      2.62      0.00
    6   12   10     -1.72      0.00
    7   12   10      0.34      0.00
    8   12   10      0.50      0.00
    1   12   11     -0.01      0.00
    2   12   11      0.13      0.00
    3   12   11      0.98      0.00
    4   12   11     -2.29      0.00
    5   12   11      1.08      0.00
    6   12   11      1.35      0.00
    7   12   11     -0.85      0.00
    0   12   12      0.66      0.00
    1   12   12      0.84      0.00
    2   12   12     -0.59      0.00
    3   12   12      0.39      0.00
    4   12   12     -0.02      0.00
    5   12   12     -1.21      0.00
    1   12   13      0.40      0.00
    2   12   13      1.56      0.00
    3   12   13     -0.18      0.00
    2   13    0      0.71      0.00
    4   13    0     -0.11      0.00
    6   13    0     -0.48      0.00
    8   13    0     -0.41      0.00
   10   13    0      0.97      0.00
   12   13    0     -0.03      0.00
    0   13    1      1.22      0.00
    1   13    1     -0.44      0.00
    2   13    1     -0.37      0.00
    3   13    1      0.17      0.00
    4   13    1     -0.56      0.00
    5   13    1      0.35      0.00
    6   13    1      0.09      0.00
    7   13    1     -0.70      0.00
    8   13    1     -0.75      0.00
    9   13    1     -0.59      0.00
   10   13    1      0.29      0.00
   11   13    1      0.05      0.00
   12   13    1      0.61      0.00
    1   13    2      1.62      0.00
    2   13    2     -0.22      0.00
    3   13    2     -0.35      0.00
    4   13    2     -0.71      0.00
    5   13    2     -1.83      0.00
    6   13    2      1.04      0.00
    7   13    2     -1.49      0.00
    8   13    2     -0.23      0.00
    9   13    2     -1.16      0.00
   10   13    2      0.98      0.00
   11   13    2     -1.03      0.00
   12   13    2     -0.04      0.00
    0   13    3     -2.01      0.00
    1   13    3     -0.08      0.00
    2   13    3      1.28      0.00
    3   13    3      0.29      0.00
    4   13    3      1.00      0.00
    5   13    3     -0.75      0.00
    6   13    3     -0.43      0.00
    7   13    3      0.61      0.00
    8   13    3     -1.31      0.00
    9   13    3     -0.36      0.00
   10   13    3      0.43      0.00
   11   13    3      0.99      0.00
   12   13    3      0.80      0.00
    1   13    4     -0.37      0.00
    2   13    4     -0.16      0.00
    3   13    4      1.20      0.00
    4   13    4     -0.27      0.00
    5   13    4      1.83      0.00
    6   13    4     -0.20      0.00
    7   13    4      1.22      0.00
    8   13    4     -0.11      0.00
    9   13    4     -0.08      0.00
   10   13    4     -0.07      0.00
   11   13    4      0.76      0.00
   12   13    4     -0.35      0.00
    0   13    5     -1.77      0.00
    1   13    5      0.22      0.00
    2   13    5      0.27      0.00
    3   13    5      0.35      0.00
    4   13    5      0.52      0.00
    5   13    5     -0.58      0.00
    6   13    5     -0.14      0.00
    7   13    5      0.02      0.00
    8   13    5      0.62      0.00
    9   13    5     -0.84      0.00
   10   13    5     -0.89      0.00
   11   13    5      0.02      0.00
    1   13    6     -2.43      0.00
    2   13    6      0.52      0.00
    3   13    6     -0.20      0.00
    4   13    6      0.15      0.00
    5   13    6      0.82      0.00
    6   13    6     -0.23      0.00
    7   13    6     -2.08      0.00
    8   13    6      0.49      0.00
    9   13    6      1.47      0.00
   10   13    6     -0.47      0.00
   11   13    6     -0.76      0.00
    0   13    7      2.61      0.00
    1   13    7     -0.86      0.00
    2   13    7     -0.69      0.00
    3   13    7      0.61      0.00
    4   13    7      0.37      0.00
    5   13    7     -0.54      0.00
    6   13    7      1.96      0.00
    7   13    7     -0.84      0.00
    8   13    7     -2.35      0.00
    9   13    7      0.78      0.00
   10   13    7      1.16      0.00
    1   13    8      0.68      0.00
    2   13    8     -0.37      0.00
    3   13    8     -0.40      0.00
    4   13    8      0.78      0.00
    5   13    8      0.86      0.00
    6   13    8      0.29      0.00
    7   13    8      1.28      0.00
    8   13    8     -1.53      0.00
    9   13    8     -0.69      0.00
   10   13    8     -0.19      0.00
    0   13    9     -0.60      0.00
    1   13    9     -0.26      0.00
    2   13    9     -0.77      0.00
    3   13    9      0.71      0.00
    4   13    9     -1.78      0.00
    5   13    9      1.16      0.00
    6   13    9     -0.14      0.00
    7   13    9      1.41      0.00
    8   13    9     -0.48      0.00
    9   13    9     -0.93      0.00
    1   13   10      0.29      0.00
    2   13   10     -1.59      0.00
    3   13   10      0.09      0.00
    4   13   10     -1.31      0.00
    5   13   10      0.18      0.00
    6   13   10      0.47      0.00
    7   13   10     -1.29      0.00
    8   13   10      1.12      0.00
    0   13   11     -0.39      0.00
    1   13   11      0.72      0.00
    2   13   11      0.58      0.00
    3   13   11      0.27      0.00
    4   13   11     -0.83      0.00
    5   13   11     -2.18      0.00
    6   13   11      3.11      0.00
    7   13   11     -0.17      0.00
    1   13   12     -0.98      0.00
    2   13   12      0.22      0.00
    3   13   12      0.83      0.00
    4   13   12      1.66      0.00
    5   13   12     -2.45      0.00
    0   13   13      1.42      0.00
    1   13   13     -0.05      0.00
    2   13   13     -0.46      0.00
    0   14    0     -1.17      0.00
    2   14    0      1.11      0.00
    4   14    0     -0.67      0.00
    6   14    0      0.41      0.00
    8   14    0      0.22      0.00
   10   14    0      0.48      0.00
   12   14    0     -1.56      0.00
    1   14    1     -0.55      0.00
    2   14    1     -0.44      0.00
    3   14    1      0.79      0.00
    4   14    1      0.53      0.00
    5   14    1     -0.33      0.00
    6   14    1      0.17      0.00
    7   14    1     -0.20      0.00
    8   14    1      1.47      0.00
    9   14    1     -0.74      0.00
   10   14    1      0.51      0.00
   11   14    1      0.06      0.00
   12   14    1      1.15      0.00
    0   14    2     -0.67      0.00
    1   14    2      0.81      0.00
    2   14    2      0.10      0.00
    3   14    2     -0.94      0.00
    4   14    2      0.04      0.00
    5   14    2     -0.59      0.00
    6   14    2      0.49      0.00
    7   14    2     -0.50      0.00
    8   14    2      0.57      0.00
    9   14    2      0.91      0.00
   10   14    2     -0.45      0.00
   11   14    2     -1.11      0.00
   12   14    2     -1.10      0.00
    1   14    3     -1.04      0.00
    2   14    3      0.47      0.00
    3   14    3      0.38      0.00
    4   14    3     -1.12      0.00
    5   14    3     -0.72      0.00
    6   14    3     -2.23      0.00
    7   14    3      0.23      0.00
    8   14    3     -1.36      0.00
    9   14    3      1.33      0.00
   10   14    3      0.51      0.00
   11   14    3      0.79      0.00
   12   14    3     -1.55      0.00
    0   14    4      0.34      0.00
    1   14    4      0.36      0.00
    2   14    4     -0.80      0.00
    3   14    4      0.03      0.00
    4   14    4      0.37      0.00
    5   14    4      0.37      0.00
    6   14    4      0.12      0.00
    7   14    4     -0.60      0.00
    8   14    4     -0.87      0.00
    9   14    4     -0.25      0.00
   10   14    4      1.12      0.00
   11   14    4      0.39      0.00
    1   14    5     -0.59      0.00
    2   14    5      2.28      0.00
    3   14    5     -0.49      0.00
    4   14    5     -0.30      0.00
    5   14    5     -0.59      0.00
    6   14    5      0.63      0.00
    7   14    5      1.23      0.00
    8   14    5      0.57      0.00
    9   14    5     -0.93      0.00
   10   14    5      0.24      0.00
   11   14    5      0.40      0.00
    0   14    6      2.32      0.00
    1   14    6     -2.07      0.00
    2   14    6     -0.26      0.00
    3   14    6      2.21      0.00
    4   14    6     -0.06      0.00
    5   14    6     -1.31      0.00
    6   14    6     -0.07      0.00
    7   14    6     -0.15      0.00
    8   14    6     -0.02      0.00
    9   14    6      1.11      0.00
   10   14    6     -0.58      0.00
   11   14    6     -0.68      0.00
    1   14    7      1.69      0.00
    2   14    7     -1.98      0.00
    3   14    7      0.29      0.00
    4   14    7      1.20      0.00
    5   14    7     -1.75      0.00
    6   14    7     -1.76      0.00
    7   14    7      2.48      0.00
    8   14    7     -0.55      0.00
    9   14    7     -0.75      0.00
   10   14    7      2.27      0.00
    0   14    8     -1.63      0.00
    1   14    8      1.31      0.00
    2   14    8      0.08      0.00
    3   14    8      0.96      0.00
    4   14    8      0.79      0.00
    5   14    8      1.36      0.00
    6   14    8     -4.17      0.00
    7   14    8     -1.40      0.00
    8   14    8      2.46      0.00
    9   14    8     -0.95      0.00
    1   14    9     -0.52      0.00
    2   14    9     -0.56      0.00
    3   14    9      0.96      0.00
    4   14    9      1.34      0.00
    5   14    9      1.73      0.00
    6   14    9      1.71      0.00
    7   14    9     -2.82      0.00
    8   14    9     -0.67      0.00
    9   14    9      0.16      0.00
    0   14   10      1.23      0.00
    1   14   10     -0.44      0.00
    2   14   10     -1.64      0.00
    3   14   10     -1.47      0.00
    4   14   10      1.64      0.00
    5   14   10     -1.02      0.00
    6   14   10      1.34      0.00
    7   14   10      0.97      0.00
    8   14   10     -0.22      0.00
    1   14   11      2.05      0.00
    2   14   11      0.13      0.00
    3   14   11     -2.67      0.00
    4   14   11      0.50      0.00
    5   14   11      0.12      0.00
    6   14   11     -1.55      0.00
    0   14   12     -1.80      0.00
    1   14   12     -0.18      0.00
    2   14   12      1.54      0.00
    3   14   12     -0.06      0.00
    4   14   12     -0.70      0.00
    2   15    0     -0.16      0.00
    4   15    0     -0.08      0.00
    6   15    0      0.01      0.00
    8   15    0      0.67      0.00
   10   15    0      0.45      0.00
   12   15    0      0.88      0.00
    0   15    1      0.36      0.00
    1   15    1      0.31      0.00
    2   15    1     -0.45      0.00
    3   15    1     -0.08      0.00
    4   15    1      0.07      0.00
    5   15    1     -0.28      0.00
    6   15    1      0.18      0.00
    7   15    1     -0.70      0.00
    8   15    1      1.58      0.00
    9   15    1     -0.27      0.00
   10   15    1     -0.75      0.00
   11   15    1     -0.10      0.00
   12   15    1     -0.23      0.00
    1   15    2     -0.12      0.00
    2   15    2      0.54      0.00
    3   15    2      0.43      0.00
    4   15    2      0.79      0.00
    5   15    2      0.46      0.00
    6   15    2      0.04      0.00
    7   15    2      0.54      0.00
    8   15    2     -1.14      0.00
    9   15    2      1.82      0.00
   10   15    2     -0.96      0.00
   11   15    2      0.52      0.00
   12   15    2     -0.46      0.00
    0   15    3      1.54      0.00
    1   15    3     -0.02      0.00
    2   15    3     -1.15      0.00
    3   15    3     -0.39      0.00
    4   15    3      0.38      0.00
    5   15    3      1.13      0.00
    6   15    3     -0.82      0.00
    7   15    3      1.06      0.00
    8   15    3      0.20      0.00
    9   15    3     -0.85      0.00
   10   15    3     -0.33      0.00
   11   15    3     -0.21      0.00
    1   15    4      0.95      0.00
    2   15    4      0.73      0.00
    3   15    4     -2.14      0.00
    4   15    4     -0.53      0.00
    5   15    4      0.43      0.00
    6   15    4     -0.13      0.00
    7   15    4     -1.27      0.00
    8   15    4      0.77      0.00
    9   15    4      0.12      0.00
   10   15    4     -0.72      0.00
   11   15    4     -1.15      0.00
    0   15    5      1.11      0.00
    1   15    5     -1.52      0.00
    2   15    5      0.71      0.00
    3   15    5      0.02      0.00
    4   15    5     -1.71      0.00
    5   15    5      0.70      0.00
    6   15    5      0.81      0.00
    7   15    5      0.23      0.00
    8   15    5      0.06      0.00
    9   15    5      0.26      0.00
   10   15    5      0.38      0.00
   11   15    5      0.45      0.00
    1   15    6      1.85      0.00
    2   15    6     -1.34      0.00
    3   15    6      0.85      0.00
    4   15    6     -0.73      0.00
    5   15    6     -0.39      0.00
    6   15    6      0.16      0.00
    7   15    6      0.15      0.00
    8   15    6      0.44      0.00
    9   15    6     -0.37      0.00
   10   15    6     -0.13      0.00
    0   15    7     -2.46      0.00
    1   15    7      1.25      0.00
    2   15    7     -0.15      0.00
    3   15    7     -0.12      0.00
    4   15    7     -0.86      0.00
    5   15    7      1.00      0.00
    6   15    7      0.63      0.00
    7   15    7      0.24      0.00
    8   15    7      1.09      0.00
    9   15    7     -1.29      0.00
   10   15    7     -0.12      0.00
    1   15    8     -0.06      0.00
    2   15    8     -0.11      0.00
    3   15    8     -0.19      0.00
    4   15    8     -1.39      0.00
    5   15    8     -2.29      0.00
    6   15    8      1.11      0.00
    7   15    8      0.07      0.00
    8   15    8      2.25      0.00
    9   15    8      1.31      0.00
    0   15    9      0.53      0.00
    1   15    9      0.38      0.00
    2   15    9      1.60      0.00
    3   15    9     -0.32      0.00
    4   15    9      1.57      0.00
    5   15    9     -2.20      0.00
    6   15    9     -1.45      0.00
    7   15    9     -0.81      0.00
    8   15    9     -0.61      0.00
    1   15   10      0.21      0.00
    2   15   10      0.65      0.00
    3   15   10      0.24      0.00
    4   15   10      1.51      0.00
    5   15   10      1.16      0.00
    6   15   10     -0.85      0.00
    7   15   10      0.30      0.00
    0   15   11     -1.76      0.00
    1   15   11      0.17      0.00
    2   15   11      0.26      0.00
    3   15   11     -1.02      0.00
    4   15   11     -0.30      0.00
    5   15   11      1.58      0.00
    6   15   11     -0.77      0.00
    1   15   12     -1.10      0.00
    2   15   12      0.63      0.00
    3   15   12      0.11      0.00
    0   16    0      1.17      0.00
    2   16    0     -0.01      0.00
    4   16    0     -0.74      0.00
    6   16    0      0.22      0.00
    8   16    0      0.96      0.00
   10   16    0      0.67      0.00
    1   16    1      0.64      0.00
    2   16    1     -0.71      0.00
    3   16    1      0.37      0.00
    4   16    1     -0.36      0.00
    5   16    1     -0.34      0.00
    6   16    1      1.04      0.00
    7   16    1     -0.42      0.00
    8   16    1     -0.84      0.00
    9   16    1      1.13      0.00
   10   16    1     -0.58      0.00
   11   16    1      0.40      0.00
    0   16    2     -0.33      0.00
    1   16    2      0.15      0.00
    2   16    2      0.18      0.00
    3   16    2      0.02      0.00
    4   16    2     -0.01      0.00
    5   16    2     -0.81      0.00
    6   16    2     -0.64      0.00
    7   16    2      1.38      0.00
    8   16    2     -1.59      0.00
    9   16    2      0.50      0.00
   10   16    2      0.73      0.00
   11   16    2      0.25      0.00
    1   16    3     -0.11      0.00
    2   16    3      0.31      0.00
    3   16    3      0.27      0.00
    4   16    3      1.03      0.00
    5   16    3      1.01      0.00
    6   16    3     -0.12      0.00
    7   16    3     -0.35      0.00
    8   16    3      0.32      0.00
    9   16    3     -1.18      0.00
   10   16    3      0.32      0.00
   11   16    3      0.56      0.00
    0   16    4      1.26      0.00
    1   16    4     -0.69      0.00
    2   16    4      0.41      0.00
    3   16    4      0.61      0.00
    4   16    4     -0.45      0.00
    5   16    4      0.32      0.00
    6   16    4      0.82      0.00
    7   16    4     -0.51      0.00
    8   16    4     -0.19      0.00
    9   16    4     -0.13      0.00
   10   16    4     -0.70      0.00
   11   16    4      0.17      0.00
    1   16    5      1.36      0.00
    2   16    5     -2.59      0.00
    3   16    5      1.04      0.00
    4   16    5      0.59      0.00
    5   16    5     -0.11      0.00
    6   16    5      0.92      0.00
    7   16    5     -0.70      0.00
    8   16    5     -0.44      0.00
    9   16    5     -0.42      0.00
   10   16    5      0.18      0.00
    0   16    6     -3.25      0.00
    1   16    6      2.28      0.00
    2   16    6     -0.53      0.00
    3   16    6     -1.89      0.00
    4   16    6      0.27      0.00
    5   16    6     -0.29      0.00
    6   16    6      0.63      0.00
    7   16    6      0.45      0.00
    8   16    6      0.31      0.00
    9   16    6     -0.44      0.00
   10   16    6      0.22      0.00
    1   16    7     -0.85      0.00
    2   16    7      1.52      0.00
    3   16    7     -0.47      0.00
    4   16    7      0.18      0.00
    5   16    7      0.51      0.00
    6   16    7      0.43      0.00
    7   16    7     -1.79      0.00
    8   16    7     -0.94      0.00
    9   16    7      0.41      0.00
    0   16    8     -0.38      0.00
    1   16    8     -0.89      0.00
    2   16    8      0.98      0.00
    3   16    8     -1.63      0.00
    4   16    8      0.12      0.00
    5   16    8     -0.08      0.00
    6   16    8      3.07      0.00
    7   16    8      2.40      0.00
    8   16    8     -2.40      0.00
    9   16    8      0.07      0.00
    1   16    9     -1.28      0.00
    2   16    9      1.27      0.00
    3   16    9     -0.25      0.00
    4   16    9     -1.78      0.00
    5   16    9     -1.07      0.00
    6   16    9     -1.74      0.00
    7   16    9      2.71      0.00
    8   16    9      1.84      0.00
    1   16   10      0.08      0.00
    2   16   10      0.54      0.00
    3   16   10      1.89      0.00
    4   16   10     -0.61      0.00
    5   16   10      0.23      0.00
    6   16   10     -0.69      0.00
    7   16   10     -2.00      0.00
    1   16   11     -2.60      0.00
    2   16   11      0.07      0.00
    3   16   11      1.40      0.00
    4   16   11      0.21      0.00
    5   16   11     -0.21      0.00
    0   16   12      3.46      0.00
    1   16   12     -0.74      0.00
    2   16   12     -2.01      0.00
    2   17    0     -0.08      0.00
    4   17    0      0.07      0.00
    6   17    0     -0.69      0.00
    8   17    0      0.15      0.00
   10   17    0     -0.73      0.00
    0   17    1     -0.84      0.00
    1   17    1     -0.11      0.00
    2   17    1     -0.13      0.00
    3   17    1      0.15      0.00
    4   17    1      1.26      0.00
    5   17    1      0.45      0.00
    6   17    1     -0.42      0.00
    7   17    1      0.70      0.00
    8   17    1     -1.22      0.00
    9   17    1      0.57      0.00
   10   17    1     -0.18      0.00
   11   17    1      0.51      0.00
    1   17    2     -0.49      0.00
    2   17    2     -0.24      0.00
    3   17    2     -1.23      0.00
    4   17    2     -0.11      0.00
    5   17    2      0.51      0.00
    6   17    2     -0.69      0.00
    7   17    2      1.10      0.00
    8   17    2      1.43      0.00
    9   17    2     -0.94      0.00
   10   17    2     -0.53      0.00
   11   17    2     -0.38      0.00
    0   17    3      0.12      0.00
    1   17    3     -0.40      0.00
    2   17    3      0.43      0.00
    3   17    3      0.00      0.00
    4   17    3     -0.43      0.00
    5   17    3     -0.37      0.00
    6   17    3     -0.46      0.00
    7   17    3     -1.42      0.00
    8   17    3      1.15      0.00
    9   17    3      1.49      0.00
   10   17    3     -0.10      0.00
   11   17    3     -0.96      0.00
    1   17    4      0.23      0.00
    2   17    4     -1.08      0.00
    3   17    4      0.86      0.00
    4   17    4      0.49      0.00
    5   17    4     -0.42      0.00
    6   17    4      0.18      0.00
    7   17    4     -0.16      0.00
    8   17    4      0.03      0.00
    9   17    4     -0.32      0.00
   10   17    4      1.19      0.00
    0   17    5     -1.38      0.00
    1   17    5      2.46      0.00
    2   17    5     -0.25      0.00
    3   17    5     -0.49      0.00
    4   17    5      1.47      0.00
    5   17    5     -0.52      0.00
    6   17    5     -0.87      0.00
    7   17    5     -1.23      0.00
    8   17    5      0.52      0.00
    9   17    5      0.39      0.00
   10   17    5     -0.41      0.00
    1   17    6     -1.15      0.00
    2   17    6      2.08      0.00
    3   17    6     -1.03      0.00
    4   17    6      1.00      0.00
    5   17    6      0.98      0.00
    6   17    6     -0.40      0.00
    7   17    6      0.27      0.00
    8   17    6     -1.23      0.00
    9   17    6      1.35      0.00
   10   17    6      0.13      0.00
    0   17    7      1.70      0.00
    1   17    7     -1.54      0.00
    2   17    7      0.54      0.00
    3   17    7     -0.71      0.00
    4   17    7      0.13      0.00
    5   17    7      0.67      0.00
    6   17    7     -1.25      0.00
    7   17    7     -0.28      0.00
    8   17    7     -0.81      0.00
    9   17    7      1.36      0.00
    1   17    8     -0.15      0.00
    2   17    8      0.97      0.00
    3   17    8     -0.10      0.00
    4   17    8     -0.48      0.00
    5   17    8      1.77      0.00
    6   17    8     -0.15      0.00
    7   17    8     -0.73      0.00
    8   17    8     -2.39      0.00
    0   17    9      0.20      0.00
    1   17    9     -0.95      0.00
    2   17    9     -0.89      0.00
    3   17    9      1.38      0.00
    4   17    9     -1.49      0.00
    5   17    9      1.01      0.00
    6   17    9      1.55      0.00
    7   17    9      0.72      0.00
    1   17   10      0.28      0.00
    2   17   10     -1.24      0.00
    3   17   10      0.38      0.00
    4   17   10     -0.47      0.00
    5   17   10     -1.40      0.00
    6   17   10      0.90      0.00
    0   17   11      1.40      0.00
    1   17   11      0.40      0.00
    2   17   11     -0.35      0.00
    3   17   11      0.11      0.00
    4   17   11      0.69      0.00
    0   18    0     -0.35      0.00
    2   18    0      0.23      0.00
    4   18    0     -0.37      0.00
    6   18    0     -0.28      0.00
    8   18    0     -0.40      0.00
   10   18    0     -0.78      0.00
    1   18    1     -0.26      0.00
    2   18    1      1.39      0.00
    3   18    1     -0.41      0.00
    4   18    1     -1.17      0.00
    5   18    1     -0.02      0.00
    6   18    1      0.28      0.00
    7   18    1     -0.37      0.00
    8   18    1     -0.81      0.00
    9   18    1     -0.03      0.00
   10   18    1      0.59      0.00
   11   18    1     -0.21      0.00
    0   18    2      0.25      0.00
    1   18    2     -0.87      0.00
    2   18    2      0.53      0.00
    3   18    2      1.15      0.00
    4   18    2     -0.58      0.00
    5   18    2     -0.40      0.00
    6   18    2      1.05      0.00
    7   18    2     -0.04      0.00
    8   18    2      0.27      0.00
    9   18    2     -0.71      0.00
   10   18    2      0.14      0.00
   11   18    2     -0.17      0.00
    1   18    3      0.37      0.00
    2   18    3     -0.52      0.00
    3   18    3      0.34      0.00
    4   18    3     -0.24      0.00
    5   18    3     -0.91      0.00
    6   18    3      0.85      0.00
    7   18    3      0.16      0.00
    8   18    3     -0.56      0.00
    9   18    3      0.18      0.00
   10   18    3      1.46      0.00
    0   18    4     -2.57      0.00
    1   18    4      0.41      0.00
    2   18    4      0.26      0.00
    3   18    4     -0.02      0.00
    4   18    4     -0.20      0.00
    5   18    4     -0.51      0.00
    6   18    4      0.20      0.00
    7   18    4      1.50      0.00
    8   18    4     -0.27      0.00
    9   18    4     -2.24      0.00
   10   18    4      0.68      0.00
    1   18    5     -2.49      0.00
    2   18    5      0.88      0.00
    3   18    5      0.04      0.00
    4   18    5     -0.81      0.00
    5   18    5     -0.49      0.00
    6   18    5     -0.77      0.00
    7   18    5      1.61      0.00
    8   18    5      0.89      0.00
    9   18    5     -0.01      0.00
   10   18    5     -1.84      0.00
    0   18    6      3.43      0.00
    1   18    6     -1.18      0.00
    2   18    6      0.55      0.00
    3   18    6      1.04      0.00
    4   18    6     -0.26      0.00
    5   18    6     -0.66      0.00
    6   18    6     -1.63      0.00
    7   18    6      0.80      0.00
    8   18    6      0.30      0.00
    9   18    6     -0.26      0.00
    1   18    7     -0.50      0.00
    2   18    7     -0.82      0.00
    3   18    7      1.56      0.00
    4   18    7      0.56      0.00
    5   18    7      0.15      0.00
    6   18    7     -0.96      0.00
    7   18    7     -0.14      0.00
    8   18    7      2.40      0.00
    0   18    8      2.22      0.00
    1   18    8      0.80      0.00
    2   18    8     -2.46      0.00
    3   18    8      0.45      0.00
    4   18    8      0.40      0.00
    5   18    8      0.16      0.00
    6   18    8     -0.88      0.00
    7   18    8     -2.03      0.00
    8   18    8      1.35      0.00
    1   18    9      2.53      0.00
    2   18    9     -0.30      0.00
    3   18    9     -0.51      0.00
    4   18    9      0.52      0.00
    5   18    9      0.51      0.00
    6   18    9      0.34      0.00
    7   18    9     -1.93      0.00
    0   18   10     -1.15      0.00
    1   18   10     -0.35      0.00
    2   18   10      0.08      0.00
    3   18   10     -0.49      0.00
    4   18   10      0.42      0.00
    5   18   10      0.31      0.00
    1   18   11      0.79      0.00
    2   18   11     -0.60      0.00
    3   18   11     -1.24      0.00
    2   19    0     -2.17      0.00
    4   19    0      1.96      0.00
    6   19    0     -0.02      0.00
    8   19    0      0.78      0.00
   10   19    0      0.24      0.00
    0   19    1      0.31      0.00
    1   19    1      1.24      0.00
    2   19    1      0.02      0.00
    3   19    1     -1.76      0.00
    4   19    1     -0.64      0.00
    5   19    1      0.07      0.00
    6   19    1      1.28      0.00
    7   19    1     -0.38      0.00
    8   19    1     -0.65      0.00
    9   19    1     -0.14      0.00
   10   19    1      0.68      0.00
    1   19    2      0.06      0.00
    2   19    2      0.49      0.00
    3   19    2      0.42      0.00
    4   19    2     -0.07      0.00
    5   19    2     -1.51      0.00
    6   19    2     -1.05      0.00
    7   19    2      1.06      0.00
    8   19    2      0.25      0.00
    9   19    2     -1.14      0.00
   10   19    2      0.30      0.00
    0   19    3     -0.40      0.00
    1   19    3      0.58      0.00
    2   19    3     -0.39      0.00
    3   19    3     -0.30      0.00
    4   19    3      0.45      0.00
    5   19    3      1.52      0.00
    6   19    3     -1.42      0.00
    7   19    3     -0.80      0.00
    8   19    3      1.45      0.00
    9   19    3     -0.30      0.00
   10   19    3      0.24      0.00
    1   19    4     -0.49      0.00
    2   19    4      1.04      0.00
    3   19    4      0.63      0.00
    4   19    4     -1.30      0.00
    5   19    4      1.06      0.00
    6   19    4      0.38      0.00
    7   19    4     -1.80      0.00
    8   19    4      0.17      0.00
    9   19    4      1.34      0.00
   10   19    4     -0.85      0.00
    0   19    5      1.32      0.00
    1   19    5     -1.90      0.00
    2   19    5     -1.19      0.00
    3   19    5      0.69      0.00
    4   19    5      0.89      0.00
    5   19    5      0.29      0.00
    6   19    5      1.95      0.00
    7   19    5     -0.62      0.00
    8   19    5     -2.23      0.00
    9   19    5      1.44      0.00
    1   19    6      1.07      0.00
    2   19    6     -0.93      0.00
    3   19    6     -1.92      0.00
    4   19    6     -1.05      0.00
    5   19    6     -0.53      0.00
    6   19    6      1.78      0.00
    7   19    6      1.49      0.00
    8   19    6     -0.63      0.00
    9   19    6     -1.58      0.00
    0   19    7     -0.87      0.00
    1   19    7      0.32      0.00
    2   19    7      0.31      0.00
    3   19    7      2.07      0.00
    4   19    7     -0.82      0.00
    5   19    7     -2.15      0.00
    6   19    7     -0.28      0.00
    7   19    7      0.25      0.00
    8   19    7      1.24      0.00
    1   19    8      0.20      0.00
    2   19    8     -2.48      0.00
    3   19    8     -0.10      0.00
    4   19    8      2.20      0.00
    5   19    8      0.13      0.00
    6   19    8     -0.16      0.00
    7   19    8     -0.03      0.00
    0   19    9      0.51      0.00
    1   19    9      1.71      0.00
    2   19    9      0.59      0.00
    3   19    9     -2.10      0.00
    4   19    9     -0.45      0.00
    5   19    9     -0.13      0.00
    6   19    9      0.04      0.00
    1   19   10      0.94      0.00
    2   19   10      1.50      0.00
    3   19   10      0.05      0.00
    4   19   10      0.22      0.00
    0   19   11     -2.19      0.00
    1   19   11     -0.79      0.00
    0   20    0     -0.90      0.00
    2   20    0     -1.17      0.00
    4   20    0      2.38      0.00
    6   20    0     -1.55      0.00
    8   20    0      1.59      0.00
   10   20    0     -1.08      0.00
    1   20    1     -0.42      0.00
    2   20    1     -0.01      0.00
    3   20    1     -0.90      0.00
    4   20    1      0.79      0.00
    5   20    1      2.09      0.00
    6   20    1      0.28      0.00
    7   20    1     -0.44      0.00
    8   20    1     -0.12      0.00
    9   20    1      0.63      0.00
   10   20    1      0.11      0.00
    0   20    2      1.57      0.00
    1   20    2      0.40      0.00
    2   20    2     -0.99      0.00
    3   20    2     -0.16      0.00
    4   20    2     -0.59      0.00
    5   20    2      0.28      0.00
    6   20    2      0.04      0.00
    7   20    2      0.46      0.00
    8   20    2      0.81      0.00
    9   20    2     -0.63      0.00
   10   20    2     -0.56      0.00
    1   20    3      1.76      0.00
    2   20    3      0.13      0.00
    3   20    3     -0.96      0.00
    4   20    3     -0.39      0.00
    5   20    3      0.43      0.00
    6   20    3     -0.41      0.00
    7   20    3     -1.09      0.00
    8   20    3      0.28      0.00
    9   20    3      0.90      0.00
    0   20    4     -0.04      0.00
    1   20    4     -0.48      0.00
    2   20    4      1.20      0.00
    3   20    4      0.11      0.00
    4   20    4     -0.57      0.00
    5   20    4     -1.20      0.00
    6   20    4      1.23      0.00
    7   20    4      0.15      0.00
    8   20    4     -0.52      0.00
    9   20    4      1.82      0.00
    1   20    5      1.04      0.00
    2   20    5      0.34      0.00
    3   20    5     -0.11      0.00
    4   20    5      2.75      0.00
    5   20    5     -1.35      0.00
    6   20    5     -1.44      0.00
    7   20    5      0.06      0.00
    8   20    5     -0.97      0.00
    9   20    5      1.11      0.00
    0   20    6     -2.40      0.00
    1   20    6     -0.22      0.00
    2   20    6      0.50      0.00
    3   20    6     -1.08      0.00
    4   20    6     -0.07      0.00
    5   20    6      3.46      0.00
    6   20    6      0.33      0.00
    7   20    6      0.06      0.00
    8   20    6     -0.80      0.00
    1   20    7      0.17      0.00
    2   20    7     -0.28      0.00
    3   20    7      0.51      0.00
    4   20    7     -2.25      0.00
    5   20    7     -0.98      0.00
    6   20    7      0.76      0.00
    7   20    7      1.45      0.00
    0   20    8     -2.65      0.00
    1   20    8     -0.31      0.00
    2   20    8      1.21      0.00
    3   20    8     -0.09      0.00
    4   20    8      0.95      0.00
    5   20    8     -0.27      0.00
    6   20    8     -1.43      0.00
    1   20    9     -2.81      0.00
    2   20    9      0.07      0.00
    3   20    9      0.28      0.00
    4   20    9     -0.37      0.00
    5   20    9      0.35      0.00
    0   20   10      1.79      0.00
    1   20   10      0.36      0.00
    2   20   10     -0.55      0.00
    3   20   10      0.03      0.00
    2   21    0      2.29      0.00
    4   21    0     -0.37      0.00
    6   21    0     -0.98      0.00
    8   21    0     -1.36      0.00
    0   21    1     -1.13      0.00
    1   21    1     -2.03      0.00
    2   21    1      1.26      0.00
    3   21    1      1.36      0.00
    4   21    1     -0.65      0.00
    5   21    1      0.69      0.00
    6   21    1     -0.84      0.00
    7   21    1     -0.03      0.00
    8   21    1     -0.10      0.00
    9   21    1     -0.94      0.00
    1   21    2     -1.54      0.00
    2   21    2     -1.66      0.00
    3   21    2      1.74      0.00
    4   21    2      0.93      0.00
    5   21    2      0.85      0.00
    6   21    2      1.12      0.00
    7   21    2     -0.37      0.00
    8   21    2      0.38      0.00
    9   21    2      0.25      0.00
    0   21    3      1.77      0.00
    1   21    3      0.24      0.00
    2   21    3     -0.43      0.00
    3   21    3     -1.47      0.00
    4   21    3      0.44      0.00
    5   21    3     -0.01      0.00
    6   21    3      0.66      0.00
    7   21    3      0.36      0.00
    8   21    3     -1.52      0.00
    9   21    3      1.01      0.00
    1   21    4     -0.56      0.00
    2   21    4      0.05      0.00
    3   21    4     -0.55      0.00
    4   21    4     -0.06      0.00
    5   21    4     -1.01      0.00
    6   21    4      0.39      0.00
    7   21    4      1.70      0.00
    8   21    4     -0.78      0.00
    0   21    5      2.08      0.00
    1   21    5      1.28      0.00
    2   21    5     -0.79      0.00
    3   21    5     -0.70      0.00
    4   21    5     -0.31      0.00
    5   21    5      0.23      0.00
    6   21    5     -3.21      0.00
    7   21    5      0.88      0.00
    8   21    5      3.12      0.00
    1   21    6      2.19      0.00
    2   21    6      0.90      0.00
    3   21    6      1.37      0.00
    4   21    6     -1.27      0.00
    5   21    6      2.88      0.00
    6   21    6     -0.64      0.00
    7   21    6     -4.16      0.00
    0   21    7     -1.21      0.00
    1   21    7      0.09      0.00
    2   21    7     -0.04      0.00
    3   21    7      0.09      0.00
    4   21    7     -0.13      0.00
    5   21    7     -0.15      0.00
    6   21    7      3.52      0.00
    7   21    7     -0.06      0.00
    1   21    8      0.29      0.00
    2   21    8      1.59      0.00
    3   21    8     -0.40      0.00
    4   21    8     -0.08      0.00
    5   21    8     -1.20      0.00
    0   21    9     -1.10      0.00
    1   21    9     -1.55      0.00
    2   21    9      0.18      0.00
    3   21    9      0.87      0.00
    4   21    9      0.09      0.00
    1   21   10     -0.35      0.00
    0   22    0      2.78      0.00
    2   22    0      0.40      0.00
    4   22    0     -0.35      0.00
    6   22    0     -0.22      0.00
    8   22    0      0.16      0.00
    1   22    1      1.36      0.00
    2   22    1      0.22      0.00
    3   22    1      0.29      0.00
    4   22    1     -2.21      0.00
    5   22    1     -0.51      0.00
    6   22    1     -0.07      0.00
    7   22    1     -0.77      0.00
    8   22    1      0.48      0.00
    9   22    1      0.00      0.00
    0   22    2     -1.21      0.00
    1   22    2     -0.71      0.00
    2   22    2      0.45      0.00
    3   22    2      1.26      0.00
    4   22    2      0.37      0.00
    5   22    2     -1.15      0.00
    6   22    2     -0.28      0.00
    7   22    2     -0.85      0.00
    8   22    2     -1.11      0.00
    1   22    3      0.18      0.00
    2   22    3     -0.27      0.00
    3   22    3      0.12      0.00
    4   22    3      0.49      0.00
    5   22    3      0.70      0.00
    6   22    3      1.65      0.00
    7   22    3      0.23      0.00
    8   22    3     -0.40      0.00
    0   22    4     -2.30      0.00
    1   22    4      0.28      0.00
    2   22    4      0.16      0.00
    3   22    4      1.41      0.00
    4   22    4     -0.29      0.00
    5   22    4     -1.69      0.00
    6   22    4      0.22      0.00
    7   22    4      0.91      0.00
    8   22    4     -0.26      0.00
    1   22    5     -1.42      0.00
    2   22    5     -2.42      0.00
    3   22    5      0.26      0.00
    4   22    5      0.48      0.00
    5   22    5      0.86      0.00
    6   22    5     -1.51      0.00
    7   22    5      0.23      0.00
    0   22    6      0.57      0.00
    1   22    6      1.72      0.00
    2   22    6      0.12      0.00
    3   22    6     -1.21      0.00
    4   22    6     -0.57      0.00
    5   22    6     -0.96      0.00
    6   22    6      1.13      0.00
    7   22    6     -1.46      0.00
    1   22    7     -1.22      0.00
    2   22    7      1.28      0.00
    3   22    7     -0.32      0.00
    4   22    7      1.60      0.00
    5   22    7     -1.35      0.00
    6   22    7      0.31      0.00
    0   22    8      1.85      0.00
    1   22    8      0.41      0.00
    2   22    8      0.26      0.00
    3   22    8     -0.84      0.00
    4   22    8     -0.15      0.00
    1   22    9     -0.11      0.00
    2   22    9      1.27      0.00
    2   23    0     -1.43      0.00
    4   23    0     -0.08      0.00
    6   23    0     -0.73      0.00
    8   23    0      1.62      0.00
    0   23    1      0.05      0.00
    1   23    1      1.49      0.00
    2   23    1     -0.48      0.00
    3   23    1      0.02      0.00
    4   23    1     -0.18      0.00
    5   23    1      0.16      0.00
    6   23    1      1.86      0.00
    7   23    1     -0.39      0.00
    8   23    1      0.10      0.00
    1   23    2     -0.14      0.00
    2   23    2      0.16      0.00
    3   23    2     -0.48      0.00
    4   23    2      0.26      0.00
    5   23    2     -2.92      0.00
    6   23    2     -0.95      0.00
    7   23    2      0.85      0.00
    8   23    2      0.00      0.00
    0   23    3     -0.81      0.00
    1   23    3      0.99      0.00
    2   23    3     -1.11      0.00
    3   23    3     -0.48      0.00
    4   23    3      1.73      0.00
    5   23    3      0.69      0.00
    6   23    3     -1.26      0.00
    7   23    3     -1.11      0.00
    8   23    3      0.75      0.00
    1   23    4      0.35      0.00
    2   23    4      1.61      0.00
    3   23    4     -0.93      0.00
    4   23    4     -0.50      0.00
    5   23    4      1.61      0.00
    6   23    4      0.24      0.00
    7   23    4      0.88      0.00
    0   23    5     -0.49      0.00
    1   23    5     -1.64      0.00
    2   23    5      0.64      0.00
    3   23    5      0.61      0.00
    4   23    5     -0.40      0.00
    5   23    5      0.12      0.00
    6   23    5     -0.01      0.00
    7   23    5     -0.45      0.00
    1   23    6     -1.84      0.00
    2   23    6     -0.02      0.00
    3   23    6     -0.58      0.00
    4   23    6      0.34      0.00
    5   23    6     -1.48      0.00
    6   23    6      0.81      0.00
    0   23    7      2.81      0.00
    1   23    7     -1.08      0.00
    2   23    7     -1.32      0.00
    3   23    7      0.69      0.00
    4   23    7      1.25      0.00
    5   23    7      0.18      0.00
    1   23    8      1.60      0.00
    2   23    8     -1.86      0.00
    3   23    8     -1.67      0.00
    0   24    0     -1.31      0.00
    2   24    0     -1.29      0.00
    4   24    0     -0.46      0.00
    6   24    0      0.36      0.00
    1   24    1      0.17      0.00
    2   24    1      0.32      0.00
    3   24    1     -1.15      0.00
    4   24    1      1.22      0.00
    5   24    1     -0.19      0.00
    6   24    1      1.47      0.00
    7   24    1      0.11      0.00
    0   24    2     -0.53      0.00
    1   24    2      0.53      0.00
    2   24    2      1.06      0.00
    3   24    2     -0.33      0.00
    4   24    2     -0.72      0.00
    5   24    2     -0.39      0.00
    6   24    2      0.88      0.00
    7   24    2      2.19      0.00
    1   24    3     -0.47      0.00
    2   24    3      0.42      0.00
    3   24    3     -0.04      0.00
    4   24    3      0.01      0.00
    5   24    3     -0.55      0.00
    6   24    3     -3.03      0.00
    7   24    3     -0.11      0.00
    0   24    4      0.83      0.00
    1   24    4     -1.29      0.00
    2   24    4      1.61      0.00
    3   24    4     -0.44      0.00
    4   24    4     -1.13      0.00
    5   24    4      2.75      0.00
    6   24    4      0.38      0.00
    1   24    5     -0.45      0.00
    2   24    5      0.42      0.00
    3   24    5      2.24      0.00
    4   24    5     -1.14      0.00
    5   24    5     -1.66      0.00
    6   24    5      2.69      0.00
    0   24    6     -0.33      0.00
    1   24    6     -0.81      0.00
    2   24    6     -1.12      0.00
    3   24    6      1.07      0.00
    4   24    6      1.24      0.00
    5   24    6     -1.37      0.00
    1   24    7      0.36      0.00
    2   24    7     -1.54      0.00
    3   24    7      0.45      0.00
    0   24    8     -1.00      0.00
    2   25    0      0.66      0.00
    4   25    0      2.81      0.00
    6   25    0     -0.38      0.00
    0   25    1      0.21      0.00
    1   25    1     -1.04      0.00
    2   25    1     -0.25      0.00
    3   25    1     -1.36      0.00
    4   25    1      0.63      0.00
    5   25    1      1.27      0.00
    6   25    1     -2.20      0.00
    1   25    2     -0.43      0.00
    2   25    2     -0.33      0.00
    3   25    2      1.04      0.00
    4   25    2     -1.01      0.00
    5   25    2      2.29      0.00
    6   25    2      0.33      0.00
    0   25    3      3.00      0.00
    1   25    3     -0.32      0.00
    2   25    3     -1.26      0.00
    3   25    3     -0.34      0.00
    4   25    3      0.85      0.00
    5   25    3      0.00      0.00
    6   25    3      0.17      0.00
    1   25    4      2.18      0.00
    2   25    4     -0.51      0.00
    3   25    4     -1.62      0.00
    4   25    4     -0.56      0.00
    5   25    4      0.46      0.00
    0   25    5     -0.60      0.00
    1   25    5      1.67      0.00
    2   25    5     -0.07      0.00
    3   25    5     -0.19      0.00
    4   25    5     -0.16      0.00
    5   25    5     -0.72      0.00
    1   25    6      2.55      0.00
    2   25    6      1.49      0.00
    3   25    6     -1.23      0.00
    0   25    7     -3.95      0.00
    1   25    7     -0.51      0.00
    0   26    0      1.85      0.00
    2   26    0      0.55      0.00
    4   26    0      0.21      0.00
    6   26    0     -0.97      0.00
    1   26    1      1.12      0.00
    2   26    1     -0.07      0.00
    3   26    1      0.73      0.00
    4   26    1     -1.50      0.00
    5   26    1      1.54      0.00
    0   26    2     -0.98      0.00
    1   26    2     -0.57      0.00
    2   26    2      0.66      0.00
    3   26    2      0.38      0.00
    4   26    2     -0.86      0.00
    5   26    2     -1.70      0.00
    1   26    3     -0.67      0.00
    2   26    3      0.25      0.00
    3   26    3      0.47      0.00
    4   26    3      1.19      0.00
    5   26    3     -0.56      0.00
    0   26    4     -0.98      0.00
    1   26    4      0.24      0.00
    2   26    4     -0.24      0.00
    3   26    4      1.03      0.00
    4   26    4     -0.38      0.00
    1   26    5     -1.75      0.00
    2   26    5     -1.45      0.00
    3   26    5      0.40      0.00
    0   26    6      2.81      0.00
    1   26    6      0.97      0.00
    2   27    0     -1.13      0.00
    4   27    0     -1.81      0.00
    0   27    1     -0.22      0.00
    1   27    1      0.36      0.00
    2   27    1      0.50      0.00
    3   27    1      0.33      0.00
    4   27    1      0.23      0.00
    1   27    2     -0.26      0.00
    2   27    2      0.15      0.00
    3   27    2     -0.66      0.00
    4   27    2      0.47      0.00
    0   27    3     -1.17      0.00
    1   27    3      0.25      0.00
    2   27    3      0.00      0.00
    3   27    3      0.43      0.00
    1   27    4     -0.53      0.00
    2   27    4     -0.51      0.00
    0   28    0     -0.72      0.00
    2   28    0      0.52      0.00
    1   28    1     -0.98      0.00
    2   28    1     -0.11      0.00
    0   28    2      0.30      0.00
    1   28    2      1.01      0.00
    2   28    2     -1.42      0.00
    0    2    0    -47.18      0.00
   14    7    0      0.30      0.00
   12   16    0      1.01      0.00
    8   24    0     -0.49      0.00
   14    7    1      0.11      0.00
   12   16    1     -0.79      0.00
    7   25    1     -0.10      0.00
    6   26    1      0.02      0.00
    3   28    1     -0.06      0.00
   14    6    2      0.01      0.00
   13   12    2     -1.50      0.00
    9   22    2      0.81      0.00
   14    4    3     -0.59      0.00
   13   11    3     -0.66      0.00
   12   15    3      0.62      0.00
   10   20    3     -1.67      0.00
    4   27    3     -1.04      0.00
    1   28    3      0.98      0.00
   13   10    4      0.47      0.00
   12   14    4      0.94      0.00
   11   17    4     -0.47      0.00
    9   21    4     -2.03      0.00
    6   25    4      0.31      0.00
    3   27    4      1.20      0.00
   13    8    5     -0.51      0.00
   11   16    5     -0.03      0.00
    0   27    5      0.23      0.00
    1   27    5     -0.26      0.00
    6    0    6     -0.42      0.00
   13    5    6     -1.47      0.00
   12   11    6      0.58      0.00
    8   21    6      0.35      0.00
    4   25    6     -0.01      0.00
    2   26    6     -0.67      0.00
    0    7    7     -1.67      0.00
    9   18    7     -0.21      0.00
    4   24    7      0.53      0.00
    2   25    7      2.74      0.00
   12    4    8     -0.40      0.00
    6   21    8      0.11      0.00
    5   22    8      0.36      0.00
    1   24    8      0.52      0.00
   11    7    9      0.66      0.00
    3   22    9      1.04      0.00
    0   16   10     -0.53      0.00
    2   21   10     -1.02      0.00
    8   11   11     -0.22      0.00
    2   19   11      0.92      0.00
    8    6   12     -1.01      0.00
    6   12   12      0.52      0.00
    4   15   12     -1.32      0.00
    3   16   12      0.47      0.00
    1   17   12      1.67      0.00
    7    0   13     -2.36      0.00
    7    1   13      0.96      0.00
    7    2   13      1.09      0.00
    5   10   13     -0.31      0.00
    1   14   13     -0.23      0.00
    5    1   14      0.40      0.00
    4    6   14      0.01      0.00
    3    8   14      0.06      0.00
    2    9   14     -0.20      0.00
    0   10   14     -0.63      0.00
    0    0    0      0.00      0.00
# SQUEEZE RESULTS (Version =  70515)
# Note: Data are Listed for all Voids in the P1 Unit Cell
# i.e. Centre of Gravity, Solvent Accessible Volume,
# Recovered number of Electrons in the Void and
# Details about the Squeezed Material
loop_
  _platon_squeeze_void_nr
  _platon_squeeze_void_average_x
  _platon_squeeze_void_average_y
  _platon_squeeze_void_average_z
  _platon_squeeze_void_volume
  _platon_squeeze_void_count_electrons
  _platon_squeeze_void_content
   1  0.250  0.340  0.750       289        31 ' '
   2  0.750  0.160  0.250       289        31 ' '
# Missing Reflections Below sin(th)/lambda = 0.25
loop_
  _platon_missing_refln_index_h
  _platon_missing_refln_index_k
  _platon_missing_refln_index_l
  _platon_missing_refln_theta
    0    2    0     1.849
_platon_squeeze_void_probe_radius                  1.20
_platon_squeeze_details
)
TITL qqq_b.res in Pc                  New: Pnna
CELL   11.0779   22.0300   11.4217     90.00     90.00     90.00
SPGR Pnna
# Solvent Accessible Volume =     604.5
# Electrons Found in S.A.V. =      61.8
# Note: Atoms in Void as Cxxx and Qxxx all others
C101 0.650 0.250 0.250 !       1.68 eA-3
C102 0.884 0.778 0.151 !       1.18 eA-3
C103 0.637 0.178 0.330 !       1.01 eA-3
C104 0.890 0.812 0.182 !       0.97 eA-3
Q105 0.281 0.778 0.309 !       0.93 eA-3
C106 0.656 0.271 0.392 !       0.91 eA-3
C107 0.647 0.144 0.276 !       0.88 eA-3
C108 0.901 0.636 0.265 !       0.88 eA-3
C109 0.818 0.744 0.138 !       0.78 eA-3
Q110 0.801 0.424 0.440 !       0.73 eA-3
Q111 0.866 0.444 0.193 !       0.71 eA-3
C112 0.732 0.243 0.170 !       0.71 eA-3
C113 0.610 0.325 0.235 !       0.70 eA-3
Q114 0.058 0.584 0.081 !       0.66 eA-3
Q115 0.984 0.093 0.064 !       0.66 eA-3
Q116 0.326 0.793 0.165 !       0.66 eA-3
Q117 0.745 0.696 0.412 !       0.65 eA-3
Q118 0.483 0.836 0.335 !       0.65 eA-3
C119 0.826 0.683 0.367 !       0.64 eA-3
Q120 0.248 0.779 0.215 !       0.61 eA-3
Q121 0.104 0.969 0.193 !       0.59 eA-3
Q122 0.634 0.366 0.304 !       0.58 eA-3
Q123 0.740 0.907 0.399 !       0.57 eA-3
Q124 0.467 0.283 0.309 !       0.57 eA-3
Q125 0.967 0.220 0.816 !       0.57 eA-3
Q126 0.301 0.945 0.303 !       0.57 eA-3
Q127 0.564 0.812 0.450 !       0.57 eA-3
Q128 0.753 0.743 0.430 !       0.56 eA-3
Q129 0.749 0.315 0.311 !       0.56 eA-3
Q130 0.371 0.197 0.466 !       0.56 eA-3
Q131 0.065 0.415 0.469 !       0.56 eA-3
Q132 0.010 0.105 0.146 !       0.55 eA-3
Q133 0.580 0.234 0.034 !       0.55 eA-3
Q134 0.499 0.710 0.161 !       0.55 eA-3
Q135 0.762 0.024 0.474 !       0.54 eA-3
Q136 0.842 0.621 0.424 !       0.54 eA-3
Q137 0.206 0.292 0.425 !       0.54 eA-3
Q138 0.905 0.627 0.046 !       0.54 eA-3
Q139 0.510 0.031 0.150 !       0.54 eA-3
C140 0.750 1.000 0.375 !       0.53 eA-3
Q141 0.639 0.203 0.070 !       0.53 eA-3
Q142 0.205 0.718 0.074 !       0.53 eA-3
Q143 0.624 0.401 0.474 !       0.53 eA-3
Q144 0.235 0.183 0.380 !       0.53 eA-3
Q145 0.810 0.467 0.120 !       0.52 eA-3
Q146 0.062 0.438 0.018 !       0.52 eA-3
Q147 0.589 0.620 0.357 !       0.52 eA-3
Q148 0.741 0.350 0.288 !       0.52 eA-3
Q149 0.937 0.078 0.263 !       0.51 eA-3
Q150 0.194 0.070 0.017 !       0.51 eA-3
Q151 0.722 0.416 0.408 !       0.51 eA-3
Q152 0.699 0.413 0.204 !       0.51 eA-3
Q153 0.717 0.719 0.025 !       0.51 eA-3
Q154 0.363 0.698 0.482 !       0.51 eA-3
Q155 0.656 0.631 0.460 !       0.51 eA-3
Q156 0.914 0.854 0.341 !       0.51 eA-3
Q157 0.685 0.718 0.299 !       0.51 eA-3
Q158 0.049 0.142 0.275 !       0.50 eA-3
Q159 0.929 0.836 0.179 !       0.50 eA-3
Q160 0.547 0.282 0.187 !       0.50 eA-3
Q161 0.343 0.217 0.304 !       0.50 eA-3
)
;
_shelx_fab_checksum              85375
loop_
_space_group_symop_operation_xyz
'x, y, z'
'-x+1/2, -y, z'
'x, -y+1/2, -z+1/2'
'-x+1/2, y+1/2, -z+1/2'
'-x, -y, -z'
'x-1/2, y, -z'
'-x, y-1/2, z-1/2'
'x-1/2, -y-1/2, z-1/2'
loop_
_atom_site_label
_atom_site_type_symbol
_atom_site_fract_x
_atom_site_fract_y
_atom_site_fract_z
_atom_site_U_iso_or_equiv
_atom_site_adp_type
_atom_site_occupancy
_atom_site_site_symmetry_order
_atom_site_calc_flag
_atom_site_refinement_flags_posn
_atom_site_refinement_flags_adp
_atom_site_refinement_flags_occupancy
Zn1 Zn 0.21522(6) 0.2500 0.2500 0.0271(2) Uani 1 2 d S T P
N1 N 0.3195(3) 0.30175(16) 0.1468(3) 0.0333(8) Uani 1 1 d . . .
N2 N 0.4290(4) 0.33052(17) -0.0039(3) 0.0421(10) Uani 1 1 d . . .
H2 H 0.4693 0.3285 -0.0681 0.051 Uiso 1 1 calc R U .
O1 O 0.1514(3) 0.19120(13) 0.1256(2) 0.0333(7) Uani 1 1 d . . .
O2 O 0.0421(3) 0.18382(14) 0.2861(2) 0.0367(7) Uani 1 1 d . . .
O3 O -0.2500 0.0000 -0.1659(4) 0.0567(16) Uani 1 2 d S T P
C1 C 0.3415(4) 0.3633(2) 0.1546(3) 0.0327(10) Uani 1 1 d . . .
H1 H 0.3139 0.3883 0.2146 0.039 Uiso 1 1 calc R U .
C2 C 0.3741(5) 0.2843(2) 0.0497(4) 0.0465(13) Uani 1 1 d . . .
H2A H 0.3744 0.2446 0.0220 0.056 Uiso 1 1 calc R U .
C3 C 0.4096(4) 0.3824(2) 0.0619(3) 0.0325(10) Uani 1 1 d . . .
C4 C 0.4574(4) 0.4420(2) 0.0294(3) 0.0311(9) Uani 1 1 d . . .
C5 C 0.4200(4) 0.4930(2) 0.0904(4) 0.0407(11) Uani 1 1 d . . .
H5 H 0.3658 0.4887 0.1520 0.049 Uiso 1 1 calc R U .
C6 C 0.5387(5) 0.4504(2) -0.0614(4) 0.0425(11) Uani 1 1 d . . .
H6 H 0.5657 0.4169 -0.1035 0.051 Uiso 1 1 calc R U .
C7 C 0.0623(4) 0.16991(19) 0.1811(3) 0.0298(9) Uani 1 1 d . . .
C8 C -0.0202(4) 0.12626(19) 0.1193(3) 0.0288(9) Uani 1 1 d . . .
C9 C 0.0055(4) 0.1065(2) 0.0063(3) 0.0315(9) Uani 1 1 d . . .
H9 H 0.0739 0.1209 -0.0319 0.038 Uiso 1 1 calc R U .
C10 C -0.0692(4) 0.0657(2) -0.0494(3) 0.0308(9) Uani 1 1 d . . .
H10 H -0.0511 0.0528 -0.1248 0.037 Uiso 1 1 calc R U .
C11 C -0.1720(4) 0.0438(2) 0.0069(3) 0.0320(9) Uani 1 1 d . . .
C12 C -0.1998(4) 0.0657(2) 0.1178(4) 0.0384(11) Uani 1 1 d . . .
H12 H -0.2701 0.0528 0.1547 0.046 Uiso 1 1 calc R U .
C13 C -0.1250(4) 0.1061(2) 0.1735(3) 0.0366(11) Uani 1 1 d . . .
H13 H -0.1446 0.1200 0.2480 0.044 Uiso 1 1 calc R U .
C14 C -0.2500 0.0000 -0.0586(5) 0.0374(16) Uani 1 2 d S T P
loop_
_atom_site_aniso_label
_atom_site_aniso_U_11
_atom_site_aniso_U_22
_atom_site_aniso_U_33
_atom_site_aniso_U_23
_atom_site_aniso_U_13
_atom_site_aniso_U_12
Zn1 0.0347(4) 0.0229(4) 0.0236(3) 0.0017(3) 0.000 0.000
N1 0.046(2) 0.024(2) 0.0299(17) 0.0009(15) 0.0059(15) -0.0068(17)
N2 0.061(3) 0.030(2) 0.0355(18) -0.0052(17) 0.0212(17) -0.0096(19)
O1 0.0339(16) 0.0312(17) 0.0348(14) 0.0005(13) 0.0026(12) -0.0113(13)
O2 0.0457(18) 0.0322(19) 0.0322(13) 0.0008(13) 0.0024(13) -0.0049(15)
O3 0.046(3) 0.097(5) 0.027(2) 0.000 0.000 -0.035(3)
C1 0.039(2) 0.029(3) 0.0294(19) -0.0051(18) 0.0047(17) -0.008(2)
C2 0.078(4) 0.025(3) 0.037(2) -0.005(2) 0.020(2) -0.007(3)
C3 0.038(2) 0.027(3) 0.032(2) -0.0024(18) 0.0062(17) -0.0030(19)
C4 0.035(2) 0.026(2) 0.0324(19) -0.0027(18) 0.0103(16) -0.0059(18)
C5 0.044(2) 0.035(3) 0.043(2) 0.001(2) 0.022(2) -0.007(2)
C6 0.052(3) 0.029(3) 0.046(2) -0.007(2) 0.021(2) -0.003(2)
C7 0.032(2) 0.027(2) 0.0305(19) 0.0043(18) -0.0007(15) -0.0017(18)
C8 0.028(2) 0.028(2) 0.0312(19) 0.0044(18) 0.0004(15) -0.0043(17)
C9 0.0275(19) 0.032(3) 0.035(2) 0.0015(18) 0.0071(16) -0.0063(18)
C10 0.029(2) 0.038(3) 0.0253(17) -0.0007(18) 0.0013(15) 0.0013(19)
C11 0.0249(19) 0.041(3) 0.0305(19) 0.0033(19) -0.0035(16) -0.0086(19)
C12 0.029(2) 0.052(3) 0.034(2) -0.002(2) 0.0052(16) -0.014(2)
C13 0.034(2) 0.047(3) 0.0295(19) -0.006(2) 0.0076(16) -0.010(2)
C14 0.031(3) 0.053(5) 0.028(3) 0.000 0.000 -0.011(3)
loop_
_atom_type_symbol
_atom_type_description
_atom_type_scat_dispersion_real
_atom_type_scat_dispersion_imag
_atom_type_scat_source
C C 0.0033 0.0016 'International Tables Vol C Tables 4.2.6.8 and 6.1.1.4'
H H 0.0000 0.0000 'International Tables Vol C Tables 4.2.6.8 and 6.1.1.4'
N N 0.0061 0.0033 'International Tables Vol C Tables 4.2.6.8 and 6.1.1.4'
O O 0.0106 0.0060 'International Tables Vol C Tables 4.2.6.8 and 6.1.1.4'
Zn Zn 0.2839 1.4301 'International Tables Vol C Tables 4.2.6.8 and 6.1.1.4'
loop_
_geom_angle_atom_site_label_1
_geom_angle_atom_site_label_2
_geom_angle_atom_site_label_3
_geom_angle
_geom_angle_site_symmetry_1
_geom_angle_site_symmetry_3
N1 Zn1 N1 109.7(2) . 3
N1 Zn1 O1 104.30(13) . 3
N1 Zn1 O1 98.66(12) 3 3
N1 Zn1 O1 98.66(12) . .
N1 Zn1 O1 104.30(13) 3 .
O1 Zn1 O1 139.62(16) 3 .
N1 Zn1 O2 152.86(12) . .
N1 Zn1 O2 90.79(13) 3 .
O1 Zn1 O2 89.40(11) 3 .
O1 Zn1 O2 57.91(10) . .
N1 Zn1 O2 90.79(13) . 3
N1 Zn1 O2 152.86(12) 3 3
O1 Zn1 O2 57.91(10) 3 3
O1 Zn1 O2 89.40(11) . 3
O2 Zn1 O2 76.61(15) . 3
N1 Zn1 C7 99.75(14) . 3
N1 Zn1 C7 126.16(13) 3 3
O1 Zn1 C7 29.06(11) 3 3
O1 Zn1 C7 114.77(13) . 3
O2 Zn1 C7 80.83(12) . 3
O2 Zn1 C7 28.90(11) 3 3
C2 N1 C1 105.0(3) . .
C2 N1 Zn1 126.3(3) . .
C1 N1 Zn1 128.4(3) . .
C2 N2 C3 108.1(3) . .
C2 N2 H2 126.0 . .
C3 N2 H2 126.0 . .
C7 O1 Zn1 99.0(2) . .
C7 O2 Zn1 81.1(2) . .
C3 C1 N1 110.4(4) . .
C3 C1 H1 124.8 . .
N1 C1 H1 124.8 . .
N1 C2 N2 111.8(4) . .
N1 C2 H2A 124.1 . .
N2 C2 H2A 124.1 . .
C1 C3 N2 104.6(4) . .
C1 C3 C4 132.3(4) . .
N2 C3 C4 123.1(3) . .
C6 C4 C5 117.5(4) . .
C6 C4 C3 123.0(4) . .
C5 C4 C3 119.4(4) . .
C6 C5 C4 121.1(4) 5_665 .
C6 C5 H5 119.4 5_665 .
C4 C5 H5 119.4 . .
C5 C6 C4 121.3(4) 5_665 .
C5 C6 H6 119.3 5_665 .
C4 C6 H6 119.3 . .
O2 C7 O1 121.8(4) . .
O2 C7 C8 119.7(4) . .
O1 C7 C8 118.5(3) . .
C13 C8 C9 119.0(4) . .
C13 C8 C7 120.2(4) . .
C9 C8 C7 120.8(3) . .
C10 C9 C8 120.6(4) . .
C10 C9 H9 119.7 . .
C8 C9 H9 119.7 . .
C9 C10 C11 120.3(4) . .
C9 C10 H10 119.9 . .
C11 C10 H10 119.9 . .
C10 C11 C12 118.8(4) . .
C10 C11 C14 117.7(4) . .
C12 C11 C14 123.5(4) . .
C13 C12 C11 120.9(4) . .
C13 C12 H12 119.5 . .
C11 C12 H12 119.5 . .
C12 C13 C8 120.3(4) . .
C12 C13 H13 119.8 . .
C8 C13 H13 119.8 . .
O3 C14 C11 120.0(2) . 2_455
O3 C14 C11 120.0(2) . .
C11 C14 C11 119.9(5) 2_455 .
loop_
_geom_bond_atom_site_label_1
_geom_bond_atom_site_label_2
_geom_bond_distance
_geom_bond_site_symmetry_2
Zn1 N1 2.006(3) .
Zn1 N1 2.006(3) 3
Zn1 O1 2.048(3) 3
Zn1 O1 2.048(3) .
Zn1 O2 2.444(3) .
Zn1 O2 2.444(3) 3
Zn1 C7 2.569(4) 3
N1 C2 1.321(5) .
N1 C1 1.381(5) .
N2 C2 1.334(6) .
N2 C3 1.384(5) .
N2 H2 0.8600 .
O1 C7 1.263(5) .
O2 C7 1.257(5) .
O3 C14 1.225(7) .
C1 C3 1.366(5) .
C1 H1 0.9300 .
C2 H2A 0.9300 .
C3 C4 1.464(6) .
C4 C6 1.386(5) .
C4 C5 1.385(6) .
C5 C6 1.369(6) 5_665
C5 H5 0.9300 .
C6 C5 1.369(6) 5_665
C6 H6 0.9300 .
C7 C8 1.504(6) .
C8 C13 1.389(5) .
C8 C9 1.391(5) .
C9 C10 1.377(6) .
C9 H9 0.9300 .
C10 C11 1.394(5) .
C10 H10 0.9300 .
C11 C12 1.389(6) .
C11 C14 1.496(5) .
C12 C13 1.373(6) .
C12 H12 0.9300 .
C13 H13 0.9300 .
C14 C11 1.496(5) 2_455
loop_
_geom_hbond_atom_site_label_D
_geom_hbond_atom_site_label_H
_geom_hbond_atom_site_label_A
_geom_hbond_distance_DH
_geom_hbond_distance_HA
_geom_hbond_distance_DA
_geom_hbond_angle_DHA
_geom_hbond_site_symmetry_A
N2 H2 O2 0.86 1.87 2.725(4) 172.4 8_665
N2 H2 O2 0.86 1.87 2.725(4) 172.4 8_665
N2 H2 O2 0.86 1.87 2.725(4) 172.4 8_665
N2 H2 O2 0.86 1.87 2.725(4) 172.4 8_665
N2 H2 O2 0.86 1.87 2.725(4) 172.4 8_665
N2 H2 O2 0.86 1.87 2.725(4) 172.4 8_665
N2 H2 O2 0.86 1.87 2.725(4) 172.4 8_665
N2 H2 O2 0.86 1.87 2.725(4) 172.4 8_665
N2 H2 O2 0.86 1.87 2.725(4) 172.4 8_665
N2 H2 O2 0.86 1.87 2.725(4) 172.4 8_665
N2 H2 O2 0.86 1.87 2.725(4) 172.4 8_665
N2 H2 O2 0.86 1.87 2.725(4) 172.4 8_665
N2 H2 O2 0.86 1.87 2.725(4) 172.4 8_665
N2 H2 O2 0.86 1.87 2.725(4) 172.4 8_665
N2 H2 O2 0.86 1.87 2.725(4) 172.4 8_665
N2 H2 O2 0.86 1.87 2.725(4) 172.4 8_665
N2 H2 O2 0.86 1.87 2.725(4) 172.4 8_665
N2 H2 O2 0.86 1.87 2.725(4) 172.4 8_665
N2 H2 O2 0.86 1.87 2.725(4) 172.4 8_665
N2 H2 O2 0.86 1.87 2.725(4) 172.4 8_665
N2 H2 O2 0.86 1.87 2.725(4) 172.4 8_665
N2 H2 O2 0.86 1.87 2.725(4) 172.4 8_665
N2 H2 O2 0.86 1.87 2.725(4) 172.4 8_665
N2 H2 O2 0.86 1.87 2.725(4) 172.4 8_665
N2 H2 O2 0.86 1.87 2.725(4) 172.4 8_665
N2 H2 O2 0.86 1.87 2.725(4) 172.4 8_665
N2 H2 O2 0.86 1.87 2.725(4) 172.4 8_665
N2 H2 O2 0.86 1.87 2.725(4) 172.4 8_665
N2 H2 O2 0.86 1.87 2.725(4) 172.4 8_665
N2 H2 O2 0.86 1.87 2.725(4) 172.4 8_665
loop_
_geom_torsion_atom_site_label_1
_geom_torsion_atom_site_label_2
_geom_torsion_atom_site_label_3
_geom_torsion_atom_site_label_4
_geom_torsion
_geom_torsion_site_symmetry_4
C2 N1 C1 C3 -0.1(5) .
Zn1 N1 C1 C3 -174.9(3) .
C1 N1 C2 N2 0.1(6) .
Zn1 N1 C2 N2 175.0(3) .
C3 N2 C2 N1 0.0(6) .
N1 C1 C3 N2 0.1(5) .
N1 C1 C3 C4 -179.7(4) .
C2 N2 C3 C1 0.0(5) .
C2 N2 C3 C4 179.7(4) .
C1 C3 C4 C6 171.2(5) .
N2 C3 C4 C6 -8.5(7) .
C1 C3 C4 C5 -9.5(8) .
N2 C3 C4 C5 170.9(4) .
C6 C4 C5 C6 0.4(8) 5_665
C3 C4 C5 C6 -179.0(4) 5_665
C5 C4 C6 C5 -0.4(8) 5_665
C3 C4 C6 C5 179.0(5) 5_665
Zn1 O2 C7 O1 4.1(4) .
Zn1 O2 C7 C8 -176.6(4) .
Zn1 O1 C7 O2 -4.9(5) .
Zn1 O1 C7 C8 175.8(3) .
O2 C7 C8 C13 6.5(6) .
O1 C7 C8 C13 -174.2(4) .
O2 C7 C8 C9 -174.9(4) .
O1 C7 C8 C9 4.4(6) .
C13 C8 C9 C10 -2.4(7) .
C7 C8 C9 C10 178.9(4) .
C8 C9 C10 C11 0.1(7) .
C9 C10 C11 C12 2.6(7) .
C9 C10 C11 C14 179.6(4) .
C10 C11 C12 C13 -2.9(7) .
C14 C11 C12 C13 -179.7(4) .
C11 C12 C13 C8 0.6(8) .
C9 C8 C13 C12 2.1(7) .
C7 C8 C13 C12 -179.2(4) .
C10 C11 C14 O3 -25.3(4) .
C12 C11 C14 O3 151.6(4) .
C10 C11 C14 C11 154.7(4) 2_455
C12 C11 C14 C11 -28.4(4) 2_455
