#------------------------------------------------------------------------------
#$Date: 2017-10-10 05:35:34 +0300 (Tue, 10 Oct 2017) $
#$Revision: 201874 $
#$URL: file:///home/coder/svn-repositories/cod/cif/7/04/44/7044444.cif $
#------------------------------------------------------------------------------
#
# This file is available in the Crystallography Open Database (COD),
# http://www.crystallography.net/
#
# All data on this site have been placed in the public domain by the
# contributors.
#
data_7044444
loop_
_publ_author_name
'Markiewicz, Grzegorz'
'Piechocki, Mi\/losz'
'Walczak, Anna'
'Po\/lomska, Ewa'
'Harrowfield, Jack'
'Stefankiewicz, Artur Ryszard'
_publ_section_title
;
 Generation and transformation of a hemi-iminal-based metal-organic Fe(II)
 structure obtained via subcomponent self-assembly in water
;
_journal_name_full               'Dalton Trans.'
_journal_paper_doi               10.1039/C7DT03182C
_journal_year                    2017
_chemical_formula_moiety         'C24 H16 Fe N6 O4, Cl O4'
_chemical_formula_sum            'C24 H16 Cl Fe N6 O8'
_chemical_formula_weight         607.73
_space_group_crystal_system      triclinic
_space_group_IT_number           2
_space_group_name_Hall           '-P 1'
_space_group_name_H-M_alt        'P -1'
_symmetry_space_group_name_Hall  '-P 1'
_symmetry_space_group_name_H-M   'P -1'
_atom_sites_solution_hydrogens   geom
_atom_sites_solution_primary     dual
_audit_creation_date             2017-05-22
_audit_creation_method
;
Olex2 1.2
(compiled 2017.03.02 svn.r3394 for OlexSys, GUI svn.r5324)
;
_audit_update_record
;
2017-05-22 deposited with the CCDC.
2017-10-09 downloaded from the CCDC.
;
_cell_angle_alpha                107.694(2)
_cell_angle_beta                 105.087(2)
_cell_angle_gamma                99.040(2)
_cell_formula_units_Z            2
_cell_length_a                   8.9536(2)
_cell_length_b                   11.9966(3)
_cell_length_c                   13.8709(3)
_cell_measurement_reflns_used    12971
_cell_measurement_temperature    293(2)
_cell_measurement_theta_max      23.5460
_cell_measurement_theta_min      3.8690
_cell_volume                     1324.54(6)
_computing_cell_refinement       'CrysAlisPro 1.171.38.41r (Rigaku OD, 2015)'
_computing_data_collection       'CrysAlisPro 1.171.38.41r (Rigaku OD, 2015)'
_computing_data_reduction        'CrysAlisPro 1.171.38.41r (Rigaku OD, 2015)'
_computing_molecular_graphics    'Olex2 (Dolomanov et al., 2009)'
_computing_publication_material  'Olex2 (Dolomanov et al., 2009)'
_computing_structure_refinement  'ShelXL (Sheldrick, 2015)'
_computing_structure_solution    'ShelXT (Sheldrick, 2015)'
_diffrn_ambient_temperature      293(2)
_diffrn_detector                 'CCD plate'
_diffrn_detector_area_resol_mean 8.0169
_diffrn_detector_type            EosS2
_diffrn_measured_fraction_theta_full 0.949
_diffrn_measured_fraction_theta_max 0.949
_diffrn_measurement_details
;
List of Runs (angles in degrees, time in seconds):

  # Type    Start    End  Width  t~exp~   \w     \q     \k     \f   Frames
#--------------------------------------------------------------------------
  1  \w   -115.00 -35.00   1.00    7.50    --  -20.49-178.00-120.00   80
  2  \w    -20.00  35.00   1.00    7.50    --  -20.49 -99.00   0.00   55
  3  \w    -96.00  17.00   1.00    7.50    --  -20.49 -57.00 150.00  113
  4  \w   -102.00  35.00   1.00    7.50    --  -20.49 -38.00   0.00  137
  5  \w    -96.00  17.00   1.00    7.50    --  -20.49 -57.00 -90.00  113
  6  \w    -54.00  60.00   1.00    7.50    --   21.74 -57.00 150.00  114
  7  \w    -54.00  60.00   1.00    7.50    --   21.74 -57.00 -90.00  114
  8  \w    -63.00  65.00   1.00    7.50    --   21.74 -77.00  60.00  128
  9  \w    -20.00  35.00   1.00    7.50    --  -20.49 -99.00-180.00   55
 10  \w    -58.00  56.00   1.00    7.50    --  -20.49  57.00  30.00  114
 11  \w    -58.00  56.00   1.00    7.50    --  -20.49  57.00-180.00  114
 12  \w    -96.00  17.00   1.00    7.50    --  -20.49 -57.00  90.00  113
 13  \w    -29.00  26.00   1.00    7.50    --   21.74  93.00-156.00   55
 14  \w     35.00 116.00   1.00    7.50    --   21.74 178.00 -30.00   81
 15  \w    -69.00 113.00   1.00    7.50    --   21.74   0.00-150.00  182
 16  \w    -69.00 113.00   1.00    7.50    --   21.74   0.00-120.00  182
 17  \w    -69.00 113.00   1.00    7.50    --   21.74   0.00 -90.00  182
 18  \w    -69.00 113.00   1.00    7.50    --   21.74   0.00 -60.00  182
 19  \w    -69.00 113.00   1.00    7.50    --   21.74   0.00 -30.00  182
 20  \w    -69.00 113.00   1.00    7.50    --   21.74   0.00-180.00  182
 21  \w    -69.00  89.00   1.00    7.50    --   21.74   0.00   0.00  158
;
_diffrn_measurement_device       'four-circle diffractometer'
_diffrn_measurement_device_type  'New Xcalibur, EosS2'
_diffrn_measurement_method       '\w scans'
_diffrn_orient_matrix_type
'CrysAlisPro convention (1999,Acta A55,543-557)'
_diffrn_orient_matrix_UB_11      0.0546991000
_diffrn_orient_matrix_UB_12      0.0508247000
_diffrn_orient_matrix_UB_13      0.0433393000
_diffrn_orient_matrix_UB_21      -0.0252433000
_diffrn_orient_matrix_UB_22      0.0386617000
_diffrn_orient_matrix_UB_23      -0.0271715000
_diffrn_orient_matrix_UB_31      -0.0598148000
_diffrn_orient_matrix_UB_32      0.0067566000
_diffrn_orient_matrix_UB_33      0.0247040000
_diffrn_radiation_monochromator  graphite
_diffrn_radiation_probe          x-ray
_diffrn_radiation_type           MoK\a
_diffrn_radiation_wavelength     0.71073
_diffrn_reflns_av_R_equivalents  0.0664
_diffrn_reflns_av_unetI/netI     0.0396
_diffrn_reflns_Laue_measured_fraction_full 0.949
_diffrn_reflns_Laue_measured_fraction_max 0.949
_diffrn_reflns_limit_h_max       10
_diffrn_reflns_limit_h_min       -10
_diffrn_reflns_limit_k_max       14
_diffrn_reflns_limit_k_min       -14
_diffrn_reflns_limit_l_max       16
_diffrn_reflns_limit_l_min       -15
_diffrn_reflns_number            41842
_diffrn_reflns_point_group_measured_fraction_full 0.949
_diffrn_reflns_point_group_measured_fraction_max 0.949
_diffrn_reflns_theta_full        25.024
_diffrn_reflns_theta_max         25.024
_diffrn_reflns_theta_min         4.103
_diffrn_source                   'fine-focus sealed X-ray tube'
_diffrn_source_type              'Enhance (Mo) X-ray Source'
_exptl_absorpt_coefficient_mu    0.730
_exptl_absorpt_correction_T_max  1.00000
_exptl_absorpt_correction_T_min  0.95732
_exptl_absorpt_correction_type   multi-scan
_exptl_absorpt_process_details
;
CrysAlisPro 1.171.38.41r (Rigaku Oxford Diffraction, 2015)
Empirical absorption correction using spherical harmonics,
 implemented in SCALE3 ABSPACK scaling algorithm.
;
_exptl_crystal_colour            'metallic dark black'
_exptl_crystal_colour_lustre     metallic
_exptl_crystal_colour_modifier   dark
_exptl_crystal_colour_primary    black
_exptl_crystal_density_diffrn    1.524
_exptl_crystal_description       block
_exptl_crystal_F_000             618
_exptl_crystal_size_max          0.25
_exptl_crystal_size_mid          0.15
_exptl_crystal_size_min          0.1
_refine_diff_density_max         0.494
_refine_diff_density_min         -0.431
_refine_diff_density_rms         0.055
_refine_ls_extinction_method     none
_refine_ls_goodness_of_fit_ref   1.063
_refine_ls_hydrogen_treatment    constr
_refine_ls_matrix_type           full
_refine_ls_number_parameters     361
_refine_ls_number_reflns         4442
_refine_ls_number_restraints     0
_refine_ls_restrained_S_all      1.063
_refine_ls_R_factor_all          0.0612
_refine_ls_R_factor_gt           0.0480
_refine_ls_shift/su_max          0.000
_refine_ls_shift/su_mean         0.000
_refine_ls_structure_factor_coef Fsqd
_refine_ls_weighting_details
'w=1/[\s^2^(Fo^2^)+(0.0798P)^2^+0.4064P] where P=(Fo^2^+2Fc^2^)/3'
_refine_ls_weighting_scheme      calc
_refine_ls_wR_factor_gt          0.1295
_refine_ls_wR_factor_ref         0.1373
_reflns_Friedel_coverage         0.000
_reflns_number_gt                3636
_reflns_number_total             4442
_reflns_threshold_expression     'I > 2\s(I)'
_iucr_refine_instructions_details
;
TITL ars_fe_a.res in P-1
    2.res
    created by SHELXL-2016/6 at 11:33:25 on 22-May-2017
REM Old TITL ars_fe_b.res in P1
REM SHELXT solution in P-1
REM R1 0.168, Rweak 0.015, Alpha 0.088, Orientation as input
REM Formula found by SHELXT: C28 N2 O8 Cl Fe
CELL 0.71073 8.9536 11.9966 13.8709 107.694 105.087 99.04
ZERR 2 0.0002 0.0003 0.0003 0.002 0.002 0.002
LATT 1
SFAC C H Cl Fe N O
UNIT 48 32 2 2 12 16

L.S. 20
PLAN  20
BOND $H
list 4
ABIN
fmap 2
acta
SHEL 5 0.84
REM <olex2.extras>
REM <HklSrc "%.\\1.hkl">
REM </olex2.extras>

WGHT    0.079800    0.406400
FVAR       0.87416
FE01  4    0.420213    0.695632    0.274547    11.00000    0.03986    0.03895 =
         0.02879    0.00300    0.00643    0.00456
CL02  3    0.070825    0.258707    0.293183    11.00000    0.09035    0.07395 =
         0.07034    0.02447    0.02198    0.02721
O003  6    0.722200    0.975212    0.530873    11.00000    0.04920    0.05162 =
         0.03502   -0.00058    0.00399   -0.00356
O004  6    0.450965    0.873000    0.576955    11.00000    0.06087    0.06247 =
         0.03087    0.00222    0.01241    0.00206
N005  5    0.230608    0.663043    0.318443    11.00000    0.03931    0.04045 =
         0.03865    0.00825    0.00448    0.00471
N006  5    0.501944    0.816597    0.415094    11.00000    0.03594    0.04159 =
         0.02990    0.00444    0.00710    0.00418
N007  5    0.317511    0.788576    0.194316    11.00000    0.04186    0.05008 =
         0.03275    0.00884    0.00790    0.00833
N008  5    0.629806    0.767962    0.268399    11.00000    0.04241    0.04871 =
         0.03203    0.00846    0.01023    0.00974
N009  5    0.499317    0.565184    0.314399    11.00000    0.04566    0.04395 =
         0.04376    0.01062    0.01767    0.00836
N00A  5    0.340271    0.571830    0.135468    11.00000    0.05783    0.04641 =
         0.03290    0.00112    0.00652    0.00585
C00B  1    0.650951    0.894861    0.446206    11.00000    0.04192    0.04067 =
         0.03227    0.00938    0.00569    0.00889
C00C  1    0.717341    0.866313    0.355906    11.00000    0.04067    0.04540 =
         0.03336    0.00857    0.00602    0.00972
O00D  6    0.329803    0.373040    0.044723    11.00000    0.21418    0.06006 =
         0.05689   -0.00742    0.02447    0.03765
C00E  1    0.584510    0.570468    0.411709    11.00000    0.04453    0.05788 =
         0.05157    0.02149    0.01610    0.01339
AFIX  43
H00E  2    0.609226    0.641703    0.470326    11.00000   -1.20000
AFIX   0
C00F  1    0.313138    0.903875    0.234394    11.00000    0.05493    0.05393 =
         0.04370    0.01444    0.01828    0.01615
AFIX  43
H00F  2    0.364247    0.947968    0.307061    11.00000   -1.20000
AFIX   0
C00G  1    0.412910    0.816920    0.482045    11.00000    0.04242    0.03842 =
         0.03632    0.00752    0.00754    0.00720
C00H  1    0.250349    0.731336    0.420356    11.00000    0.04585    0.04154 =
         0.03851    0.01226    0.01178    0.00994
C00I  1    0.086888    0.585888    0.258805    11.00000    0.04535    0.04802 =
         0.04588    0.00751    0.00281   -0.00130
AFIX  43
H00I  2    0.070690    0.538996    0.188072    11.00000   -1.20000
AFIX   0
C00J  1    0.243937    0.725721    0.088393    11.00000    0.06193    0.06342 =
         0.03660    0.01002    0.00290    0.01117
O00K  6    0.200640    0.532973   -0.041840    11.00000    0.16932    0.09101 =
         0.03491   -0.00819   -0.01500    0.03435
C00L  1    0.686876    0.734966    0.186833    11.00000    0.05579    0.06164 =
         0.04036    0.00299    0.01893    0.00808
AFIX  43
H00L  2    0.628608    0.666270    0.126916    11.00000   -1.20000
AFIX   0
C00M  1    0.859055    0.936000    0.361555    11.00000    0.04235    0.06147 =
         0.04917    0.01214    0.00901   -0.00076
AFIX  43
H00M  2    0.915743    1.004704    0.421845    11.00000   -1.20000
AFIX   0
C00N  1    0.131531    0.722842    0.464142    11.00000    0.04964    0.06228 =
         0.05078    0.01732    0.02229    0.01209
AFIX  43
H00N  2    0.148862    0.770634    0.534811    11.00000   -1.20000
AFIX   0
C00O  1   -0.036259    0.574328    0.299125    11.00000    0.04465    0.06813 =
         0.06816    0.02003    0.00914   -0.00218
AFIX  43
H00O  2   -0.134524    0.520011    0.256115    11.00000   -1.20000
AFIX   0
C00P  1    0.636122    0.472742    0.426661    11.00000    0.06302    0.07401 =
         0.07686    0.04264    0.02560    0.02145
AFIX  43
H00P  2    0.694083    0.477981    0.494801    11.00000   -1.20000
AFIX   0
C00Q  1    0.370420    0.461324    0.126137    11.00000    0.09056    0.04926 =
         0.04943    0.00145    0.02006    0.01220
C00R  1    0.465132    0.461468    0.230832    11.00000    0.07223    0.04527 =
         0.05583    0.00985    0.02720    0.01327
C00S  1    0.161889    0.775531    0.021204    11.00000    0.08659    0.10177 =
         0.04662    0.02472    0.00322    0.03034
AFIX  43
H00S  2    0.110062    0.730035   -0.051121    11.00000   -1.20000
AFIX   0
C00T  1    0.234520    0.958698    0.170300    11.00000    0.08086    0.06821 =
         0.07343    0.03425    0.03307    0.03594
AFIX  43
H00T  2    0.233313    1.039205    0.199555    11.00000   -1.20000
AFIX   0
C00U  1    0.915739    0.902568    0.276678    11.00000    0.05001    0.08261 =
         0.05662    0.01820    0.02192    0.00043
AFIX  43
H00U  2    1.010891    0.948703    0.278500    11.00000   -1.20000
AFIX   0
C00V  1    0.830004    0.800363    0.189470    11.00000    0.06296    0.08327 =
         0.05292    0.01245    0.03080    0.01065
AFIX  43
H00V  2    0.868138    0.775172    0.132279    11.00000   -1.20000
AFIX   0
C00W  1   -0.014708    0.642503    0.402361    11.00000    0.04557    0.07961 =
         0.07233    0.02497    0.02185    0.00504
AFIX  43
H00W  2   -0.097481    0.634942    0.430741    11.00000   -1.20000
AFIX   0
C00X  1    0.257147    0.598392    0.049908    11.00000    0.07815    0.06593 =
         0.03711    0.00059    0.00381    0.01003

O00Y  6    0.042291    0.172452    0.194660    11.00000    0.24507    0.21385 =
         0.06873    0.01230    0.01612    0.14787
C00Z  1    0.601643    0.368024    0.340758    11.00000    0.09873    0.06495 =
         0.09865    0.04132    0.04257    0.03568
AFIX  43
H00Z  2    0.636801    0.301799    0.349837    11.00000   -1.20000
AFIX   0

O010  6   -0.069148    0.290777    0.298739    11.00000    0.14865    0.19554 =
         0.28119    0.08663    0.11833    0.08681
C011  1    0.515534    0.361749    0.242062    11.00000    0.11498    0.04750 =
         0.08366    0.01749    0.04514    0.02956
AFIX  43
H011  2    0.490837    0.291178    0.182799    11.00000   -1.20000
AFIX   0

O012  6    0.129538    0.214121    0.371422    11.00000    0.26115    0.12343 =
         0.10003    0.03960   -0.01946    0.05004
C013  1    0.158149    0.894444    0.063434    11.00000    0.08828    0.10405 =
         0.06585    0.04487    0.01583    0.04665
AFIX  43
H013  2    0.104197    0.930730    0.019700    11.00000   -1.20000
AFIX   0

O014  6    0.178167    0.365350    0.312375    11.00000    0.16034    0.15384 =
         0.30325    0.11471    0.09155    0.00537
HKLF 4




REM  ars_fe_a.res in P-1
REM R1 =  0.0480 for    3636 Fo > 4sig(Fo)  and  0.0612 for all    4442 data
REM    361 parameters refined using      0 restraints

END  
     
WGHT      0.0796      0.4079 

REM Highest difference peak  0.494,  deepest hole -0.431,  1-sigma level  0.055
Q1    1   0.2426  0.2452  0.3209  11.00000  0.05    0.49
Q2    1   0.0971  0.3041  0.2166  11.00000  0.05    0.44
Q3    1  -0.0745  0.1823  0.2761  11.00000  0.05    0.41
Q4    1   0.0681  0.3583  0.3758  11.00000  0.05    0.32
Q5    1   0.2531  0.4044  0.0062  11.00000  0.05    0.23
Q6    1   0.3423  0.7663  0.4512  11.00000  0.05    0.23
Q7    1   0.1191  0.2158  0.4047  11.00000  0.05    0.23
Q8    1   0.1744  0.6208  0.3024  11.00000  0.05    0.22
Q9    1   0.6864  0.8901  0.3941  11.00000  0.05    0.21
Q10   1   0.5761  0.8265  0.4409  11.00000  0.05    0.21
Q11   1   0.7377  0.8762  0.3810  11.00000  0.05    0.21
Q12   1   0.5270  0.5785  0.3532  11.00000  0.05    0.19
Q13   1   0.4731  0.8273  0.4397  11.00000  0.05    0.18
Q14   1   0.6393  0.7517  0.2296  11.00000  0.05    0.18
Q15   1   0.2486  0.7314  0.4433  11.00000  0.05    0.17
Q16   1   0.2453  0.9140  0.1978  11.00000  0.05    0.17
Q17   1   0.4401  0.6636  0.3419  11.00000  0.05    0.17
Q18   1   0.4879  0.4188  0.0543  11.00000  0.05    0.16
Q19   1   0.3868  0.9613  0.5269  11.00000  0.05    0.16
Q20   1   0.3680  0.7615  0.2276  11.00000  0.05    0.16

  REM The information below was added by Olex2.
  REM
  REM R1 = 0.0480 for 3636 Fo > 4sig(Fo) and 0.0612 for all 42007 data
  REM n/a parameters refined using n/a restraints
  REM Highest difference peak 0.49, deepest hole -0.43
  REM Mean Shift 0, Max Shift 0.000.

  REM +++ Tabular Listing of Refinement Information +++
  REM R1_all = 0.0612
  REM R1_gt = 0.0480
  REM wR_ref = 0.1373
  REM GOOF = 1.063
  REM Shift_max = 0.000
  REM Shift_mean = 0
  REM Reflections_all = 42007
  REM Reflections_gt = 3636
  REM Parameters = n/a
  REM Hole = -0.43
  REM Peak = 0.49
  REM Flack = n/a

  
;
_cod_data_source_file            c7dt03182c2.cif
_cod_data_source_block           2
_cod_database_code               7044444
_shelx_shelxl_version_number     2016/6
_chemical_oxdiff_formula         C24H16ClFeN6O8
_shelx_space_group_comment
;
The symmetry employed for this shelxl refinement is uniquely defined
by the following loop, which should always be used as a source of
symmetry information in preference to the above space-group names.
They are only intended as comments.
;
_reflns_odcompleteness_completeness 99.24
_reflns_odcompleteness_iscentric 1
_reflns_odcompleteness_theta     23.21
_olex2_refinement_description
;
1. Fixed Uiso
 At 1.2 times of:
  All C(H) groups
2.a Aromatic/amide H refined with riding coordinates:
 C00E(H00E), C00F(H00F), C00I(H00I), C00L(H00L), C00M(H00M), C00N(H00N),
 C00O(H00O), C00P(H00P), C00S(H00S), C00T(H00T), C00U(H00U), C00V(H00V),
 C00W(H00W), C00Z(H00Z), C011(H011), C013(H013)
;
_shelx_fab_file
;
-10 -2 3 0.0708 0.0000
-10 -2 4 0.1725 0.0000
-10 -2 5 -0.0365 0.0000
-10 -2 6 -0.2050 0.0000
-10 -2 7 0.1084 0.0000
-10 -2 8 0.4218 0.0000
-10 -1 2 -0.2837 0.0000
-10 -1 3 0.1108 0.0000
-10 -1 4 0.2378 0.0000
-10 -1 5 -0.1018 0.0000
-10 -1 6 -0.1130 0.0000
-10 -1 7 0.3705 0.0000
-10 0 2 -0.1399 0.0000
-10 0 3 0.3119 0.0000
-10 0 4 0.1678 0.0000
-10 0 5 -0.2686 0.0000
-10 0 6 -0.0345 0.0000
-10 0 7 0.4910 0.0000
-10 0 8 0.5423 0.0000
-10 0 9 0.3545 0.0000
-10 1 1 -0.0602 0.0000
-10 1 2 0.2124 0.0000
-10 1 3 0.4053 0.0000
-10 1 4 -0.1284 0.0000
-10 1 5 -0.4890 0.0000
-10 1 6 -0.0415 0.0000
-10 1 7 0.3549 0.0000
-10 1 8 0.2760 0.0000
-10 1 9 0.1526 0.0000
-10 2 1 0.1222 0.0000
-10 2 2 0.3300 0.0000
-10 2 3 0.1203 0.0000
-10 2 4 -0.5728 0.0000
-10 2 5 -0.6272 0.0000
-10 2 6 -0.1000 0.0000
-10 2 7 0.0643 0.0000
-10 2 8 -0.0363 0.0000
-10 2 9 -0.0029 0.0000
-10 3 2 0.0891 0.0000
-10 3 3 -0.3701 0.0000
-10 3 4 -0.7966 0.0000
-10 3 5 -0.4454 0.0000
-10 3 6 -0.0318 0.0000
-10 3 7 -0.1165 0.0000
-10 3 8 -0.1720 0.0000
-10 4 2 -0.1807 0.0000
-10 4 3 -0.5805 0.0000
-10 4 4 -0.4655 0.0000
-10 4 5 0.1313 0.0000
-10 4 6 0.2601 0.0000
-10 5 2 -0.2720 0.0000
-10 5 3 -0.3920 0.0000
-10 5 4 0.1568 0.0000
-10 5 5 0.6805 0.0000
-10 5 6 0.5180 0.0000
-10 6 2 -0.3394 0.0000
-10 6 3 -0.1971 0.0000
-10 6 5 0.6622 0.0000
-9 -5 4 -0.0652 0.0000
-9 -5 5 -0.1050 0.0000
-9 -4 3 -0.3362 0.0000
-9 -4 4 -0.1266 0.0000
-9 -4 5 -0.1091 0.0000
-9 -4 6 -0.1501 0.0000
-9 -4 7 -0.2918 0.0000
-9 -4 8 -0.3307 0.0000
-9 -4 9 -0.1572 0.0000
-9 -4 10 0.0178 0.0000
-9 -4 11 0.1830 0.0000
-9 -3 1 -0.2571 0.0000
-9 -3 2 -0.4644 0.0000
-9 -3 3 -0.3073 0.0000
-9 -3 4 -0.1958 0.0000
-9 -3 5 -0.1020 0.0000
-9 -3 6 -0.1325 0.0000
-9 -3 7 -0.3004 0.0000
-9 -3 8 -0.2489 0.0000
-9 -3 9 -0.0495 0.0000
-9 -3 10 0.0706 0.0000
-9 -3 11 0.2413 0.0000
-9 -2 1 -0.0174 0.0000
-9 -2 2 -0.1310 0.0000
-9 -2 3 -0.1988 0.0000
-9 -2 4 -0.1519 0.0000
-9 -2 5 0.0120 0.0000
-9 -2 6 -0.1132 0.0000
-9 -2 7 -0.3310 0.0000
-9 -2 8 -0.2471 0.0000
-9 -2 9 -0.1435 0.0000
-9 -2 10 -0.1000 0.0000
-9 -2 11 0.1150 0.0000
-9 -1 1 0.3123 0.0000
-9 -1 2 0.1053 0.0000
-9 -1 3 -0.1421 0.0000
-9 -1 4 0.0049 0.0000
-9 -1 5 0.1533 0.0000
-9 -1 6 -0.1952 0.0000
-9 -1 7 -0.4826 0.0000
-9 -1 8 -0.4214 0.0000
-9 -1 9 -0.3936 0.0000
-9 -1 10 -0.2639 0.0000
-9 -1 11 0.1076 0.0000
-9 -1 12 0.2800 0.0000
-9 0 1 0.2600 0.0000
-9 0 2 -0.0847 0.0000
-9 0 3 -0.2392 0.0000
-9 0 4 0.1360 0.0000
-9 0 5 0.1471 0.0000
-9 0 6 -0.4037 0.0000
-9 0 7 -0.6469 0.0000
-9 0 8 -0.5452 0.0000
-9 0 9 -0.4479 0.0000
-9 0 10 -0.1088 0.0000
-9 0 11 0.3758 0.0000
-9 0 12 0.5504 0.0000
-9 1 1 -0.1573 0.0000
-9 1 2 -0.4972 0.0000
-9 1 3 -0.3053 0.0000
-9 1 4 0.2239 0.0000
-9 1 5 0.0117 0.0000
-9 1 6 -0.5523 0.0000
-9 1 7 -0.6000 0.0000
-9 1 8 -0.4306 0.0000
-9 1 9 -0.2626 0.0000
-9 1 10 0.1406 0.0000
-9 1 11 0.5221 0.0000
-9 2 1 -0.4058 0.0000
-9 2 2 -0.5502 0.0000
-9 2 3 -0.0355 0.0000
-9 2 4 0.3418 0.0000
-9 2 5 -0.1191 0.0000
-9 2 6 -0.5011 0.0000
-9 2 7 -0.3519 0.0000
-9 2 8 -0.2361 0.0000
-9 2 9 -0.1464 0.0000
-9 2 10 0.1136 0.0000
-9 2 11 0.2873 0.0000
-9 3 1 -0.1771 0.0000
-9 3 2 -0.0656 0.0000
-9 3 3 0.4209 0.0000
-9 3 4 0.2967 0.0000
-9 3 5 -0.3280 0.0000
-9 3 6 -0.4269 0.0000
-9 3 7 -0.2031 0.0000
-9 3 8 -0.2280 0.0000
-9 3 9 -0.2144 0.0000
-9 3 10 -0.0445 0.0000
-9 3 11 0.0490 0.0000
-9 4 1 0.1991 0.0000
-9 4 2 0.4370 0.0000
-9 4 3 0.4901 0.0000
-9 4 4 -0.1826 0.0000
-9 4 5 -0.7203 0.0000
-9 4 6 -0.5313 0.0000
-9 4 7 -0.3424 0.0000
-9 4 8 -0.4082 0.0000
-9 4 9 -0.2584 0.0000
-9 4 10 0.0174 0.0000
-9 5 1 0.3315 0.0000
-9 5 2 0.5102 0.0000
-9 5 3 0.0755 0.0000
-9 5 4 -0.7524 0.0000
-9 5 5 -0.9491 0.0000
-9 5 6 -0.6262 0.0000
-9 5 7 -0.5579 0.0000
-9 5 8 -0.5248 0.0000
-9 5 9 -0.1334 0.0000
-9 6 1 0.3251 0.0000
-9 6 2 0.3762 0.0000
-9 6 3 -0.1929 0.0000
-9 6 4 -0.7161 0.0000
-9 6 5 -0.6272 0.0000
-9 6 6 -0.4636 0.0000
-9 6 7 -0.5629 0.0000
-9 6 8 -0.4098 0.0000
-9 7 1 0.3691 0.0000
-9 7 2 0.3410 0.0000
-9 7 3 -0.0218 0.0000
-9 7 4 -0.1992 0.0000
-9 7 5 -0.1509 0.0000
-9 8 1 0.3002 0.0000
-9 8 2 0.2328 0.0000
-9 8 3 0.0536 0.0000
-9 9 1 0.0605 0.0000
-9 9 2 -0.0652 0.0000
-9 9 3 -0.2893 0.0000
-8 -7 4 0.0846 0.0000
-8 -7 5 0.2469 0.0000
-8 -7 6 0.1609 0.0000
-8 -7 7 0.0780 0.0000
-8 -7 8 0.1007 0.0000
-8 -6 2 0.0001 0.0000
-8 -6 3 -0.2248 0.0000
-8 -6 4 -0.2532 0.0000
-8 -6 5 -0.1619 0.0000
-8 -6 6 -0.1590 0.0000
-8 -6 7 -0.1251 0.0000
-8 -6 8 -0.0869 0.0000
-8 -6 9 -0.0602 0.0000
-8 -5 1 -0.0697 0.0000
-8 -5 2 -0.0591 0.0000
-8 -5 3 -0.4096 0.0000
-8 -5 4 -0.4814 0.0000
-8 -5 5 -0.3319 0.0000
-8 -5 6 -0.1599 0.0000
-8 -5 7 -0.0153 0.0000
-8 -5 8 0.0455 0.0000
-8 -5 9 0.1604 0.0000
-8 -5 10 0.2293 0.0000
-8 -5 11 0.0246 0.0000
-8 -5 12 -0.0857 0.0000
-8 -4 1 0.1061 0.0000
-8 -4 2 0.0317 0.0000
-8 -4 3 -0.2775 0.0000
-8 -4 4 -0.2528 0.0000
-8 -4 5 -0.0292 0.0000
-8 -4 6 0.1948 0.0000
-8 -4 7 0.2499 0.0000
-8 -4 8 0.2015 0.0000
-8 -4 9 0.3044 0.0000
-8 -4 10 0.2614 0.0000
-8 -4 11 -0.1228 0.0000
-8 -4 12 -0.2856 0.0000
-8 -4 13 -0.0677 0.0000
-8 -3 1 0.3145 0.0000
-8 -3 2 0.2127 0.0000
-8 -3 3 0.0870 0.0000
-8 -3 4 0.1936 0.0000
-8 -3 5 0.3827 0.0000
-8 -3 6 0.4860 0.0000
-8 -3 7 0.3096 0.0000
-8 -3 8 0.1485 0.0000
-8 -3 9 0.2447 0.0000
-8 -3 10 0.0782 0.0000
-8 -3 11 -0.3913 0.0000
-8 -3 12 -0.4567 0.0000
-8 -3 13 -0.0965 0.0000
-8 -2 1 0.2731 0.0000
-8 -2 2 0.2202 0.0000
-8 -2 3 0.2479 0.0000
-8 -2 4 0.3301 0.0000
-8 -2 5 0.4695 0.0000
-8 -2 6 0.4914 0.0000
-8 -2 7 0.2269 0.0000
-8 -2 8 0.1469 0.0000
-8 -2 9 0.2925 0.0000
-8 -2 10 0.0271 0.0000
-8 -2 11 -0.4033 0.0000
-8 -2 12 -0.2795 0.0000
-8 -2 13 0.1942 0.0000
-8 -1 1 0.0082 0.0000
-8 -1 2 0.0267 0.0000
-8 -1 3 0.0703 0.0000
-8 -1 4 0.1026 0.0000
-8 -1 5 0.3330 0.0000
-8 -1 6 0.4478 0.0000
-8 -1 7 0.3029 0.0000
-8 -1 8 0.3861 0.0000
-8 -1 9 0.4756 0.0000
-8 -1 10 0.0754 0.0000
-8 -1 11 -0.2678 0.0000
-8 -1 12 -0.0338 0.0000
-8 -1 13 0.3692 0.0000
-8 0 1 -0.1195 0.0000
-8 0 2 -0.0413 0.0000
-8 0 3 -0.0926 0.0000
-8 0 4 -0.0537 0.0000
-8 0 5 0.3413 0.0000
-8 0 6 0.5477 0.0000
-8 0 7 0.4886 0.0000
-8 0 8 0.5660 0.0000
-8 0 9 0.4266 0.0000
-8 0 10 -0.0885 0.0000
-8 0 11 -0.3350 0.0000
-8 0 12 -0.1411 0.0000
-8 0 13 0.0791 0.0000
-8 1 1 0.1042 0.0000
-8 1 2 0.1782 0.0000
-8 1 3 -0.0186 0.0000
-8 1 4 0.0618 0.0000
-8 1 5 0.4953 0.0000
-8 1 6 0.5899 0.0000
-8 1 7 0.4518 0.0000
-8 1 8 0.3788 0.0000
-8 1 9 0.0355 0.0000
-8 1 10 -0.4441 0.0000
-8 1 11 -0.5852 0.0000
-8 1 12 -0.4887 0.0000
-8 2 1 0.3801 0.0000
-8 2 2 0.3308 0.0000
-8 2 3 0.0525 0.0000
-8 2 4 0.2215 0.0000
-8 2 5 0.5326 0.0000
-8 2 6 0.3929 0.0000
-8 2 7 0.1692 0.0000
-8 2 8 0.0058 0.0000
-8 2 9 -0.3826 0.0000
-8 2 10 -0.7247 0.0000
-8 2 11 -0.7817 0.0000
-8 2 12 -0.7094 0.0000
-8 3 1 0.2928 0.0000
-8 3 2 0.1197 0.0000
-8 3 3 0.0207 0.0000
-8 3 4 0.3806 0.0000
-8 3 5 0.5272 0.0000
-8 3 6 0.2469 0.0000
-8 3 7 0.0664 0.0000
-8 3 8 -0.1369 0.0000
-8 3 9 -0.5740 0.0000
-8 3 10 -0.8592 0.0000
-8 3 11 -0.8744 0.0000
-8 3 12 -0.7323 0.0000
-8 4 1 -0.0366 0.0000
-8 4 2 -0.1109 0.0000
-8 4 3 0.2300 0.0000
-8 4 4 0.7553 0.0000
-8 4 5 0.7506 0.0000
-8 4 6 0.5086 0.0000
-8 4 7 0.4146 0.0000
-8 4 8 0.0433 0.0000
-8 4 9 -0.5764 0.0000
-8 4 10 -0.8815 0.0000
-8 5 1 -0.1600 0.0000
-8 5 2 0.0420 0.0000
-8 5 3 0.6937 0.0000
-8 5 4 1.1098 0.0000
-8 5 5 0.9968 0.0000
-8 5 6 0.9409 0.0000
-8 5 7 0.8598 0.0000
-8 5 8 0.2268 0.0000
-8 5 9 -0.4910 0.0000
-8 6 1 -0.0164 0.0000
-8 6 2 0.3117 0.0000
-8 6 3 0.8027 0.0000
-8 6 4 0.8820 0.0000
-8 6 5 0.8216 0.0000
-8 6 6 1.0116 0.0000
-8 6 7 0.8647 0.0000
-8 6 8 0.1329 0.0000
-8 6 9 -0.3286 0.0000
-8 7 1 0.1258 0.0000
-8 7 2 0.2994 0.0000
-8 7 3 0.3693 0.0000
-8 7 4 0.2468 0.0000
-8 7 5 0.3984 0.0000
-8 7 6 0.6932 0.0000
-8 7 7 0.4246 0.0000
-8 7 8 -0.1321 0.0000
-8 7 9 -0.1110 0.0000
-8 8 1 0.1747 0.0000
-8 8 2 0.1736 0.0000
-8 8 3 0.0497 0.0000
-8 8 4 0.0138 0.0000
-8 8 5 0.2698 0.0000
-8 8 6 0.3723 0.0000
-8 8 7 -0.0248 0.0000
-8 9 1 0.1272 0.0000
-8 9 2 0.1872 0.0000
-8 9 3 0.2192 0.0000
-8 9 4 0.3107 0.0000
-8 9 5 0.3900 0.0000
-8 9 6 0.1833 0.0000
-8 10 1 -0.1006 0.0000
-8 10 2 0.1814 0.0000
-8 10 3 0.4270 0.0000
-7 -9 8 -0.6231 0.0000
-7 -9 9 -0.6615 0.0000
-7 -8 3 -0.1293 0.0000
-7 -8 4 -0.6214 0.0000
-7 -8 5 -0.8581 0.0000
-7 -8 6 -0.7536 0.0000
-7 -8 7 -0.7415 0.0000
-7 -8 8 -0.7776 0.0000
-7 -8 9 -0.6191 0.0000
-7 -8 10 -0.2514 0.0000
-7 -8 11 0.1930 0.0000
-7 -7 1 -0.5810 0.0000
-7 -7 2 -0.4068 0.0000
-7 -7 3 -0.4567 0.0000
-7 -7 4 -0.7265 0.0000
-7 -7 5 -0.7529 0.0000
-7 -7 6 -0.6125 0.0000
-7 -7 7 -0.5456 0.0000
-7 -7 8 -0.4446 0.0000
-7 -7 9 -0.2520 0.0000
-7 -7 10 0.1332 0.0000
-7 -7 11 0.6288 0.0000
-7 -6 1 -0.6044 0.0000
-7 -6 2 -0.3054 0.0000
-7 -6 3 -0.0883 0.0000
-7 -6 4 -0.0976 0.0000
-7 -6 5 -0.1009 0.0000
-7 -6 6 -0.1303 0.0000
-7 -6 7 -0.1537 0.0000
-7 -6 8 -0.1379 0.0000
-7 -6 9 -0.0983 0.0000
-7 -6 10 0.2799 0.0000
-7 -6 11 0.8111 0.0000
-7 -6 12 0.7357 0.0000
-7 -6 13 0.3143 0.0000
-7 -5 1 -0.2622 0.0000
-7 -5 2 0.2434 0.0000
-7 -5 3 0.6099 0.0000
-7 -5 4 0.5865 0.0000
-7 -5 5 0.3415 0.0000
-7 -5 6 0.0707 0.0000
-7 -5 7 -0.0514 0.0000
-7 -5 8 -0.2052 0.0000
-7 -5 9 -0.3280 0.0000
-7 -5 10 0.0872 0.0000
-7 -5 11 0.6250 0.0000
-7 -5 12 0.4960 0.0000
-7 -5 13 0.1527 0.0000
-7 -5 14 0.1433 0.0000
-7 -4 1 0.0853 0.0000
-7 -4 2 0.6028 0.0000
-7 -4 3 0.8182 0.0000
-7 -4 4 0.5648 0.0000
-7 -4 5 0.1157 0.0000
-7 -4 6 -0.1305 0.0000
-7 -4 7 -0.1520 0.0000
-7 -4 8 -0.3976 0.0000
-7 -4 9 -0.5783 0.0000
-7 -4 10 -0.0974 0.0000
-7 -4 11 0.3871 0.0000
-7 -4 12 0.2030 0.0000
-7 -4 13 -0.0926 0.0000
-7 -4 14 -0.1130 0.0000
-7 -3 1 0.1238 0.0000
-7 -3 2 0.4383 0.0000
-7 -3 3 0.3854 0.0000
-7 -3 4 -0.0293 0.0000
-7 -3 5 -0.4095 0.0000
-7 -3 6 -0.3429 0.0000
-7 -3 7 -0.1810 0.0000
-7 -3 8 -0.4817 0.0000
-7 -3 9 -0.6218 0.0000
-7 -3 10 -0.0861 0.0000
-7 -3 11 0.2725 0.0000
-7 -3 12 0.0040 0.0000
-7 -3 13 -0.2849 0.0000
-7 -3 14 -0.2555 0.0000
-7 -2 1 -0.0284 0.0000
-7 -2 2 0.1065 0.0000
-7 -2 3 -0.0977 0.0000
-7 -2 4 -0.5276 0.0000
-7 -2 5 -0.7186 0.0000
-7 -2 6 -0.3972 0.0000
-7 -2 7 -0.2308 0.0000
-7 -2 8 -0.5826 0.0000
-7 -2 9 -0.5751 0.0000
-7 -2 10 -0.0136 0.0000
-7 -2 11 0.1716 0.0000
-7 -2 12 -0.1573 0.0000
-7 -2 13 -0.3816 0.0000
-7 -2 14 -0.2016 0.0000
-7 -1 1 -0.0388 0.0000
-7 -1 2 0.0386 0.0000
-7 -1 3 -0.2257 0.0000
-7 -1 4 -0.6755 0.0000
-7 -1 5 -0.8038 0.0000
-7 -1 6 -0.5006 0.0000
-7 -1 7 -0.4881 0.0000
-7 -1 8 -0.7613 0.0000
-7 -1 9 -0.5078 0.0000
-7 -1 10 0.0123 0.0000
-7 -1 11 0.0357 0.0000
-7 -1 12 -0.2388 0.0000
-7 -1 13 -0.3085 0.0000
-7 -1 14 -0.0068 0.0000
-7 0 1 0.1395 0.0000
-7 0 2 0.1399 0.0000
-7 0 3 -0.2120 0.0000
-7 0 4 -0.7282 0.0000
-7 0 5 -0.8935 0.0000
-7 0 6 -0.7246 0.0000
-7 0 7 -0.7770 0.0000
-7 0 8 -0.7851 0.0000
-7 0 9 -0.3268 0.0000
-7 0 10 0.0407 0.0000
-7 0 11 -0.0277 0.0000
-7 0 12 -0.1541 0.0000
-7 0 13 -0.1155 0.0000
-7 0 14 0.1308 0.0000
-7 1 1 0.2580 0.0000
-7 1 2 0.1138 0.0000
-7 1 3 -0.3004 0.0000
-7 1 4 -0.7923 0.0000
-7 1 5 -0.9096 0.0000
-7 1 6 -0.7691 0.0000
-7 1 7 -0.7058 0.0000
-7 1 8 -0.4274 0.0000
-7 1 9 0.0382 0.0000
-7 1 10 0.1690 0.0000
-7 1 11 0.0606 0.0000
-7 1 12 0.0015 0.0000
-7 1 13 -0.0499 0.0000
-7 1 14 0.0088 0.0000
-7 2 1 0.2490 0.0000
-7 2 2 0.0273 0.0000
-7 2 3 -0.3405 0.0000
-7 2 4 -0.6661 0.0000
-7 2 5 -0.6163 0.0000
-7 2 6 -0.4008 0.0000
-7 2 7 -0.1729 0.0000
-7 2 8 0.2545 0.0000
-7 2 9 0.5664 0.0000
-7 2 10 0.4686 0.0000
-7 2 11 0.2828 0.0000
-7 2 12 0.0876 0.0000
-7 2 13 -0.1968 0.0000
-7 3 1 0.2632 0.0000
-7 3 2 0.0475 0.0000
-7 3 3 -0.2521 0.0000
-7 3 4 -0.3834 0.0000
-7 3 5 -0.1802 0.0000
-7 3 6 0.0767 0.0000
-7 3 7 0.4182 0.0000
-7 3 8 0.9153 0.0000
-7 3 9 1.0912 0.0000
-7 3 10 0.8425 0.0000
-7 3 11 0.5379 0.0000
-7 3 12 0.1477 0.0000
-7 3 13 -0.2817 0.0000
-7 4 1 0.2470 0.0000
-7 4 2 -0.0028 0.0000
-7 4 3 -0.2851 0.0000
-7 4 4 -0.2799 0.0000
-7 4 5 -0.0695 0.0000
-7 4 6 0.1159 0.0000
-7 4 7 0.5549 0.0000
-7 4 8 1.1506 0.0000
-7 4 9 1.2656 0.0000
-7 4 10 0.9553 0.0000
-7 4 11 0.6429 0.0000
-7 4 12 0.2696 0.0000
-7 5 1 0.0513 0.0000
-7 5 2 -0.2386 0.0000
-7 5 3 -0.4461 0.0000
-7 5 4 -0.3807 0.0000
-7 5 5 -0.3675 0.0000
-7 5 6 -0.3338 0.0000
-7 5 7 0.2165 0.0000
-7 5 8 0.8578 0.0000
-7 5 9 0.8598 0.0000
-7 5 10 0.5735 0.0000
-7 5 11 0.4830 0.0000
-7 6 1 -0.1786 0.0000
-7 6 2 -0.3637 0.0000
-7 6 3 -0.3814 0.0000
-7 6 4 -0.3829 0.0000
-7 6 5 -0.6930 0.0000
-7 6 6 -0.7546 0.0000
-7 6 7 -0.1240 0.0000
-7 6 8 0.3454 0.0000
-7 6 9 0.1188 0.0000
-7 6 10 -0.0431 0.0000
-7 6 11 0.1976 0.0000
-7 7 1 -0.2859 0.0000
-7 7 2 -0.2589 0.0000
-7 7 3 -0.1171 0.0000
-7 7 4 -0.2917 0.0000
-7 7 5 -0.7922 0.0000
-7 7 6 -0.7460 0.0000
-7 7 7 -0.1244 0.0000
-7 7 8 -0.0114 0.0000
-7 7 9 -0.4186 0.0000
-7 7 10 -0.3719 0.0000
-7 8 1 -0.3893 0.0000
-7 8 2 -0.2240 0.0000
-7 8 3 -0.0639 0.0000
-7 8 4 -0.3408 0.0000
-7 8 5 -0.7093 0.0000
-7 8 6 -0.4175 0.0000
-7 8 7 0.0713 0.0000
-7 8 8 -0.1240 0.0000
-7 8 9 -0.4777 0.0000
-7 9 1 -0.4252 0.0000
-7 9 2 -0.2694 0.0000
-7 9 3 -0.1838 0.0000
-7 9 4 -0.4085 0.0000
-7 9 5 -0.5037 0.0000
-7 9 6 -0.1040 0.0000
-7 9 7 0.1530 0.0000
-7 10 1 -0.0913 0.0000
-7 10 2 -0.0664 0.0000
-7 10 3 -0.1007 0.0000
-7 10 4 -0.2632 0.0000
-7 10 5 -0.2547 0.0000
-7 11 1 0.4230 0.0000
-7 11 2 0.2472 0.0000
-7 11 3 0.0835 0.0000
-6 -10 4 -0.3349 0.0000
-6 -10 5 -0.3141 0.0000
-6 -9 2 -0.6080 0.0000
-6 -9 3 -0.6124 0.0000
-6 -9 4 -0.3167 0.0000
-6 -9 5 -0.2275 0.0000
-6 -9 6 -0.2022 0.0000
-6 -9 7 0.0443 0.0000
-6 -9 8 0.2847 0.0000
-6 -9 9 0.2534 0.0000
-6 -9 10 -0.0411 0.0000
-6 -9 11 -0.2849 0.0000
-6 -9 12 -0.0210 0.0000
-6 -8 1 -0.0339 0.0000
-6 -8 2 -0.4044 0.0000
-6 -8 3 -0.2240 0.0000
-6 -8 4 0.1165 0.0000
-6 -8 5 0.2251 0.0000
-6 -8 6 0.3147 0.0000
-6 -8 7 0.4363 0.0000
-6 -8 8 0.3992 0.0000
-6 -8 9 0.1805 0.0000
-6 -8 10 -0.2087 0.0000
-6 -8 11 -0.3686 0.0000
-6 -8 12 0.2112 0.0000
-6 -8 13 0.8998 0.0000
-6 -7 1 0.2538 0.0000
-6 -7 2 0.0114 0.0000
-6 -7 3 0.1707 0.0000
-6 -7 4 0.3945 0.0000
-6 -7 5 0.5184 0.0000
-6 -7 6 0.6260 0.0000
-6 -7 7 0.5671 0.0000
-6 -7 8 0.3581 0.0000
-6 -7 9 0.0363 0.0000
-6 -7 10 -0.4911 0.0000
-6 -7 11 -0.6070 0.0000
-6 -7 12 0.1304 0.0000
-6 -7 13 0.6807 0.0000
-6 -7 14 0.3488 0.0000
-6 -6 1 0.3143 0.0000
-6 -6 2 0.0041 0.0000
-6 -6 3 -0.0013 0.0000
-6 -6 4 0.1791 0.0000
-6 -6 5 0.4761 0.0000
-6 -6 6 0.6740 0.0000
-6 -6 7 0.5819 0.0000
-6 -6 8 0.4094 0.0000
-6 -6 9 0.0100 0.0000
-6 -6 10 -0.7186 0.0000
-6 -6 11 -0.8780 0.0000
-6 -6 12 -0.2691 0.0000
-6 -6 13 -0.0842 0.0000
-6 -6 14 -0.4791 0.0000
-6 -5 1 -0.0101 0.0000
-6 -5 2 -0.4387 0.0000
-6 -5 3 -0.4828 0.0000
-6 -5 4 -0.1242 0.0000
-6 -5 5 0.4123 0.0000
-6 -5 6 0.6512 0.0000
-6 -5 7 0.6054 0.0000
-6 -5 8 0.5585 0.0000
-6 -5 9 0.0776 0.0000
-6 -5 10 -0.7875 0.0000
-6 -5 11 -0.9888 0.0000
-6 -5 12 -0.6343 0.0000
-6 -5 13 -0.6869 0.0000
-6 -5 14 -0.8264 0.0000
-6 -5 15 -0.4710 0.0000
-6 -4 1 -0.3767 0.0000
-6 -4 2 -0.7501 0.0000
-6 -4 3 -0.6244 0.0000
-6 -4 4 -0.0339 0.0000
-6 -4 5 0.5187 0.0000
-6 -4 6 0.5802 0.0000
-6 -4 7 0.5594 0.0000
-6 -4 8 0.6395 0.0000
-6 -4 9 0.1437 0.0000
-6 -4 10 -0.6532 0.0000
-6 -4 11 -0.7812 0.0000
-6 -4 12 -0.5620 0.0000
-6 -4 13 -0.5536 0.0000
-6 -4 14 -0.3903 0.0000
-6 -4 15 -0.0631 0.0000
-6 -3 1 -0.4318 0.0000
-6 -3 2 -0.6068 0.0000
-6 -3 3 -0.2486 0.0000
-6 -3 4 0.4241 0.0000
-6 -3 5 0.7087 0.0000
-6 -3 6 0.4880 0.0000
-6 -3 7 0.5177 0.0000
-6 -3 8 0.6953 0.0000
-6 -3 9 0.2603 0.0000
-6 -3 10 -0.2991 0.0000
-6 -3 11 -0.2728 0.0000
-6 -3 12 -0.0641 0.0000
-6 -3 13 0.0640 0.0000
-6 -3 14 0.1869 0.0000
-6 -3 15 0.0801 0.0000
-6 -2 1 -0.2377 0.0000
-6 -2 2 -0.2317 0.0000
-6 -2 3 0.3245 0.0000
-6 -2 4 0.9519 0.0000
-6 -2 5 0.9200 0.0000
-6 -2 6 0.5561 0.0000
-6 -2 7 0.6672 0.0000
-6 -2 8 0.8137 0.0000
-6 -2 9 0.4180 0.0000
-6 -2 10 0.1019 0.0000
-6 -2 11 0.2059 0.0000
-6 -2 12 0.3410 0.0000
-6 -2 13 0.3865 0.0000
-6 -2 14 0.1736 0.0000
-6 -2 15 -0.2950 0.0000
-6 -1 1 -0.1166 0.0000
-6 -1 2 0.0604 0.0000
-6 -1 3 0.8046 0.0000
-6 -1 4 1.3626 0.0000
-6 -1 5 1.1632 0.0000
-6 -1 6 0.8390 0.0000
-6 -1 7 0.9312 0.0000
-6 -1 8 0.8538 0.0000
-6 -1 9 0.4452 0.0000
-6 -1 10 0.2737 0.0000
-6 -1 11 0.2870 0.0000
-6 -1 12 0.2296 0.0000
-6 -1 13 0.0928 0.0000
-6 -1 14 -0.3305 0.0000
-6 0 1 -0.1960 0.0000
-6 0 2 0.2318 0.0000
-6 0 3 1.1127 0.0000
-6 0 4 1.5744 0.0000
-6 0 5 1.3550 0.0000
-6 0 6 1.1199 0.0000
-6 0 7 1.0285 0.0000
-6 0 8 0.6675 0.0000
-6 0 9 0.2943 0.0000
-6 0 10 0.1889 0.0000
-6 0 11 0.0390 0.0000
-6 0 12 -0.1460 0.0000
-6 0 13 -0.2994 0.0000
-6 0 14 -0.6227 0.0000
-6 1 1 -0.3544 0.0000
-6 1 2 0.3146 0.0000
-6 1 3 1.1580 0.0000
-6 1 4 1.4728 0.0000
-6 1 5 1.3089 0.0000
-6 1 6 1.1142 0.0000
-6 1 7 0.7853 0.0000
-6 1 8 0.2936 0.0000
-6 1 9 0.0880 0.0000
-6 1 10 0.0577 0.0000
-6 1 11 -0.1280 0.0000
-6 1 12 -0.2067 0.0000
-6 1 13 -0.1971 0.0000
-6 1 14 -0.3569 0.0000
-6 2 1 -0.5158 0.0000
-6 2 2 0.2260 0.0000
-6 2 3 0.8646 0.0000
-6 2 4 1.0370 0.0000
-6 2 5 0.9422 0.0000
-6 2 6 0.7153 0.0000
-6 2 7 0.2166 0.0000
-6 2 8 -0.1966 0.0000
-6 2 9 -0.1385 0.0000
-6 2 10 -0.0231 0.0000
-6 2 11 -0.0468 0.0000
-6 2 12 0.1140 0.0000
-6 2 13 0.2396 0.0000
-6 3 1 -0.5895 0.0000
-6 3 2 0.0773 0.0000
-6 3 3 0.4793 0.0000
-6 3 4 0.5441 0.0000
-6 3 5 0.4590 0.0000
-6 3 6 0.1219 0.0000
-6 3 7 -0.4694 0.0000
-6 3 8 -0.6967 0.0000
-6 3 9 -0.3769 0.0000
-6 3 10 -0.1051 0.0000
-6 3 11 0.0386 0.0000
-6 3 12 0.3024 0.0000
-6 3 13 0.3812 0.0000
-6 4 1 -0.3338 0.0000
-6 4 2 0.1878 0.0000
-6 4 3 0.3636 0.0000
-6 4 4 0.3196 0.0000
-6 4 5 0.1807 0.0000
-6 4 6 -0.2929 0.0000
-6 4 7 -0.9045 0.0000
-6 4 8 -0.9110 0.0000
-6 4 9 -0.4118 0.0000
-6 4 10 -0.1423 0.0000
-6 4 11 -0.0746 0.0000
-6 4 12 0.0600 0.0000
-6 5 1 0.1805 0.0000
-6 5 2 0.4585 0.0000
-6 5 3 0.4007 0.0000
-6 5 4 0.3049 0.0000
-6 5 5 0.1744 0.0000
-6 5 6 -0.3501 0.0000
-6 5 7 -0.8558 0.0000
-6 5 8 -0.6042 0.0000
-6 5 9 -0.0707 0.0000
-6 5 10 -0.0545 0.0000
-6 5 11 -0.2675 0.0000
-6 5 12 -0.2896 0.0000
-6 6 1 0.4015 0.0000
-6 6 2 0.3907 0.0000
-6 6 3 0.2117 0.0000
-6 6 4 0.2546 0.0000
-6 6 5 0.2548 0.0000
-6 6 6 -0.2189 0.0000
-6 6 7 -0.5019 0.0000
-6 6 8 -0.0278 0.0000
-6 6 9 0.3409 0.0000
-6 6 10 0.0005 0.0000
-6 6 11 -0.3676 0.0000
-6 7 1 0.1386 0.0000
-6 7 2 -0.0117 0.0000
-6 7 3 -0.0903 0.0000
-6 7 4 0.2038 0.0000
-6 7 5 0.2854 0.0000
-6 7 6 -0.1577 0.0000
-6 7 7 -0.2435 0.0000
-6 7 8 0.2493 0.0000
-6 7 9 0.2969 0.0000
-6 7 10 -0.2024 0.0000
-6 8 1 -0.1154 0.0000
-6 8 2 -0.2273 0.0000
-6 8 3 -0.1314 0.0000
-6 8 4 0.2659 0.0000
-6 8 5 0.2394 0.0000
-6 8 6 -0.2258 0.0000
-6 8 7 -0.2409 0.0000
-6 8 8 0.0337 0.0000
-6 8 9 -0.1913 0.0000
-6 9 1 -0.1273 0.0000
-6 9 2 -0.1969 0.0000
-6 9 3 -0.0351 0.0000
-6 9 4 0.2817 0.0000
-6 9 5 0.1311 0.0000
-6 9 6 -0.2614 0.0000
-6 9 7 -0.2679 0.0000
-6 9 8 -0.2531 0.0000
-6 10 1 -0.2350 0.0000
-6 10 2 -0.2925 0.0000
-6 10 3 -0.1116 0.0000
-6 10 4 0.1527 0.0000
-6 10 5 0.0695 0.0000
-6 10 6 -0.1044 0.0000
-6 11 1 -0.4555 0.0000
-6 11 2 -0.4218 0.0000
-6 11 3 -0.1860 0.0000
-6 11 4 0.0874 0.0000
-6 11 5 0.1342 0.0000
-5 -11 4 -0.0483 0.0000
-5 -11 5 -0.0046 0.0000
-5 -11 6 0.1964 0.0000
-5 -11 7 0.1943 0.0000
-5 -11 8 -0.0717 0.0000
-5 -10 1 0.2006 0.0000
-5 -10 2 0.3566 0.0000
-5 -10 3 0.3271 0.0000
-5 -10 4 0.2745 0.0000
-5 -10 5 0.3725 0.0000
-5 -10 6 0.3970 0.0000
-5 -10 7 0.1235 0.0000
-5 -10 8 -0.2324 0.0000
-5 -10 9 -0.3740 0.0000
-5 -9 1 0.3045 0.0000
-5 -9 2 0.5028 0.0000
-5 -9 3 0.4633 0.0000
-5 -9 4 0.4260 0.0000
-5 -9 5 0.4285 0.0000
-5 -9 6 0.2549 0.0000
-5 -9 7 -0.0320 0.0000
-5 -9 8 -0.2233 0.0000
-5 -9 9 -0.2183 0.0000
-5 -9 10 0.0255 0.0000
-5 -9 11 0.2088 0.0000
-5 -9 12 0.0314 0.0000
-5 -9 13 -0.1075 0.0000
-5 -8 1 0.1323 0.0000
-5 -8 2 0.3172 0.0000
-5 -8 3 0.2953 0.0000
-5 -8 4 0.2403 0.0000
-5 -8 5 0.0943 0.0000
-5 -8 6 -0.1039 0.0000
-5 -8 7 -0.1307 0.0000
-5 -8 8 -0.0446 0.0000
-5 -8 9 0.1464 0.0000
-5 -8 10 0.4560 0.0000
-5 -8 11 0.3147 0.0000
-5 -8 12 -0.4024 0.0000
-5 -8 13 -0.7237 0.0000
-5 -8 14 -0.3281 0.0000
-5 -7 1 -0.0667 0.0000
-5 -7 2 0.1309 0.0000
-5 -7 3 0.1294 0.0000
-5 -7 4 -0.0572 0.0000
-5 -7 5 -0.3980 0.0000
-5 -7 6 -0.5148 0.0000
-5 -7 7 -0.2791 0.0000
-5 -7 8 -0.0097 0.0000
-5 -7 9 0.3477 0.0000
-5 -7 10 0.6270 0.0000
-5 -7 11 0.0758 0.0000
-5 -7 12 -0.8833 0.0000
-5 -7 13 -0.9527 0.0000
-5 -7 14 -0.3556 0.0000
-5 -7 15 -0.1772 0.0000
-5 -6 1 0.0930 0.0000
-5 -6 2 0.2818 0.0000
-5 -6 3 0.1612 0.0000
-5 -6 4 -0.3298 0.0000
-5 -6 5 -0.8778 0.0000
-5 -6 6 -0.9155 0.0000
-5 -6 7 -0.5954 0.0000
-5 -6 8 -0.2743 0.0000
-5 -6 9 0.2313 0.0000
-5 -6 10 0.4821 0.0000
-5 -6 11 -0.1556 0.0000
-5 -6 12 -0.7346 0.0000
-5 -6 13 -0.3296 0.0000
-5 -6 14 0.1560 0.0000
-5 -6 15 -0.0359 0.0000
-5 -5 1 0.4823 0.0000
-5 -5 2 0.5550 0.0000
-5 -5 3 0.1753 0.0000
-5 -5 4 -0.6172 0.0000
-5 -5 5 -1.2036 0.0000
-5 -5 6 -1.1314 0.0000
-5 -5 7 -0.8547 0.0000
-5 -5 8 -0.5327 0.0000
-5 -5 9 0.0864 0.0000
-5 -5 10 0.3734 0.0000
-5 -5 11 0.0321 0.0000
-5 -5 12 0.0521 0.0000
-5 -5 13 0.5408 0.0000
-5 -5 14 0.5032 0.0000
-5 -5 15 0.0124 0.0000
-5 -4 1 0.6551 0.0000
-5 -4 2 0.5469 0.0000
-5 -4 3 -0.0789 0.0000
-5 -4 4 -0.9549 0.0000
-5 -4 5 -1.3104 0.0000
-5 -4 6 -1.0697 0.0000
-5 -4 7 -0.8561 0.0000
-5 -4 8 -0.5382 0.0000
-5 -4 9 0.0904 0.0000
-5 -4 10 0.3926 0.0000
-5 -4 11 0.3765 0.0000
-5 -4 12 0.6081 0.0000
-5 -4 13 0.6549 0.0000
-5 -4 14 0.1876 0.0000
-5 -4 15 -0.1296 0.0000
-5 -3 1 0.4367 0.0000
-5 -3 2 0.1557 0.0000
-5 -3 3 -0.6628 0.0000
-5 -3 4 -1.4325 0.0000
-5 -3 5 -1.4240 0.0000
-5 -3 6 -1.0136 0.0000
-5 -3 7 -0.8122 0.0000
-5 -3 8 -0.4929 0.0000
-5 -3 9 0.0104 0.0000
-5 -3 10 0.2239 0.0000
-5 -3 11 0.3051 0.0000
-5 -3 12 0.3338 0.0000
-5 -3 13 -0.0300 0.0000
-5 -3 14 -0.3262 0.0000
-5 -3 15 -0.1073 0.0000
-5 -3 16 0.0228 0.0000
-5 -2 1 0.0765 0.0000
-5 -2 2 -0.4391 0.0000
-5 -2 3 -1.4915 0.0000
-5 -2 4 -2.1113 0.0000
-5 -2 5 -1.7798 0.0000
-5 -2 6 -1.2283 0.0000
-5 -2 7 -0.9399 0.0000
-5 -2 8 -0.5990 0.0000
-5 -2 9 -0.2861 0.0000
-5 -2 10 -0.1857 0.0000
-5 -2 11 -0.1160 0.0000
-5 -2 12 -0.2722 0.0000
-5 -2 13 -0.5798 0.0000
-5 -2 14 -0.3216 0.0000
-5 -2 15 0.2180 0.0000
-5 -1 1 -0.0770 0.0000
-5 -1 2 -0.9954 0.0000
-5 -1 3 -2.2902 0.0000
-5 -1 4 -2.7330 0.0000
-5 -1 5 -2.1739 0.0000
-5 -1 6 -1.5018 0.0000
-5 -1 7 -1.0481 0.0000
-5 -1 8 -0.6799 0.0000
-5 -1 9 -0.5148 0.0000
-5 -1 10 -0.4141 0.0000
-5 -1 11 -0.2834 0.0000
-5 -1 12 -0.4184 0.0000
-5 -1 13 -0.4351 0.0000
-5 -1 14 0.1299 0.0000
-5 -1 15 0.4845 0.0000
-5 0 1 0.0476 0.0000
-5 0 2 -1.3086 0.0000
-5 0 3 -2.6323 0.0000
-5 0 4 -2.8287 0.0000
-5 0 5 -2.1674 0.0000
-5 0 6 -1.4383 0.0000
-5 0 7 -0.8546 0.0000
-5 0 8 -0.5090 0.0000
-5 0 9 -0.4183 0.0000
-5 0 10 -0.2312 0.0000
-5 0 11 -0.0521 0.0000
-5 0 12 -0.1714 0.0000
-5 0 13 -0.0760 0.0000
-5 0 14 0.3630 0.0000
-5 1 1 0.2854 0.0000
-5 1 2 -1.2115 0.0000
-5 1 3 -2.2309 0.0000
-5 1 4 -2.1998 0.0000
-5 1 5 -1.6157 0.0000
-5 1 6 -0.9501 0.0000
-5 1 7 -0.3770 0.0000
-5 1 8 -0.1596 0.0000
-5 1 9 -0.1502 0.0000
-5 1 10 0.0287 0.0000
-5 1 11 0.0776 0.0000
-5 1 12 -0.1559 0.0000
-5 1 13 -0.1193 0.0000
-5 1 14 0.1092 0.0000
-5 2 1 0.5094 0.0000
-5 2 2 -0.7095 0.0000
-5 2 3 -1.2786 0.0000
-5 2 4 -1.1803 0.0000
-5 2 5 -0.8082 0.0000
-5 2 6 -0.2827 0.0000
-5 2 7 0.1419 0.0000
-5 2 8 0.1259 0.0000
-5 2 9 -0.0179 0.0000
-5 2 10 0.0169 0.0000
-5 2 11 -0.1299 0.0000
-5 2 12 -0.4124 0.0000
-5 2 13 -0.3643 0.0000
-5 3 1 0.5503 0.0000
-5 3 2 -0.2213 0.0000
-5 3 3 -0.4601 0.0000
-5 3 4 -0.4229 0.0000
-5 3 5 -0.2094 0.0000
-5 3 6 0.2276 0.0000
-5 3 7 0.4546 0.0000
-5 3 8 0.1786 0.0000
-5 3 9 -0.0943 0.0000
-5 3 10 -0.1144 0.0000
-5 3 11 -0.2344 0.0000
-5 3 12 -0.3515 0.0000
-5 3 13 -0.2318 0.0000
-5 4 1 0.1255 0.0000
-5 4 2 -0.2869 0.0000
-5 4 3 -0.3416 0.0000
-5 4 4 -0.3068 0.0000
-5 4 5 -0.0513 0.0000
-5 4 6 0.3983 0.0000
-5 4 7 0.4276 0.0000
-5 4 8 -0.0421 0.0000
-5 4 9 -0.2599 0.0000
-5 4 10 -0.0692 0.0000
-5 4 11 0.0702 0.0000
-5 4 12 0.1475 0.0000
-5 5 1 -0.6594 0.0000
-5 5 2 -0.8039 0.0000
-5 5 3 -0.6956 0.0000
-5 5 4 -0.5390 0.0000
-5 5 5 -0.1225 0.0000
-5 5 6 0.3206 0.0000
-5 5 7 0.1110 0.0000
-5 5 8 -0.4486 0.0000
-5 5 9 -0.4253 0.0000
-5 5 10 0.0617 0.0000
-5 5 11 0.3552 0.0000
-5 5 12 0.4224 0.0000
-5 6 1 -1.1577 0.0000
-5 6 2 -1.0766 0.0000
-5 6 3 -0.8374 0.0000
-5 6 4 -0.5817 0.0000
-5 6 5 -0.0915 0.0000
-5 6 6 0.2011 0.0000
-5 6 7 -0.2622 0.0000
-5 6 8 -0.7647 0.0000
-5 6 9 -0.4758 0.0000
-5 6 10 0.0487 0.0000
-5 6 11 0.1646 0.0000
-5 7 1 -0.9942 0.0000
-5 7 2 -0.7883 0.0000
-5 7 3 -0.5584 0.0000
-5 7 4 -0.3466 0.0000
-5 7 5 0.0662 0.0000
-5 7 6 0.1506 0.0000
-5 7 7 -0.3767 0.0000
-5 7 8 -0.6089 0.0000
-5 7 9 -0.1968 0.0000
-5 7 10 0.0031 0.0000
-5 8 1 -0.4765 0.0000
-5 8 2 -0.2682 0.0000
-5 8 3 -0.1767 0.0000
-5 8 4 -0.0970 0.0000
-5 8 5 0.1888 0.0000
-5 8 6 0.1976 0.0000
-5 8 7 -0.0697 0.0000
-5 8 8 0.0816 0.0000
-5 8 9 0.3771 0.0000
-5 8 10 0.1109 0.0000
-5 9 1 0.0364 0.0000
-5 9 2 0.1889 0.0000
-5 9 3 0.1199 0.0000
-5 9 4 0.0684 0.0000
-5 9 5 0.2388 0.0000
-5 9 6 0.3094 0.0000
-5 9 7 0.4162 0.0000
-5 9 8 0.7659 0.0000
-5 10 1 0.4389 0.0000
-5 10 2 0.5243 0.0000
-5 10 3 0.3523 0.0000
-5 10 4 0.2010 0.0000
-5 10 5 0.2432 0.0000
-5 10 6 0.3417 0.0000
-5 10 7 0.6028 0.0000
-5 11 1 0.5570 0.0000
-5 11 2 0.6110 0.0000
-5 11 3 0.4471 0.0000
-5 11 4 0.2595 0.0000
-5 11 5 0.1730 0.0000
-5 12 1 0.3128 0.0000
-5 12 2 0.4156 0.0000
-5 12 3 0.3552 0.0000
-4 -12 5 0.5999 0.0000
-4 -12 6 0.3951 0.0000
-4 -12 7 0.2147 0.0000
-4 -12 8 0.1130 0.0000
-4 -12 9 -0.1193 0.0000
-4 -11 1 0.2174 0.0000
-4 -11 2 0.1777 0.0000
-4 -11 3 0.1771 0.0000
-4 -11 4 0.2783 0.0000
-4 -11 5 0.2477 0.0000
-4 -11 6 0.1284 0.0000
-4 -11 7 0.1450 0.0000
-4 -11 8 0.1570 0.0000
-4 -11 9 0.0750 0.0000
-4 -11 10 0.0486 0.0000
-4 -11 11 0.0008 0.0000
-4 -11 12 -0.1826 0.0000
-4 -10 1 -0.0183 0.0000
-4 -10 2 -0.1490 0.0000
-4 -10 3 -0.1760 0.0000
-4 -10 4 -0.1174 0.0000
-4 -10 5 -0.0933 0.0000
-4 -10 6 -0.0083 0.0000
-4 -10 7 0.1532 0.0000
-4 -10 8 0.2810 0.0000
-4 -10 9 0.3689 0.0000
-4 -10 10 0.3215 0.0000
-4 -10 11 0.0623 0.0000
-4 -10 12 -0.1742 0.0000
-4 -10 13 -0.1725 0.0000
-4 -9 1 -0.2127 0.0000
-4 -9 2 -0.3581 0.0000
-4 -9 3 -0.3854 0.0000
-4 -9 4 -0.3026 0.0000
-4 -9 5 -0.1469 0.0000
-4 -9 6 0.0163 0.0000
-4 -9 7 0.1151 0.0000
-4 -9 8 0.2420 0.0000
-4 -9 9 0.3107 0.0000
-4 -9 10 0.0877 0.0000
-4 -9 11 -0.1594 0.0000
-4 -9 12 -0.0846 0.0000
-4 -9 13 0.0351 0.0000
-4 -9 14 -0.0939 0.0000
-4 -8 1 -0.0445 0.0000
-4 -8 2 -0.2587 0.0000
-4 -8 3 -0.3283 0.0000
-4 -8 4 -0.1669 0.0000
-4 -8 5 0.0922 0.0000
-4 -8 6 0.1355 0.0000
-4 -8 7 0.0174 0.0000
-4 -8 8 0.0049 0.0000
-4 -8 9 -0.1271 0.0000
-4 -8 10 -0.4044 0.0000
-4 -8 11 -0.2392 0.0000
-4 -8 12 0.2465 0.0000
-4 -8 13 0.2450 0.0000
-4 -8 14 -0.1786 0.0000
-4 -7 1 0.1355 0.0000
-4 -7 2 -0.1544 0.0000
-4 -7 3 -0.1506 0.0000
-4 -7 4 0.2364 0.0000
-4 -7 5 0.5800 0.0000
-4 -7 6 0.4360 0.0000
-4 -7 7 0.1188 0.0000
-4 -7 8 -0.0857 0.0000
-4 -7 9 -0.4164 0.0000
-4 -7 10 -0.5153 0.0000
-4 -7 11 0.0726 0.0000
-4 -7 12 0.5272 0.0000
-4 -7 13 0.1461 0.0000
-4 -7 14 -0.2992 0.0000
-4 -7 15 -0.0961 0.0000
-4 -6 1 -0.0310 0.0000
-4 -6 2 -0.2027 0.0000
-4 -6 3 0.1151 0.0000
-4 -6 4 0.8177 0.0000
-4 -6 5 1.1798 0.0000
-4 -6 6 0.8844 0.0000
-4 -6 7 0.4795 0.0000
-4 -6 8 0.1319 0.0000
-4 -6 9 -0.2732 0.0000
-4 -6 10 -0.1913 0.0000
-4 -6 11 0.3352 0.0000
-4 -6 12 0.2855 0.0000
-4 -6 13 -0.2901 0.0000
-4 -6 14 -0.3420 0.0000
-4 -6 15 0.1697 0.0000
-4 -5 1 -0.3520 0.0000
-4 -5 2 -0.1999 0.0000
-4 -5 3 0.5126 0.0000
-4 -5 4 1.3857 0.0000
-4 -5 5 1.6009 0.0000
-4 -5 6 1.1796 0.0000
-4 -5 7 0.7666 0.0000
-4 -5 8 0.3686 0.0000
-4 -5 9 -0.0072 0.0000
-4 -5 10 0.0392 0.0000
-4 -5 11 0.1052 0.0000
-4 -5 12 -0.3161 0.0000
-4 -5 13 -0.5613 0.0000
-4 -5 14 -0.1640 0.0000
-4 -5 15 0.2560 0.0000
-4 -4 1 -0.3973 0.0000
-4 -4 2 0.1376 0.0000
-4 -4 3 1.1585 0.0000
-4 -4 4 1.9621 0.0000
-4 -4 5 1.8547 0.0000
-4 -4 6 1.2567 0.0000
-4 -4 7 0.8096 0.0000
-4 -4 8 0.4223 0.0000
-4 -4 9 0.1095 0.0000
-4 -4 10 -0.0231 0.0000
-4 -4 11 -0.3001 0.0000
-4 -4 12 -0.5437 0.0000
-4 -4 13 -0.2665 0.0000
-4 -4 14 0.0940 0.0000
-4 -4 15 0.0503 0.0000
-4 -3 1 0.0956 0.0000
-4 -3 2 1.0736 0.0000
-4 -3 3 2.3721 0.0000
-4 -3 4 2.9443 0.0000
-4 -3 5 2.3583 0.0000
-4 -3 6 1.4354 0.0000
-4 -3 7 0.8418 0.0000
-4 -3 8 0.4718 0.0000
-4 -3 9 0.2138 0.0000
-4 -3 10 -0.0491 0.0000
-4 -3 11 -0.2972 0.0000
-4 -3 12 -0.1047 0.0000
-4 -3 13 0.2865 0.0000
-4 -3 14 0.1045 0.0000
-4 -3 15 -0.2981 0.0000
-4 -3 16 -0.1581 0.0000
-4 -2 1 1.0242 0.0000
-4 -2 2 2.6124 0.0000
-4 -2 3 4.1739 0.0000
-4 -2 4 4.3505 0.0000
-4 -2 5 3.1399 0.0000
-4 -2 6 1.7755 0.0000
-4 -2 7 0.9877 0.0000
-4 -2 8 0.6409 0.0000
-4 -2 9 0.4139 0.0000
-4 -2 10 0.1250 0.0000
-4 -2 11 0.0863 0.0000
-4 -2 12 0.4845 0.0000
-4 -2 13 0.5141 0.0000
-4 -2 14 -0.1613 0.0000
-4 -2 15 -0.4810 0.0000
-4 -1 1 1.8549 0.0000
-4 -1 2 4.1088 0.0000
-4 -1 4 5.2878 0.0000
-4 -1 5 3.4915 0.0000
-4 -1 6 1.8377 0.0000
-4 -1 7 1.0015 0.0000
-4 -1 8 0.7177 0.0000
-4 -1 9 0.4977 0.0000
-4 -1 10 0.2502 0.0000
-4 -1 11 0.3852 0.0000
-4 -1 12 0.7024 0.0000
-4 -1 13 0.3485 0.0000
-4 -1 14 -0.3690 0.0000
-4 -1 15 -0.3833 0.0000
-4 0 1 1.9891 0.0000
-4 0 2 4.5814 0.0000
-4 0 3 5.7776 0.0000
-4 0 4 4.7927 0.0000
-4 0 5 2.8097 0.0000
-4 0 6 1.2964 0.0000
-4 0 7 0.6587 0.0000
-4 0 8 0.4873 0.0000
-4 0 9 0.3076 0.0000
-4 0 10 0.2009 0.0000
-4 0 11 0.4841 0.0000
-4 0 12 0.6783 0.0000
-4 0 13 0.2198 0.0000
-4 0 14 -0.2574 0.0000
-4 1 1 1.3185 0.0000
-4 1 2 3.6171 0.0000
-4 1 3 4.1475 0.0000
-4 1 4 2.9437 0.0000
-4 1 5 1.3508 0.0000
-4 1 6 0.3770 0.0000
-4 1 7 0.0961 0.0000
-4 1 8 0.0980 0.0000
-4 1 9 0.0859 0.0000
-4 1 10 0.2443 0.0000
-4 1 11 0.6652 0.0000
-4 1 12 0.7817 0.0000
-4 1 13 0.3927 0.0000
-4 1 14 0.1066 0.0000
-4 2 1 0.3271 0.0000
-4 2 2 1.8227 0.0000
-4 2 3 1.7886 0.0000
-4 2 4 0.8374 0.0000
-4 2 5 -0.0250 0.0000
-4 2 6 -0.3710 0.0000
-4 2 7 -0.2912 0.0000
-4 2 8 -0.0618 0.0000
-4 2 9 0.1647 0.0000
-4 2 10 0.5246 0.0000
-4 2 11 0.9163 0.0000
-4 2 12 0.9101 0.0000
-4 2 13 0.6158 0.0000
-4 3 1 -0.2466 0.0000
-4 3 2 0.3948 0.0000
-4 3 3 0.1272 0.0000
-4 3 4 -0.3584 0.0000
-4 3 5 -0.6086 0.0000
-4 3 6 -0.5484 0.0000
-4 3 7 -0.2222 0.0000
-4 3 8 0.1647 0.0000
-4 3 9 0.4370 0.0000
-4 3 10 0.6681 0.0000
-4 3 11 0.7838 0.0000
-4 3 12 0.6412 0.0000
-4 3 13 0.5011 0.0000
-4 4 1 0.0530 0.0000
-4 4 2 0.1319 0.0000
-4 4 3 -0.1500 0.0000
-4 4 4 -0.3539 0.0000
-4 4 5 -0.4102 0.0000
-4 4 6 -0.2476 0.0000
-4 4 7 0.1720 0.0000
-4 4 8 0.5045 0.0000
-4 4 9 0.4964 0.0000
-4 4 10 0.3483 0.0000
-4 4 11 0.1859 0.0000
-4 4 12 0.0488 0.0000
-4 5 1 0.9143 0.0000
-4 5 2 0.7070 0.0000
-4 5 3 0.3793 0.0000
-4 5 4 0.1171 0.0000
-4 5 5 -0.0692 0.0000
-4 5 6 0.0786 0.0000
-4 5 7 0.5193 0.0000
-4 5 8 0.6466 0.0000
-4 5 9 0.3030 0.0000
-4 5 10 -0.0366 0.0000
-4 5 11 -0.1915 0.0000
-4 5 12 -0.2153 0.0000
-4 6 1 1.5118 0.0000
-4 6 2 1.1276 0.0000
-4 6 3 0.6679 0.0000
-4 6 4 0.2252 0.0000
-4 6 5 -0.0560 0.0000
-4 6 6 0.1886 0.0000
-4 6 7 0.6509 0.0000
-4 6 8 0.6058 0.0000
-4 6 9 0.2311 0.0000
-4 6 10 0.1170 0.0000
-4 6 11 0.1517 0.0000
-4 7 1 1.4016 0.0000
-4 7 2 0.8968 0.0000
-4 7 3 0.3933 0.0000
-4 7 4 -0.0316 0.0000
-4 7 5 -0.1566 0.0000
-4 7 6 0.2520 0.0000
-4 7 7 0.6299 0.0000
-4 7 8 0.4919 0.0000
-4 7 9 0.3879 0.0000
-4 7 10 0.6327 0.0000
-4 7 11 0.6943 0.0000
-4 8 1 0.8127 0.0000
-4 8 2 0.3150 0.0000
-4 8 3 0.0018 0.0000
-4 8 4 -0.1338 0.0000
-4 8 5 0.0116 0.0000
-4 8 6 0.3932 0.0000
-4 8 7 0.4645 0.0000
-4 8 8 0.2683 0.0000
-4 8 9 0.4575 0.0000
-4 8 10 0.8098 0.0000
-4 9 1 0.1434 0.0000
-4 9 2 -0.1769 0.0000
-4 9 3 -0.1466 0.0000
-4 9 4 0.0701 0.0000
-4 9 5 0.3446 0.0000
-4 9 6 0.4399 0.0000
-4 9 7 0.1478 0.0000
-4 9 8 -0.0251 0.0000
-4 9 9 0.2931 0.0000
-4 10 1 -0.2998 0.0000
-4 10 2 -0.4035 0.0000
-4 10 3 -0.1319 0.0000
-4 10 4 0.2540 0.0000
-4 10 5 0.4545 0.0000
-4 10 6 0.2510 0.0000
-4 10 7 -0.1596 0.0000
-4 11 1 -0.3182 0.0000
-4 11 2 -0.3936 0.0000
-4 11 3 -0.1494 0.0000
-4 11 4 0.1756 0.0000
-4 11 5 0.2415 0.0000
-4 12 1 -0.0760 0.0000
-4 12 2 -0.3107 0.0000
-4 12 3 -0.2277 0.0000
-4 13 1 0.0123 0.0000
-3 -12 2 -0.1452 0.0000
-3 -12 3 -0.1593 0.0000
-3 -12 4 -0.3954 0.0000
-3 -12 5 -0.4238 0.0000
-3 -12 6 -0.2935 0.0000
-3 -12 7 -0.1909 0.0000
-3 -12 8 0.0551 0.0000
-3 -12 9 0.2285 0.0000
-3 -12 10 0.0742 0.0000
-3 -12 11 0.0300 0.0000
-3 -11 1 -0.4141 0.0000
-3 -11 2 -0.1604 0.0000
-3 -11 3 -0.1548 0.0000
-3 -11 4 -0.3290 0.0000
-3 -11 5 -0.3218 0.0000
-3 -11 6 -0.2505 0.0000
-3 -11 7 -0.1411 0.0000
-3 -11 8 0.0295 0.0000
-3 -11 9 -0.0240 0.0000
-3 -11 10 -0.1453 0.0000
-3 -11 11 0.1219 0.0000
-3 -11 12 0.4494 0.0000
-3 -10 1 -0.2240 0.0000
-3 -10 2 0.0184 0.0000
-3 -10 3 -0.0768 0.0000
-3 -10 4 -0.2666 0.0000
-3 -10 5 -0.3041 0.0000
-3 -10 6 -0.2487 0.0000
-3 -10 7 -0.1189 0.0000
-3 -10 8 -0.1055 0.0000
-3 -10 9 -0.2518 0.0000
-3 -10 10 -0.1056 0.0000
-3 -10 11 0.3233 0.0000
-3 -10 12 0.3504 0.0000
-3 -10 13 -0.1053 0.0000
-3 -10 14 -0.3507 0.0000
-3 -9 1 -0.0257 0.0000
-3 -9 2 0.1153 0.0000
-3 -9 3 -0.0660 0.0000
-3 -9 4 -0.2963 0.0000
-3 -9 5 -0.3609 0.0000
-3 -9 6 -0.2051 0.0000
-3 -9 7 -0.0141 0.0000
-3 -9 8 -0.0637 0.0000
-3 -9 9 -0.0651 0.0000
-3 -9 10 0.2704 0.0000
-3 -9 11 0.3889 0.0000
-3 -9 12 -0.0660 0.0000
-3 -9 13 -0.4347 0.0000
-3 -9 14 -0.2183 0.0000
-3 -8 1 -0.0041 0.0000
-3 -8 2 0.1153 0.0000
-3 -8 3 -0.1072 0.0000
-3 -8 4 -0.4228 0.0000
-3 -8 5 -0.4843 0.0000
-3 -8 6 -0.1783 0.0000
-3 -8 7 0.0830 0.0000
-3 -8 8 0.1119 0.0000
-3 -8 9 0.3082 0.0000
-3 -8 10 0.4953 0.0000
-3 -8 11 0.0769 0.0000
-3 -8 12 -0.5020 0.0000
-3 -8 13 -0.3925 0.0000
-3 -8 14 0.1012 0.0000
-3 -7 1 0.0934 0.0000
-3 -7 2 0.1592 0.0000
-3 -7 3 -0.2321 0.0000
-3 -7 4 -0.7423 0.0000
-3 -7 5 -0.8121 0.0000
-3 -7 6 -0.4096 0.0000
-3 -7 7 -0.1008 0.0000
-3 -7 8 0.0811 0.0000
-3 -7 9 0.3740 0.0000
-3 -7 10 0.2891 0.0000
-3 -7 11 -0.2943 0.0000
-3 -7 12 -0.4617 0.0000
-3 -7 13 0.0301 0.0000
-3 -7 14 0.2448 0.0000
-3 -7 15 -0.2322 0.0000
-3 -6 1 0.3719 0.0000
-3 -6 2 0.1784 0.0000
-3 -6 3 -0.5484 0.0000
-3 -6 4 -1.2570 0.0000
-3 -6 5 -1.2826 0.0000
-3 -6 6 -0.8105 0.0000
-3 -6 7 -0.4448 0.0000
-3 -6 8 -0.1111 0.0000
-3 -6 9 0.2077 0.0000
-3 -6 10 0.0768 0.0000
-3 -6 11 -0.1801 0.0000
-3 -6 12 0.0745 0.0000
-3 -6 13 0.3895 0.0000
-3 -6 14 0.0492 0.0000
-3 -6 15 -0.6053 0.0000
-3 -5 1 0.5896 0.0000
-3 -5 2 -0.0449 0.0000
-3 -5 3 -1.1206 0.0000
-3 -5 4 -1.8393 0.0000
-3 -5 5 -1.6286 0.0000
-3 -5 6 -0.9852 0.0000
-3 -5 7 -0.5171 0.0000
-3 -5 8 -0.1065 0.0000
-3 -5 9 0.2079 0.0000
-3 -5 10 0.2333 0.0000
-3 -5 11 0.2973 0.0000
-3 -5 12 0.4744 0.0000
-3 -5 13 0.3122 0.0000
-3 -5 14 -0.1718 0.0000
-3 -5 15 -0.4776 0.0000
-3 -4 1 0.3045 0.0000
-3 -4 2 -0.9437 0.0000
-3 -4 3 -2.3166 0.0000
-3 -4 4 -2.7530 0.0000
-3 -4 5 -1.9836 0.0000
-3 -4 6 -0.9551 0.0000
-3 -4 7 -0.3472 0.0000
-3 -4 8 0.0351 0.0000
-3 -4 9 0.3140 0.0000
-3 -4 10 0.4542 0.0000
-3 -4 11 0.4908 0.0000
-3 -4 12 0.3165 0.0000
-3 -4 13 0.0557 0.0000
-3 -4 14 0.0303 0.0000
-3 -4 15 0.1120 0.0000
-3 -4 16 0.0767 0.0000
-3 -3 1 -1.0644 0.0000
-3 -3 2 -3.1853 0.0000
-3 -3 3 -4.7543 0.0000
-3 -3 4 -4.5014 0.0000
-3 -3 5 -2.7775 0.0000
-3 -3 6 -1.1701 0.0000
-3 -3 7 -0.4207 0.0000
-3 -3 8 -0.0910 0.0000
-3 -3 9 0.1864 0.0000
-3 -3 10 0.3444 0.0000
-3 -3 11 0.2084 0.0000
-3 -3 12 -0.0451 0.0000
-3 -3 13 0.1173 0.0000
-3 -3 14 0.5705 0.0000
-3 -3 15 0.5584 0.0000
-3 -3 16 0.1076 0.0000
-3 -2 1 -3.6605 0.0000
-3 -2 3 -8.0881 0.0000
-3 -2 4 -6.6456 0.0000
-3 -2 5 -3.7678 0.0000
-3 -2 6 -1.6559 0.0000
-3 -2 7 -0.8380 0.0000
-3 -2 8 -0.4814 0.0000
-3 -2 9 -0.1181 0.0000
-3 -2 10 0.0332 0.0000
-3 -2 11 -0.1505 0.0000
-3 -2 12 -0.1480 0.0000
-3 -2 13 0.4293 0.0000
-3 -2 14 0.8564 0.0000
-3 -2 15 0.4503 0.0000
-3 -1 1 -6.4286 0.0000
-3 -1 2 -9.9227 0.0000
-3 -1 3 -10.3938 0.0000
-3 -1 5 -3.9348 0.0000
-3 -1 6 -1.8015 0.0000
-3 -1 7 -1.0786 0.0000
-3 -1 8 -0.6534 0.0000
-3 -1 9 -0.2476 0.0000
-3 -1 10 -0.1827 0.0000
-3 -1 11 -0.3324 0.0000
-3 -1 12 -0.0845 0.0000
-3 -1 13 0.5225 0.0000
-3 -1 14 0.6354 0.0000
-3 -1 15 0.1234 0.0000
-3 0 1 -7.6063 0.0000
-3 0 2 -10.5572 0.0000
-3 0 4 -6.0291 0.0000
-3 0 5 -2.6418 0.0000
-3 0 6 -1.1355 0.0000
-3 0 7 -0.6947 0.0000
-3 0 8 -0.3383 0.0000
-3 0 9 -0.1484 0.0000
-3 0 10 -0.3285 0.0000
-3 0 11 -0.4683 0.0000
-3 0 12 -0.1393 0.0000
-3 0 13 0.2991 0.0000
-3 0 14 0.3002 0.0000
-3 1 1 -6.2845 0.0000
-3 1 2 -7.8986 0.0000
-3 1 3 -5.9897 0.0000
-3 1 4 -2.6214 0.0000
-3 1 5 -0.4703 0.0000
-3 1 6 0.0407 0.0000
-3 1 7 0.0810 0.0000
-3 1 8 0.1164 0.0000
-3 1 9 -0.1451 0.0000
-3 1 10 -0.5714 0.0000
-3 1 11 -0.6390 0.0000
-3 1 12 -0.2752 0.0000
-3 1 13 0.0536 0.0000
-3 1 14 0.1727 0.0000
-3 2 1 -3.3220 0.0000
-3 2 2 -3.5500 0.0000
-3 2 3 -1.4798 0.0000
-3 2 4 0.6168 0.0000
-3 2 5 1.2061 0.0000
-3 2 6 0.8541 0.0000
-3 2 7 0.5207 0.0000
-3 2 8 0.1497 0.0000
-3 2 9 -0.4349 0.0000
-3 2 10 -0.8125 0.0000
-3 2 11 -0.6577 0.0000
-3 2 12 -0.2727 0.0000
-3 2 13 -0.0487 0.0000
-3 3 1 -0.7278 0.0000
-3 3 2 -0.1951 0.0000
-3 3 3 1.2358 0.0000
-3 3 4 1.8884 0.0000
-3 3 5 1.4079 0.0000
-3 3 6 0.6928 0.0000
-3 3 7 0.2012 0.0000
-3 3 8 -0.3075 0.0000
-3 3 9 -0.7528 0.0000
-3 3 10 -0.7532 0.0000
-3 3 11 -0.3707 0.0000
-3 3 12 -0.0826 0.0000
-3 3 13 -0.0537 0.0000
-3 4 1 0.0121 0.0000
-3 4 2 0.6383 0.0000
-3 4 3 1.2913 0.0000
-3 4 4 1.1396 0.0000
-3 4 5 0.4524 0.0000
-3 4 6 -0.1240 0.0000
-3 4 7 -0.4935 0.0000
-3 4 8 -0.7535 0.0000
-3 4 9 -0.7467 0.0000
-3 4 10 -0.4027 0.0000
-3 4 11 -0.0075 0.0000
-3 4 12 0.0944 0.0000
-3 5 1 -0.7808 0.0000
-3 5 2 -0.2669 0.0000
-3 5 3 0.0505 0.0000
-3 5 4 -0.0984 0.0000
-3 5 5 -0.4402 0.0000
-3 5 6 -0.7257 0.0000
-3 5 7 -0.8768 0.0000
-3 5 8 -0.8057 0.0000
-3 5 9 -0.5384 0.0000
-3 5 10 -0.2221 0.0000
-3 5 11 0.0030 0.0000
-3 5 12 0.0371 0.0000
-3 6 1 -1.5584 0.0000
-3 6 2 -1.0278 0.0000
-3 6 3 -0.6364 0.0000
-3 6 4 -0.4866 0.0000
-3 6 5 -0.5435 0.0000
-3 6 6 -0.7177 0.0000
-3 6 7 -0.7580 0.0000
-3 6 8 -0.6029 0.0000
-3 6 9 -0.5014 0.0000
-3 6 10 -0.4704 0.0000
-3 6 11 -0.3399 0.0000
-3 6 12 -0.1682 0.0000
-3 7 1 -1.3542 0.0000
-3 7 2 -0.7684 0.0000
-3 7 3 -0.3342 0.0000
-3 7 4 -0.1403 0.0000
-3 7 5 -0.2353 0.0000
-3 7 6 -0.4285 0.0000
-3 7 7 -0.4243 0.0000
-3 7 8 -0.4004 0.0000
-3 7 9 -0.6133 0.0000
-3 7 10 -0.7420 0.0000
-3 7 11 -0.5227 0.0000
-3 8 1 -0.5006 0.0000
-3 8 2 -0.0373 0.0000
-3 8 3 0.1539 0.0000
-3 8 4 0.0784 0.0000
-3 8 5 -0.1555 0.0000
-3 8 6 -0.2530 0.0000
-3 8 7 -0.1519 0.0000
-3 8 8 -0.2503 0.0000
-3 8 9 -0.5664 0.0000
-3 8 10 -0.5890 0.0000
-3 9 1 0.2433 0.0000
-3 9 2 0.4176 0.0000
-3 9 3 0.2243 0.0000
-3 9 4 -0.1441 0.0000
-3 9 5 -0.3656 0.0000
-3 9 6 -0.2436 0.0000
-3 9 7 -0.0545 0.0000
-3 9 8 -0.1744 0.0000
-3 10 1 0.5189 0.0000
-3 10 2 0.4641 0.0000
-3 10 3 0.0240 0.0000
-3 10 4 -0.4346 0.0000
-3 10 5 -0.5088 0.0000
-3 10 6 -0.2501 0.0000
-3 10 7 -0.0961 0.0000
-3 11 1 0.4048 0.0000
-3 11 2 0.3459 0.0000
-3 11 3 -0.0895 0.0000
-3 11 4 -0.4278 0.0000
-3 11 5 -0.3567 0.0000
-3 11 6 -0.1380 0.0000
-3 12 1 0.1837 0.0000
-3 12 2 0.2399 0.0000
-3 12 3 -0.0504 0.0000
-3 12 4 -0.1862 0.0000
-3 13 1 0.0621 0.0000
-2 -13 6 0.1400 0.0000
-2 -13 7 0.1824 0.0000
-2 -13 8 -0.0464 0.0000
-2 -13 9 -0.0805 0.0000
-2 -12 1 0.1466 0.0000
-2 -12 2 -0.2939 0.0000
-2 -12 3 -0.2612 0.0000
-2 -12 4 -0.0884 0.0000
-2 -12 5 -0.0573 0.0000
-2 -12 6 0.0251 0.0000
-2 -12 7 -0.0440 0.0000
-2 -12 8 -0.1857 0.0000
-2 -12 9 0.1052 0.0000
-2 -12 10 0.4385 0.0000
-2 -12 11 0.1566 0.0000
-2 -12 12 -0.2728 0.0000
-2 -11 1 -0.0456 0.0000
-2 -11 2 -0.3684 0.0000
-2 -11 3 -0.2186 0.0000
-2 -11 4 -0.1204 0.0000
-2 -11 5 -0.1379 0.0000
-2 -11 6 -0.1226 0.0000
-2 -11 7 -0.2029 0.0000
-2 -11 8 -0.0516 0.0000
-2 -11 9 0.4501 0.0000
-2 -11 10 0.5206 0.0000
-2 -11 11 -0.0066 0.0000
-2 -11 12 -0.2316 0.0000
-2 -11 13 0.0933 0.0000
-2 -10 1 -0.2057 0.0000
-2 -10 2 -0.2635 0.0000
-2 -10 3 -0.0502 0.0000
-2 -10 4 -0.0273 0.0000
-2 -10 5 -0.0881 0.0000
-2 -10 6 -0.1748 0.0000
-2 -10 7 -0.2196 0.0000
-2 -10 8 0.1062 0.0000
-2 -10 9 0.4307 0.0000
-2 -10 10 0.1391 0.0000
-2 -10 11 -0.2397 0.0000
-2 -10 12 0.0037 0.0000
-2 -10 13 0.3740 0.0000
-2 -10 14 0.2059 0.0000
-2 -9 1 -0.1603 0.0000
-2 -9 2 -0.0414 0.0000
-2 -9 3 0.1676 0.0000
-2 -9 4 0.1885 0.0000
-2 -9 5 0.0738 0.0000
-2 -9 6 -0.1883 0.0000
-2 -9 7 -0.2989 0.0000
-2 -9 8 -0.1006 0.0000
-2 -9 9 -0.1401 0.0000
-2 -9 10 -0.4474 0.0000
-2 -9 11 -0.2824 0.0000
-2 -9 12 0.2452 0.0000
-2 -9 13 0.2545 0.0000
-2 -9 14 -0.2308 0.0000
-2 -8 1 -0.0546 0.0000
-2 -8 2 0.1408 0.0000
-2 -8 3 0.4232 0.0000
-2 -8 4 0.5583 0.0000
-2 -8 5 0.3641 0.0000
-2 -8 6 -0.1058 0.0000
-2 -8 7 -0.3596 0.0000
-2 -8 8 -0.4156 0.0000
-2 -8 9 -0.6291 0.0000
-2 -8 10 -0.5855 0.0000
-2 -8 11 -0.0122 0.0000
-2 -8 12 0.2784 0.0000
-2 -8 13 -0.1561 0.0000
-2 -8 14 -0.4982 0.0000
-2 -7 1 -0.1579 0.0000
-2 -7 2 0.2301 0.0000
-2 -7 3 0.7839 0.0000
-2 -7 4 1.1045 0.0000
-2 -7 5 0.8239 0.0000
-2 -7 6 0.2190 0.0000
-2 -7 7 -0.1367 0.0000
-2 -7 8 -0.3689 0.0000
-2 -7 9 -0.5457 0.0000
-2 -7 10 -0.2399 0.0000
-2 -7 11 0.2150 0.0000
-2 -7 12 0.0354 0.0000
-2 -7 13 -0.4214 0.0000
-2 -7 14 -0.2264 0.0000
-2 -7 15 0.4417 0.0000
-2 -6 1 -0.5013 0.0000
-2 -6 2 0.3003 0.0000
-2 -6 3 1.2349 0.0000
-2 -6 4 1.6564 0.0000
-2 -6 5 1.2286 0.0000
-2 -6 6 0.5369 0.0000
-2 -6 7 0.1274 0.0000
-2 -6 8 -0.1852 0.0000
-2 -6 9 -0.3112 0.0000
-2 -6 10 -0.0410 0.0000
-2 -6 11 0.0877 0.0000
-2 -6 12 -0.2141 0.0000
-2 -6 13 -0.2743 0.0000
-2 -6 14 0.2697 0.0000
-2 -6 15 0.7413 0.0000
-2 -5 1 -0.7086 0.0000
-2 -5 2 0.7092 0.0000
-2 -5 3 1.9532 0.0000
-2 -5 4 2.1637 0.0000
-2 -5 5 1.3221 0.0000
-2 -5 6 0.4199 0.0000
-2 -5 7 -0.0498 0.0000
-2 -5 8 -0.3541 0.0000
-2 -5 9 -0.4167 0.0000
-2 -5 10 -0.1912 0.0000
-2 -5 11 -0.0888 0.0000
-2 -5 12 -0.1268 0.0000
-2 -5 13 0.0600 0.0000
-2 -5 14 0.3974 0.0000
-2 -5 15 0.4455 0.0000
-2 -4 1 0.2577 0.0000
-2 -4 2 2.5068 0.0000
-2 -4 3 3.7718 0.0000
-2 -4 4 3.1571 0.0000
-2 -4 5 1.3936 0.0000
-2 -4 6 0.0553 0.0000
-2 -4 7 -0.4721 0.0000
-2 -4 8 -0.6749 0.0000
-2 -4 9 -0.5943 0.0000
-2 -4 10 -0.2460 0.0000
-2 -4 11 0.0370 0.0000
-2 -4 12 0.1128 0.0000
-2 -4 13 0.0579 0.0000
-2 -4 14 -0.0076 0.0000
-2 -4 15 -0.0431 0.0000
-2 -4 16 -0.1432 0.0000
-2 -3 1 3.6714 0.0000
-2 -3 2 6.7521 0.0000
-2 -3 3 7.3561 0.0000
-2 -3 4 5.0806 0.0000
-2 -3 5 1.9554 0.0000
-2 -3 6 0.1205 0.0000
-2 -3 7 -0.4372 0.0000
-2 -3 8 -0.5751 0.0000
-2 -3 9 -0.4195 0.0000
-2 -3 10 -0.0238 0.0000
-2 -3 11 0.1981 0.0000
-2 -3 12 -0.0098 0.0000
-2 -3 13 -0.4084 0.0000
-2 -3 14 -0.4801 0.0000
-2 -3 15 -0.1813 0.0000
-2 -3 16 0.0123 0.0000
-2 -2 1 9.3334 0.0000
-2 -2 2 12.5992 0.0000
-2 -2 3 11.5459 0.0000
-2 -2 4 7.1104 0.0000
-2 -2 5 2.8175 0.0000
-2 -2 6 0.7969 0.0000
-2 -2 7 0.2188 0.0000
-2 -2 8 -0.0408 0.0000
-2 -2 9 -0.0154 0.0000
-2 -2 10 0.1754 0.0000
-2 -2 11 0.0514 0.0000
-2 -2 12 -0.4556 0.0000
-2 -2 13 -0.7915 0.0000
-2 -2 14 -0.4905 0.0000
-2 -2 15 0.0592 0.0000
-2 -1 3 13.5346 0.0000
-2 -1 4 7.4926 0.0000
-2 -1 5 3.0773 0.0000
-2 -1 6 1.4339 0.0000
-2 -1 7 0.8543 0.0000
-2 -1 8 0.4084 0.0000
-2 -1 9 0.2856 0.0000
-2 -1 10 0.2221 0.0000
-2 -1 11 -0.1785 0.0000
-2 -1 12 -0.6438 0.0000
-2 -1 13 -0.6213 0.0000
-2 -1 14 -0.1280 0.0000
-2 -1 15 0.2277 0.0000
-2 0 1 16.2603 0.0000
-2 0 4 5.2810 0.0000
-2 0 5 2.0815 0.0000
-2 0 6 1.2632 0.0000
-2 0 7 0.8091 0.0000
-2 0 8 0.4464 0.0000
-2 0 9 0.4328 0.0000
-2 0 10 0.2819 0.0000
-2 0 11 -0.1575 0.0000
-2 0 12 -0.3766 0.0000
-2 0 13 -0.1593 0.0000
-2 0 14 0.0914 0.0000
-2 1 1 13.0944 0.0000
-2 1 2 11.1908 0.0000
-2 1 3 5.7429 0.0000
-2 1 4 1.4051 0.0000
-2 1 5 0.1854 0.0000
-2 1 6 0.2719 0.0000
-2 1 7 0.1691 0.0000
-2 1 8 0.2618 0.0000
-2 1 9 0.5294 0.0000
-2 1 10 0.3569 0.0000
-2 1 11 -0.0288 0.0000
-2 1 12 -0.0698 0.0000
-2 1 13 0.0787 0.0000
-2 1 14 -0.0047 0.0000
-2 2 1 7.0687 0.0000
-2 2 2 4.0672 0.0000
-2 2 3 -0.1098 0.0000
-2 2 4 -1.9286 0.0000
-2 2 5 -1.3899 0.0000
-2 2 6 -0.6845 0.0000
-2 2 7 -0.3462 0.0000
-2 2 8 0.2074 0.0000
-2 2 9 0.5371 0.0000
-2 2 10 0.2165 0.0000
-2 2 11 -0.1357 0.0000
-2 2 12 -0.0854 0.0000
-2 2 13 -0.0099 0.0000
-2 3 1 1.7049 0.0000
-2 3 2 -1.0277 0.0000
-2 3 3 -3.1704 0.0000
-2 3 4 -2.9435 0.0000
-2 3 5 -1.5980 0.0000
-2 3 6 -0.7736 0.0000
-2 3 7 -0.2387 0.0000
-2 3 8 0.3328 0.0000
-2 3 9 0.3411 0.0000
-2 3 10 -0.1885 0.0000
-2 3 11 -0.4749 0.0000
-2 3 12 -0.3394 0.0000
-2 3 13 -0.2173 0.0000
-2 4 1 -0.5729 0.0000
-2 4 2 -2.2561 0.0000
-2 4 3 -2.7751 0.0000
-2 4 4 -1.7558 0.0000
-2 4 5 -0.6100 0.0000
-2 4 6 -0.0897 0.0000
-2 4 7 0.2721 0.0000
-2 4 8 0.4599 0.0000
-2 4 9 0.0861 0.0000
-2 4 10 -0.4787 0.0000
-2 4 11 -0.6540 0.0000
-2 4 12 -0.4995 0.0000
-2 5 1 -0.1104 0.0000
-2 5 2 -0.8955 0.0000
-2 5 3 -0.8007 0.0000
-2 5 4 -0.0402 0.0000
-2 5 5 0.4858 0.0000
-2 5 6 0.6409 0.0000
-2 5 7 0.7222 0.0000
-2 5 8 0.5859 0.0000
-2 5 9 0.1574 0.0000
-2 5 10 -0.2316 0.0000
-2 5 11 -0.3715 0.0000
-2 5 12 -0.3513 0.0000
-2 6 1 0.9691 0.0000
-2 6 2 0.5470 0.0000
-2 6 3 0.5740 0.0000
-2 6 4 0.8352 0.0000
-2 6 5 0.9514 0.0000
-2 6 6 0.9476 0.0000
-2 6 7 0.9000 0.0000
-2 6 8 0.7558 0.0000
-2 6 9 0.5594 0.0000
-2 6 10 0.3468 0.0000
-2 6 11 0.1184 0.0000
-2 7 1 1.2027 0.0000
-2 7 2 0.8748 0.0000
-2 7 3 0.7883 0.0000
-2 7 4 0.8321 0.0000
-2 7 5 0.8335 0.0000
-2 7 6 0.7763 0.0000
-2 7 7 0.7068 0.0000
-2 7 8 0.7016 0.0000
-2 7 9 0.7128 0.0000
-2 7 10 0.5626 0.0000
-2 8 1 0.7131 0.0000
-2 8 2 0.5016 0.0000
-2 8 3 0.4761 0.0000
-2 8 4 0.4999 0.0000
-2 8 5 0.4175 0.0000
-2 8 6 0.2589 0.0000
-2 8 7 0.1749 0.0000
-2 8 8 0.2504 0.0000
-2 8 9 0.3241 0.0000
-2 9 1 0.1607 0.0000
-2 9 2 0.0697 0.0000
-2 9 3 0.1456 0.0000
-2 9 4 0.1460 0.0000
-2 9 5 -0.0381 0.0000
-2 9 6 -0.2361 0.0000
-2 9 7 -0.2793 0.0000
-2 9 8 -0.1878 0.0000
-2 10 1 -0.2085 0.0000
-2 10 2 -0.2579 0.0000
-2 10 3 -0.1186 0.0000
-2 10 4 -0.1280 0.0000
-2 10 5 -0.2786 0.0000
-2 10 6 -0.3390 0.0000
-2 10 7 -0.2841 0.0000
-2 11 1 -0.4574 0.0000
-2 11 2 -0.4824 0.0000
-2 11 3 -0.2939 0.0000
-2 11 4 -0.2678 0.0000
-2 11 5 -0.2724 0.0000
-2 12 1 -0.5811 0.0000
-2 12 2 -0.5105 0.0000
-2 12 3 -0.3144 0.0000
-1 -13 2 0.7075 0.0000
-1 -13 3 0.4921 0.0000
-1 -13 4 0.2080 0.0000
-1 -13 5 -0.1496 0.0000
-1 -13 6 -0.5394 0.0000
-1 -13 7 -0.4322 0.0000
-1 -13 8 -0.1240 0.0000
-1 -12 1 0.6041 0.0000
-1 -12 2 0.7098 0.0000
-1 -12 3 0.3606 0.0000
-1 -12 4 0.0939 0.0000
-1 -12 5 -0.2413 0.0000
-1 -12 6 -0.4413 0.0000
-1 -12 7 -0.1879 0.0000
-1 -12 8 -0.1111 0.0000
-1 -12 9 -0.4249 0.0000
-1 -12 10 -0.3181 0.0000
-1 -12 11 0.2730 0.0000
-1 -12 12 0.5274 0.0000
-1 -11 1 0.5415 0.0000
-1 -11 2 0.3489 0.0000
-1 -11 3 0.0610 0.0000
-1 -11 4 -0.0376 0.0000
-1 -11 5 -0.2251 0.0000
-1 -11 6 -0.2194 0.0000
-1 -11 7 -0.0390 0.0000
-1 -11 8 -0.2931 0.0000
-1 -11 9 -0.6232 0.0000
-1 -11 10 -0.2871 0.0000
-1 -11 11 0.2148 0.0000
-1 -11 12 0.1199 0.0000
-1 -11 13 -0.2471 0.0000
-1 -10 1 0.2417 0.0000
-1 -10 2 -0.0492 0.0000
-1 -10 3 -0.1154 0.0000
-1 -10 4 -0.0665 0.0000
-1 -10 5 -0.1098 0.0000
-1 -10 6 0.0375 0.0000
-1 -10 7 0.0728 0.0000
-1 -10 8 -0.3090 0.0000
-1 -10 9 -0.4433 0.0000
-1 -10 10 -0.0897 0.0000
-1 -10 11 -0.0086 0.0000
-1 -10 12 -0.3811 0.0000
-1 -10 13 -0.5333 0.0000
-1 -10 14 -0.2784 0.0000
-1 -9 1 -0.0284 0.0000
-1 -9 2 -0.2043 0.0000
-1 -9 3 -0.1269 0.0000
-1 -9 4 -0.0710 0.0000
-1 -9 5 0.0369 0.0000
-1 -9 6 0.3417 0.0000
-1 -9 7 0.3592 0.0000
-1 -9 8 0.1003 0.0000
-1 -9 9 0.1169 0.0000
-1 -9 10 0.1834 0.0000
-1 -9 11 -0.1340 0.0000
-1 -9 12 -0.4105 0.0000
-1 -9 13 -0.2245 0.0000
-1 -9 14 0.0187 0.0000
-1 -9 15 -0.0774 0.0000
-1 -8 1 -0.1338 0.0000
-1 -8 2 -0.2751 0.0000
-1 -8 3 -0.3146 0.0000
-1 -8 4 -0.3219 0.0000
-1 -8 5 0.0120 0.0000
-1 -8 6 0.5134 0.0000
-1 -8 7 0.6282 0.0000
-1 -8 8 0.5490 0.0000
-1 -8 9 0.5349 0.0000
-1 -8 10 0.2924 0.0000
-1 -8 11 -0.0505 0.0000
-1 -8 12 -0.0072 0.0000
-1 -8 13 0.2054 0.0000
-1 -8 14 0.0291 0.0000
-1 -8 15 -0.3728 0.0000
-1 -7 1 -0.1192 0.0000
-1 -7 2 -0.5177 0.0000
-1 -7 3 -0.8476 0.0000
-1 -7 4 -0.8264 0.0000
-1 -7 5 -0.2040 0.0000
-1 -7 6 0.4486 0.0000
-1 -7 7 0.6484 0.0000
-1 -7 8 0.6687 0.0000
-1 -7 9 0.5650 0.0000
-1 -7 10 0.2651 0.0000
-1 -7 11 0.1775 0.0000
-1 -7 12 0.3750 0.0000
-1 -7 13 0.2801 0.0000
-1 -7 14 -0.2378 0.0000
-1 -7 15 -0.5450 0.0000
-1 -7 16 -0.3158 0.0000
-1 -6 1 0.1050 0.0000
-1 -6 2 -0.7865 0.0000
-1 -6 3 -1.3510 0.0000
-1 -6 4 -1.0920 0.0000
-1 -6 5 -0.1551 0.0000
-1 -6 6 0.5435 0.0000
-1 -6 7 0.7187 0.0000
-1 -6 8 0.7035 0.0000
-1 -6 9 0.5038 0.0000
-1 -6 10 0.2677 0.0000
-1 -6 11 0.3370 0.0000
-1 -6 12 0.4322 0.0000
-1 -6 13 0.1315 0.0000
-1 -6 14 -0.2601 0.0000
-1 -6 15 -0.2014 0.0000
-1 -5 1 0.2709 0.0000
-1 -5 2 -1.2609 0.0000
-1 -5 3 -1.7909 0.0000
-1 -5 4 -0.9340 0.0000
-1 -5 5 0.4313 0.0000
-1 -5 6 1.1066 0.0000
-1 -5 7 1.1057 0.0000
-1 -5 8 0.8757 0.0000
-1 -5 9 0.4751 0.0000
-1 -5 10 0.1786 0.0000
-1 -5 11 0.2048 0.0000
-1 -5 12 0.2370 0.0000
-1 -5 13 0.1018 0.0000
-1 -5 14 0.0629 0.0000
-1 -5 15 0.2830 0.0000
-1 -4 1 -1.3372 0.0000
-1 -4 2 -3.4601 0.0000
-1 -4 3 -3.2942 0.0000
-1 -4 4 -1.1639 0.0000
-1 -4 5 0.9235 0.0000
-1 -4 6 1.6097 0.0000
-1 -4 7 1.3839 0.0000
-1 -4 8 0.8852 0.0000
-1 -4 9 0.2596 0.0000
-1 -4 10 -0.1232 0.0000
-1 -4 11 -0.0794 0.0000
-1 -4 12 0.1095 0.0000
-1 -4 13 0.2327 0.0000
-1 -4 14 0.2761 0.0000
-1 -4 15 0.3246 0.0000
-1 -4 16 0.3819 0.0000
-1 -3 1 -6.8814 0.0000
-1 -3 2 -8.8524 0.0000
-1 -3 3 -6.7741 0.0000
-1 -3 4 -2.5654 0.0000
-1 -3 5 0.4708 0.0000
-1 -3 6 1.2630 0.0000
-1 -3 7 1.0057 0.0000
-1 -3 8 0.4782 0.0000
-1 -3 9 -0.1297 0.0000
-1 -3 10 -0.3651 0.0000
-1 -3 11 -0.1138 0.0000
-1 -3 12 0.2250 0.0000
-1 -3 13 0.3015 0.0000
-1 -3 14 0.1095 0.0000
-1 -3 15 -0.0025 0.0000
-1 -2 1 -15.6758 0.0000
-1 -2 2 -15.9471 0.0000
-1 -2 3 -10.8231 0.0000
-1 -2 4 -4.4424 0.0000
-1 -2 5 -0.7991 0.0000
-1 -2 6 0.0873 0.0000
-1 -2 7 0.0958 0.0000
-1 -2 8 -0.1351 0.0000
-1 -2 9 -0.4289 0.0000
-1 -2 10 -0.2991 0.0000
-1 -2 11 0.1544 0.0000
-1 -2 12 0.3849 0.0000
-1 -2 13 0.1773 0.0000
-1 -2 14 -0.1565 0.0000
-1 -2 15 -0.1601 0.0000
-1 -1 3 -12.3097 0.0000
-1 -1 4 -5.0625 0.0000
-1 -1 5 -1.8319 0.0000
-1 -1 6 -1.0657 0.0000
-1 -1 7 -0.7239 0.0000
-1 -1 8 -0.6242 0.0000
-1 -1 9 -0.5504 0.0000
-1 -1 10 -0.0771 0.0000
-1 -1 11 0.3862 0.0000
-1 -1 12 0.3454 0.0000
-1 -1 13 -0.0045 0.0000
-1 -1 14 -0.1520 0.0000
-1 0 3 -9.4139 0.0000
-1 0 4 -3.4785 0.0000
-1 0 5 -1.7315 0.0000
-1 0 6 -1.3729 0.0000
-1 0 7 -0.9807 0.0000
-1 0 8 -0.8331 0.0000
-1 0 9 -0.5434 0.0000
-1 0 10 0.0919 0.0000
-1 0 11 0.3814 0.0000
-1 0 12 0.1234 0.0000
-1 0 13 -0.1103 0.0000
-1 0 14 0.0308 0.0000
-1 1 2 -10.7826 0.0000
-1 1 3 -3.5326 0.0000
-1 1 4 -0.5237 0.0000
-1 1 5 -0.6033 0.0000
-1 1 6 -0.7896 0.0000
-1 1 7 -0.7180 0.0000
-1 1 8 -0.7707 0.0000
-1 1 9 -0.3954 0.0000
-1 1 10 0.1984 0.0000
-1 1 11 0.2046 0.0000
-1 1 12 -0.1736 0.0000
-1 1 13 -0.2386 0.0000
-1 1 14 0.0209 0.0000
-1 2 1 -8.2912 0.0000
-1 2 2 -2.1958 0.0000
-1 2 3 1.8349 0.0000
-1 2 4 1.8695 0.0000
-1 2 5 0.5402 0.0000
-1 2 6 -0.0467 0.0000
-1 2 7 -0.3723 0.0000
-1 2 8 -0.5530 0.0000
-1 2 9 -0.1139 0.0000
-1 2 10 0.2859 0.0000
-1 2 11 0.0018 0.0000
-1 2 12 -0.4185 0.0000
-1 2 13 -0.4026 0.0000
-1 3 1 -0.9183 0.0000
-1 3 2 2.9552 0.0000
-1 3 3 3.9739 0.0000
-1 3 4 2.3462 0.0000
-1 3 5 0.7967 0.0000
-1 3 6 0.1763 0.0000
-1 3 7 -0.2503 0.0000
-1 3 8 -0.2820 0.0000
-1 3 9 0.2138 0.0000
-1 3 10 0.3826 0.0000
-1 3 11 -0.0324 0.0000
-1 3 12 -0.3742 0.0000
-1 3 13 -0.3434 0.0000
-1 4 1 1.7779 0.0000
-1 4 2 3.5366 0.0000
-1 4 3 2.9740 0.0000
-1 4 4 1.2586 0.0000
-1 4 5 0.2565 0.0000
-1 4 6 -0.0926 0.0000
-1 4 7 -0.2999 0.0000
-1 4 8 -0.0666 0.0000
-1 4 9 0.3964 0.0000
-1 4 10 0.4308 0.0000
-1 4 11 0.1387 0.0000
-1 4 12 -0.0249 0.0000
-1 4 13 -0.0295 0.0000
-1 5 1 1.1468 0.0000
-1 5 2 1.7309 0.0000
-1 5 3 0.9637 0.0000
-1 5 4 -0.0445 0.0000
-1 5 5 -0.4113 0.0000
-1 5 6 -0.4960 0.0000
-1 5 7 -0.4684 0.0000
-1 5 8 -0.1394 0.0000
-1 5 9 0.1854 0.0000
-1 5 10 0.2449 0.0000
-1 5 11 0.2279 0.0000
-1 5 12 0.2253 0.0000
-1 6 1 -0.0905 0.0000
-1 6 2 0.1048 0.0000
-1 6 3 -0.3532 0.0000
-1 6 4 -0.7661 0.0000
-1 6 5 -0.8401 0.0000
-1 6 6 -0.8410 0.0000
-1 6 7 -0.7429 0.0000
-1 6 8 -0.5055 0.0000
-1 6 9 -0.3083 0.0000
-1 6 10 -0.1285 0.0000
-1 6 11 0.0721 0.0000
-1 7 1 -0.6056 0.0000
-1 7 2 -0.5243 0.0000
-1 7 3 -0.7664 0.0000
-1 7 4 -0.9229 0.0000
-1 7 5 -0.9239 0.0000
-1 7 6 -0.8986 0.0000
-1 7 7 -0.7914 0.0000
-1 7 8 -0.6495 0.0000
-1 7 9 -0.5139 0.0000
-1 7 10 -0.2889 0.0000
-1 8 1 -0.5528 0.0000
-1 8 2 -0.5122 0.0000
-1 8 3 -0.6309 0.0000
-1 8 4 -0.6263 0.0000
-1 8 5 -0.5481 0.0000
-1 8 6 -0.4668 0.0000
-1 8 7 -0.3376 0.0000
-1 8 8 -0.2536 0.0000
-1 8 9 -0.2147 0.0000
-1 9 1 -0.2352 0.0000
-1 9 2 -0.1612 0.0000
-1 9 3 -0.1546 0.0000
-1 9 4 -0.0284 0.0000
-1 9 5 0.0568 0.0000
-1 9 6 0.1113 0.0000
-1 9 7 0.2038 0.0000
-1 9 8 0.1869 0.0000
-1 10 1 0.2642 0.0000
-1 10 2 0.3370 0.0000
-1 10 3 0.3733 0.0000
-1 10 4 0.4426 0.0000
-1 10 5 0.3552 0.0000
-1 10 6 0.2785 0.0000
-1 11 1 0.7127 0.0000
-1 11 2 0.6553 0.0000
-1 11 3 0.6056 0.0000
-1 11 4 0.5013 0.0000
-1 12 1 0.7917 0.0000
-1 12 2 0.5833 0.0000
0 -14 4 -0.1949 0.0000
0 -14 5 0.0506 0.0000
0 -14 7 0.0708 0.0000
0 -13 1 -0.9256 0.0000
0 -13 2 -0.6743 0.0000
0 -13 3 -0.4032 0.0000
0 -13 4 -0.2437 0.0000
0 -13 5 0.1269 0.0000
0 -13 6 0.2291 0.0000
0 -13 7 -0.1124 0.0000
0 -13 8 -0.1392 0.0000
0 -12 1 -1.0088 0.0000
0 -12 2 -0.5515 0.0000
0 -12 3 -0.3070 0.0000
0 -12 4 -0.1040 0.0000
0 -12 5 0.2395 0.0000
0 -12 6 0.1357 0.0000
0 -12 7 -0.1908 0.0000
0 -12 8 0.0079 0.0000
0 -12 9 0.3209 0.0000
0 -12 10 0.1022 0.0000
0 -12 11 -0.2383 0.0000
0 -12 12 -0.1812 0.0000
0 -11 1 -0.5299 0.0000
0 -11 2 -0.0714 0.0000
0 -11 3 0.0411 0.0000
0 -11 4 0.2579 0.0000
0 -11 5 0.4737 0.0000
0 -11 6 0.1839 0.0000
0 -11 7 -0.0466 0.0000
0 -11 8 0.2377 0.0000
0 -11 9 0.3557 0.0000
0 -11 10 0.0229 0.0000
0 -11 11 -0.1172 0.0000
0 -11 12 0.1595 0.0000
0 -11 13 0.3516 0.0000
0 -10 1 0.1385 0.0000
0 -10 2 0.3852 0.0000
0 -10 3 0.4005 0.0000
0 -10 4 0.6189 0.0000
0 -10 5 0.6015 0.0000
0 -10 6 0.1365 0.0000
0 -10 7 -0.0308 0.0000
0 -10 8 0.1904 0.0000
0 -10 9 0.1644 0.0000
0 -10 10 -0.0191 0.0000
0 -10 11 0.1303 0.0000
0 -10 12 0.4286 0.0000
0 -10 13 0.3986 0.0000
0 -10 14 0.1019 0.0000
0 -9 1 0.5145 0.0000
0 -9 2 0.5502 0.0000
0 -9 3 0.5825 0.0000
0 -9 4 0.7056 0.0000
0 -9 5 0.3532 0.0000
0 -9 6 -0.2384 0.0000
0 -9 7 -0.3432 0.0000
0 -9 8 -0.1589 0.0000
0 -9 9 -0.1250 0.0000
0 -9 10 -0.0551 0.0000
0 -9 11 0.1981 0.0000
0 -9 12 0.3608 0.0000
0 -9 13 0.2697 0.0000
0 -9 14 0.1124 0.0000
0 -8 1 0.6249 0.0000
0 -8 2 0.6671 0.0000
0 -8 3 0.7658 0.0000
0 -8 4 0.6397 0.0000
0 -8 5 -0.0416 0.0000
0 -8 6 -0.6322 0.0000
0 -8 7 -0.6319 0.0000
0 -8 8 -0.4146 0.0000
0 -8 9 -0.2591 0.0000
0 -8 10 -0.0933 0.0000
0 -8 11 0.0796 0.0000
0 -8 12 0.2295 0.0000
0 -8 13 0.3577 0.0000
0 -8 14 0.3963 0.0000
0 -8 15 0.2725 0.0000
0 -7 1 0.7728 0.0000
0 -7 2 1.0234 0.0000
0 -7 3 1.0850 0.0000
0 -7 4 0.5718 0.0000
0 -7 5 -0.3460 0.0000
0 -7 6 -0.8365 0.0000
0 -7 7 -0.7443 0.0000
0 -7 8 -0.5025 0.0000
0 -7 9 -0.3076 0.0000
0 -7 10 -0.1965 0.0000
0 -7 11 -0.0687 0.0000
0 -7 12 0.2388 0.0000
0 -7 13 0.5355 0.0000
0 -7 14 0.4849 0.0000
0 -7 15 0.1439 0.0000
0 -6 1 0.7895 0.0000
0 -6 2 1.2745 0.0000
0 -6 3 1.0627 0.0000
0 -6 4 0.0454 0.0000
0 -6 5 -1.0066 0.0000
0 -6 6 -1.3092 0.0000
0 -6 7 -1.0616 0.0000
0 -6 8 -0.7018 0.0000
0 -6 9 -0.4271 0.0000
0 -6 10 -0.3181 0.0000
0 -6 11 -0.1414 0.0000
0 -6 12 0.2142 0.0000
0 -6 13 0.3407 0.0000
0 -6 14 0.0232 0.0000
0 -6 15 -0.3653 0.0000
0 -5 1 0.6271 0.0000
0 -5 2 1.2116 0.0000
0 -5 3 0.3603 0.0000
0 -5 4 -1.3032 0.0000
0 -5 5 -2.3539 0.0000
0 -5 6 -2.2520 0.0000
0 -5 7 -1.5953 0.0000
0 -5 8 -0.8880 0.0000
0 -5 9 -0.4090 0.0000
0 -5 10 -0.2501 0.0000
0 -5 11 -0.1162 0.0000
0 -5 12 0.0153 0.0000
0 -5 13 -0.1641 0.0000
0 -5 14 -0.5210 0.0000
0 -5 15 -0.6662 0.0000
0 -4 1 1.8761 0.0000
0 -4 2 2.0814 0.0000
0 -4 3 -0.0542 0.0000
0 -4 4 -2.5932 0.0000
0 -4 5 -3.5142 0.0000
0 -4 6 -2.8383 0.0000
0 -4 7 -1.6753 0.0000
0 -4 8 -0.6369 0.0000
0 -4 9 -0.0688 0.0000
0 -4 10 -0.0071 0.0000
0 -4 11 -0.0787 0.0000
0 -4 12 -0.2054 0.0000
0 -4 13 -0.4265 0.0000
0 -4 14 -0.5117 0.0000
0 -4 15 -0.4371 0.0000
0 -3 1 6.9137 0.0000
0 -3 2 5.5898 0.0000
0 -3 3 1.2759 0.0000
0 -3 4 -2.3556 0.0000
0 -3 5 -3.1637 0.0000
0 -3 6 -2.1613 0.0000
0 -3 7 -0.9097 0.0000
0 -3 8 0.0272 0.0000
0 -3 9 0.3477 0.0000
0 -3 10 0.1527 0.0000
0 -3 11 -0.0827 0.0000
0 -3 12 -0.2144 0.0000
0 -3 13 -0.2039 0.0000
0 -3 14 -0.0650 0.0000
0 -3 15 -0.0728 0.0000
0 -2 3 4.1363 0.0000
0 -2 4 -0.3861 0.0000
0 -2 5 -1.1778 0.0000
0 -2 6 -0.4218 0.0000
0 -2 7 0.3021 0.0000
0 -2 8 0.7099 0.0000
0 -2 9 0.5857 0.0000
0 -2 10 0.1687 0.0000
0 -2 11 -0.0492 0.0000
0 -2 12 -0.0279 0.0000
0 -2 13 0.1198 0.0000
0 -2 14 0.1648 0.0000
0 -2 15 -0.0644 0.0000
0 -1 3 6.2457 0.0000
0 -1 4 1.7735 0.0000
0 -1 5 1.0850 0.0000
0 -1 6 1.2562 0.0000
0 -1 7 1.2668 0.0000
0 -1 8 1.1238 0.0000
0 -1 9 0.6219 0.0000
0 -1 10 0.1116 0.0000
0 -1 11 -0.0139 0.0000
0 -1 12 0.0575 0.0000
0 -1 13 0.0785 0.0000
0 -1 14 -0.1063 0.0000
0 -1 15 -0.3506 0.0000
0 0 3 5.4028 0.0000
0 0 4 2.3172 0.0000
0 0 5 2.0557 0.0000
0 0 6 1.8507 0.0000
0 0 7 1.5065 0.0000
0 0 8 1.0789 0.0000
0 0 9 0.3756 0.0000
0 0 10 -0.0950 0.0000
0 0 11 -0.1062 0.0000
0 0 12 -0.0649 0.0000
0 0 13 -0.2052 0.0000
0 0 14 -0.4491 0.0000
0 1 2 7.3524 0.0000
0 1 3 1.8100 0.0000
0 1 4 0.9712 0.0000
0 1 5 1.3986 0.0000
0 1 6 1.2849 0.0000
0 1 7 1.0378 0.0000
0 1 8 0.5639 0.0000
0 1 9 -0.1264 0.0000
0 1 10 -0.3527 0.0000
0 1 11 -0.1358 0.0000
0 1 12 -0.0387 0.0000
0 1 13 -0.1956 0.0000
0 1 14 -0.3564 0.0000
0 2 1 6.4511 0.0000
0 2 3 -1.9189 0.0000
0 2 4 -0.7556 0.0000
0 2 5 0.2278 0.0000
0 2 6 0.4250 0.0000
0 2 7 0.3992 0.0000
0 2 8 -0.0304 0.0000
0 2 9 -0.4877 0.0000
0 2 10 -0.3075 0.0000
0 2 11 0.1647 0.0000
0 2 12 0.3288 0.0000
0 2 13 0.1815 0.0000
0 3 0 3.9032 0.0000
0 3 1 -1.0974 0.0000
0 3 2 -4.0089 0.0000
0 3 3 -3.2664 0.0000
0 3 4 -1.2608 0.0000
0 3 5 -0.2303 0.0000
0 3 6 0.0866 0.0000
0 3 7 0.0900 0.0000
0 3 8 -0.2947 0.0000
0 3 9 -0.4400 0.0000
0 3 10 0.0181 0.0000
0 3 11 0.5057 0.0000
0 3 12 0.5902 0.0000
0 3 13 0.3969 0.0000
0 4 0 -0.5959 0.0000
0 4 1 -3.2949 0.0000
0 4 2 -3.8225 0.0000
0 4 3 -2.1583 0.0000
0 4 4 -0.5022 0.0000
0 4 5 0.1152 0.0000
0 4 6 0.2662 0.0000
0 4 7 0.1215 0.0000
0 4 8 -0.2119 0.0000
0 4 9 -0.1727 0.0000
0 4 10 0.2121 0.0000
0 4 11 0.4408 0.0000
0 4 12 0.3921 0.0000
0 5 0 -0.8894 0.0000
0 5 1 -2.0683 0.0000
0 5 2 -1.7279 0.0000
0 5 3 -0.3905 0.0000
0 5 4 0.4739 0.0000
0 5 5 0.6437 0.0000
0 5 6 0.5931 0.0000
0 5 7 0.3452 0.0000
0 5 8 0.0953 0.0000
0 5 9 0.1202 0.0000
0 5 10 0.1988 0.0000
0 5 11 0.1523 0.0000
0 6 0 -0.0100 0.0000
0 6 1 -0.4936 0.0000
0 6 2 -0.0821 0.0000
0 6 3 0.6884 0.0000
0 6 4 1.0043 0.0000
0 6 5 0.9862 0.0000
0 6 6 0.8781 0.0000
0 6 7 0.6487 0.0000
0 6 8 0.4736 0.0000
0 6 9 0.3796 0.0000
0 6 10 0.2001 0.0000
0 7 0 0.4041 0.0000
0 7 1 0.2172 0.0000
0 7 2 0.5530 0.0000
0 7 3 0.9566 0.0000
0 7 4 1.0379 0.0000
0 7 5 1.0074 0.0000
0 7 6 0.9060 0.0000
0 7 7 0.7073 0.0000
0 7 8 0.5659 0.0000
0 7 9 0.4069 0.0000
0 8 0 0.4170 0.0000
0 8 1 0.3112 0.0000
0 8 2 0.5361 0.0000
0 8 3 0.6815 0.0000
0 8 4 0.6521 0.0000
0 8 5 0.6387 0.0000
0 8 6 0.5138 0.0000
0 8 7 0.3159 0.0000
0 8 8 0.2335 0.0000
0 9 0 0.2009 0.0000
0 9 1 0.0621 0.0000
0 9 2 0.1761 0.0000
0 9 3 0.1610 0.0000
0 9 4 0.1429 0.0000
0 9 5 0.1844 0.0000
0 9 6 0.0369 0.0000
0 9 7 -0.1225 0.0000
0 10 0 -0.3077 0.0000
0 10 1 -0.3488 0.0000
0 10 2 -0.2022 0.0000
0 10 3 -0.1898 0.0000
0 10 4 -0.0584 0.0000
0 10 5 0.0543 0.0000
0 10 6 -0.0941 0.0000
0 11 0 -0.8482 0.0000
0 11 1 -0.5904 0.0000
0 11 2 -0.3274 0.0000
0 11 3 -0.2124 0.0000
0 12 0 -0.9742 0.0000
0 12 1 -0.4799 0.0000
1 -14 4 0.2777 0.0000
1 -14 5 0.0942 0.0000
1 -14 6 0.0423 0.0000
1 -14 7 0.0962 0.0000
1 -13 1 0.2726 0.0000
1 -13 2 0.0010 0.0000
1 -13 3 0.2230 0.0000
1 -13 4 0.3075 0.0000
1 -13 5 0.1618 0.0000
1 -13 6 0.2824 0.0000
1 -13 7 0.3233 0.0000
1 -13 8 -0.0964 0.0000
1 -12 0 0.6797 0.0000
1 -12 1 0.1494 0.0000
1 -12 2 0.0170 0.0000
1 -12 3 0.3070 0.0000
1 -12 4 0.3054 0.0000
1 -12 5 0.2541 0.0000
1 -12 6 0.4954 0.0000
1 -12 7 0.4181 0.0000
1 -12 8 -0.1315 0.0000
1 -12 9 -0.4282 0.0000
1 -12 10 -0.2747 0.0000
1 -12 11 -0.1543 0.0000
1 -11 0 0.3753 0.0000
1 -11 1 -0.0850 0.0000
1 -11 2 -0.0205 0.0000
1 -11 3 0.1540 0.0000
1 -11 4 0.0051 0.0000
1 -11 5 0.0822 0.0000
1 -11 6 0.4021 0.0000
1 -11 7 0.2475 0.0000
1 -11 8 -0.2533 0.0000
1 -11 9 -0.4212 0.0000
1 -11 10 -0.3103 0.0000
1 -11 11 -0.3542 0.0000
1 -11 12 -0.4536 0.0000
1 -11 13 -0.2746 0.0000
1 -10 0 -0.0978 0.0000
1 -10 1 -0.3428 0.0000
1 -10 2 -0.2474 0.0000
1 -10 3 -0.3343 0.0000
1 -10 4 -0.4980 0.0000
1 -10 5 -0.1572 0.0000
1 -10 6 0.2761 0.0000
1 -10 7 0.1503 0.0000
1 -10 8 -0.1999 0.0000
1 -10 9 -0.2731 0.0000
1 -10 10 -0.2409 0.0000
1 -10 11 -0.3497 0.0000
1 -10 12 -0.3557 0.0000
1 -10 13 -0.0436 0.0000
1 -9 0 -0.4915 0.0000
1 -9 1 -0.5953 0.0000
1 -9 2 -0.6246 0.0000
1 -9 3 -0.8259 0.0000
1 -9 4 -0.7042 0.0000
1 -9 5 -0.0323 0.0000
1 -9 6 0.4410 0.0000
1 -9 7 0.3056 0.0000
1 -9 8 0.0211 0.0000
1 -9 9 -0.0514 0.0000
1 -9 10 -0.0625 0.0000
1 -9 11 -0.1620 0.0000
1 -9 12 -0.1479 0.0000
1 -9 13 0.1248 0.0000
1 -9 14 0.4033 0.0000
1 -8 0 -0.7737 0.0000
1 -8 1 -0.9043 0.0000
1 -8 2 -1.0229 0.0000
1 -8 3 -1.0289 0.0000
1 -8 4 -0.4727 0.0000
1 -8 5 0.3569 0.0000
1 -8 6 0.6789 0.0000
1 -8 7 0.4304 0.0000
1 -8 8 0.1190 0.0000
1 -8 9 0.0338 0.0000
1 -8 10 0.0278 0.0000
1 -8 11 -0.1132 0.0000
1 -8 12 -0.2032 0.0000
1 -8 13 0.0288 0.0000
1 -8 14 0.3914 0.0000
1 -7 0 -0.9673 0.0000
1 -7 1 -1.2455 0.0000
1 -7 2 -1.3083 0.0000
1 -7 3 -0.9164 0.0000
1 -7 4 -0.0136 0.0000
1 -7 5 0.7420 0.0000
1 -7 6 0.8257 0.0000
1 -7 7 0.4647 0.0000
1 -7 8 0.1332 0.0000
1 -7 9 0.0716 0.0000
1 -7 10 0.0559 0.0000
1 -7 11 -0.1959 0.0000
1 -7 12 -0.3415 0.0000
1 -7 13 0.0174 0.0000
1 -7 14 0.5180 0.0000
1 -6 0 -0.7937 0.0000
1 -6 1 -1.2955 0.0000
1 -6 2 -1.1554 0.0000
1 -6 3 -0.2679 0.0000
1 -6 4 0.8604 0.0000
1 -6 5 1.4109 0.0000
1 -6 6 1.2255 0.0000
1 -6 7 0.7128 0.0000
1 -6 8 0.3108 0.0000
1 -6 9 0.2306 0.0000
1 -6 10 0.1456 0.0000
1 -6 11 -0.1819 0.0000
1 -6 12 -0.2220 0.0000
1 -6 13 0.2943 0.0000
1 -6 14 0.7166 0.0000
1 -6 15 0.5704 0.0000
1 -5 0 -0.2284 0.0000
1 -5 1 -0.9751 0.0000
1 -5 2 -0.3666 0.0000
1 -5 3 1.1956 0.0000
1 -5 4 2.4660 0.0000
1 -5 5 2.6203 0.0000
1 -5 6 1.9605 0.0000
1 -5 7 1.0965 0.0000
1 -5 8 0.5020 0.0000
1 -5 9 0.3456 0.0000
1 -5 10 0.1939 0.0000
1 -5 11 -0.0917 0.0000
1 -5 12 0.0355 0.0000
1 -5 13 0.5081 0.0000
1 -5 14 0.6279 0.0000
1 -5 15 0.3475 0.0000
1 -4 0 -0.6341 0.0000
1 -4 1 -1.2980 0.0000
1 -4 3 2.9496 0.0000
1 -4 4 4.2189 0.0000
1 -4 5 3.7015 0.0000
1 -4 6 2.3782 0.0000
1 -4 7 1.1118 0.0000
1 -4 8 0.3878 0.0000
1 -4 9 0.2323 0.0000
1 -4 10 0.0985 0.0000
1 -4 11 -0.0602 0.0000
1 -4 12 0.1481 0.0000
1 -4 13 0.3807 0.0000
1 -4 14 0.2516 0.0000
1 -4 15 0.1205 0.0000
1 -3 0 -4.1859 0.0000
1 -3 3 3.6617 0.0000
1 -3 4 4.7350 0.0000
1 -3 5 3.5323 0.0000
1 -3 6 1.8150 0.0000
1 -3 7 0.5199 0.0000
1 -3 8 -0.0267 0.0000
1 -3 9 -0.0273 0.0000
1 -3 10 -0.0665 0.0000
1 -3 11 -0.0807 0.0000
1 -3 12 0.1152 0.0000
1 -3 13 0.1080 0.0000
1 -3 14 -0.0465 0.0000
1 -3 15 0.0831 0.0000
1 -2 3 2.4439 0.0000
1 -2 4 3.1803 0.0000
1 -2 5 1.7374 0.0000
1 -2 6 0.3053 0.0000
1 -2 7 -0.4832 0.0000
1 -2 8 -0.5736 0.0000
1 -2 9 -0.3335 0.0000
1 -2 10 -0.2314 0.0000
1 -2 11 -0.0831 0.0000
1 -2 12 0.0977 0.0000
1 -2 13 -0.0168 0.0000
1 -2 14 -0.0648 0.0000
1 -1 3 -0.0133 0.0000
1 -1 4 0.3332 0.0000
1 -1 5 -0.7603 0.0000
1 -1 6 -1.3804 0.0000
1 -1 7 -1.4244 0.0000
1 -1 8 -1.0149 0.0000
1 -1 9 -0.5468 0.0000
1 -1 10 -0.2843 0.0000
1 -1 11 0.0152 0.0000
1 -1 12 0.1857 0.0000
1 -1 13 0.0667 0.0000
1 -1 14 0.1054 0.0000
1 0 2 -5.3799 0.0000
1 0 3 -1.7521 0.0000
1 0 4 -1.8229 0.0000
1 0 5 -2.3212 0.0000
1 0 6 -2.1711 0.0000
1 0 7 -1.6654 0.0000
1 0 8 -0.9459 0.0000
1 0 9 -0.3899 0.0000
1 0 10 -0.0865 0.0000
1 0 11 0.2059 0.0000
1 0 12 0.2945 0.0000
1 0 13 0.2092 0.0000
1 0 14 0.2787 0.0000
1 1 1 -9.7125 0.0000
1 1 2 -3.1796 0.0000
1 1 3 -1.3869 0.0000
1 1 4 -1.9270 0.0000
1 1 5 -2.0742 0.0000
1 1 6 -1.6457 0.0000
1 1 7 -1.0135 0.0000
1 1 8 -0.3135 0.0000
1 1 9 0.0595 0.0000
1 1 10 0.1569 0.0000
1 1 11 0.2371 0.0000
1 1 12 0.2133 0.0000
1 1 13 0.2139 0.0000
1 2 0 -10.0423 0.0000
1 2 1 -3.1755 0.0000
1 2 2 0.4548 0.0000
1 2 3 0.3450 0.0000
1 2 4 -0.6404 0.0000
1 2 5 -0.8297 0.0000
1 2 6 -0.5785 0.0000
1 2 7 -0.1370 0.0000
1 2 8 0.2831 0.0000
1 2 9 0.2959 0.0000
1 2 10 0.0971 0.0000
1 2 11 -0.0251 0.0000
1 2 12 -0.0507 0.0000
1 2 13 0.0818 0.0000
1 3 0 -2.1779 0.0000
1 3 1 1.8850 0.0000
1 3 2 2.8125 0.0000
1 3 3 1.4802 0.0000
1 3 4 0.3189 0.0000
1 3 5 -0.0091 0.0000
1 3 6 0.0143 0.0000
1 3 7 0.2585 0.0000
1 3 8 0.4102 0.0000
1 3 9 0.1945 0.0000
1 3 10 -0.0991 0.0000
1 3 11 -0.2352 0.0000
1 3 12 -0.1799 0.0000
1 4 0 1.6297 0.0000
1 4 1 3.3074 0.0000
1 4 2 2.6978 0.0000
1 4 3 1.1307 0.0000
1 4 4 0.2142 0.0000
1 4 5 -0.0416 0.0000
1 4 6 -0.0153 0.0000
1 4 7 0.2023 0.0000
1 4 8 0.2819 0.0000
1 4 9 0.1173 0.0000
1 4 10 -0.0470 0.0000
1 4 11 -0.1189 0.0000
1 5 0 1.8012 0.0000
1 5 1 2.1754 0.0000
1 5 2 1.1790 0.0000
1 5 3 0.0341 0.0000
1 5 4 -0.4137 0.0000
1 5 5 -0.4472 0.0000
1 5 6 -0.2877 0.0000
1 5 7 -0.0191 0.0000
1 5 8 0.1157 0.0000
1 5 9 0.1300 0.0000
1 5 10 0.1101 0.0000
1 5 11 0.0343 0.0000
1 6 0 0.7959 0.0000
1 6 1 0.6565 0.0000
1 6 2 -0.1933 0.0000
1 6 3 -0.8020 0.0000
1 6 4 -0.8803 0.0000
1 6 5 -0.7737 0.0000
1 6 6 -0.5500 0.0000
1 6 7 -0.2826 0.0000
1 6 8 -0.1086 0.0000
1 6 9 0.0211 0.0000
1 6 10 0.0534 0.0000
1 7 0 0.1314 0.0000
1 7 1 -0.1785 0.0000
1 7 2 -0.7619 0.0000
1 7 3 -0.9640 0.0000
1 7 4 -0.8836 0.0000
1 7 5 -0.7740 0.0000
1 7 6 -0.5652 0.0000
1 7 7 -0.3577 0.0000
1 7 8 -0.2251 0.0000
1 7 9 -0.0997 0.0000
1 8 0 -0.0424 0.0000
1 8 1 -0.3408 0.0000
1 8 2 -0.6262 0.0000
1 8 3 -0.5675 0.0000
1 8 4 -0.4854 0.0000
1 8 5 -0.4128 0.0000
1 8 6 -0.2204 0.0000
1 8 7 -0.1104 0.0000
1 8 8 -0.0962 0.0000
1 9 0 0.0470 0.0000
1 9 1 -0.2049 0.0000
1 9 2 -0.2703 0.0000
1 9 3 -0.1373 0.0000
1 9 4 -0.1424 0.0000
1 9 5 -0.0659 0.0000
1 9 6 0.1245 0.0000
1 9 7 0.1181 0.0000
1 10 0 0.1632 0.0000
1 10 1 -0.1718 0.0000
1 10 2 -0.1804 0.0000
1 10 3 -0.1269 0.0000
1 10 4 -0.1962 0.0000
1 11 0 0.1178 0.0000
1 11 1 -0.3160 0.0000
1 11 2 -0.3048 0.0000
1 12 0 -0.0481 0.0000
2 -14 5 -0.1701 0.0000
2 -14 6 -0.0340 0.0000
2 -14 7 0.2225 0.0000
2 -13 0 -0.2405 0.0000
2 -13 1 0.1368 0.0000
2 -13 2 -0.0495 0.0000
2 -13 3 -0.4214 0.0000
2 -13 4 -0.3506 0.0000
2 -13 5 -0.1558 0.0000
2 -13 6 -0.0669 0.0000
2 -13 7 0.2139 0.0000
2 -13 8 0.5180 0.0000
2 -13 9 0.4095 0.0000
2 -12 0 -0.1758 0.0000
2 -12 1 0.1073 0.0000
2 -12 2 -0.1963 0.0000
2 -12 3 -0.4390 0.0000
2 -12 4 -0.2757 0.0000
2 -12 5 -0.1788 0.0000
2 -12 6 -0.1486 0.0000
2 -12 7 0.1484 0.0000
2 -12 8 0.4205 0.0000
2 -12 9 0.2899 0.0000
2 -12 10 0.0151 0.0000
2 -11 0 -0.1080 0.0000
2 -11 1 -0.0183 0.0000
2 -11 2 -0.2517 0.0000
2 -11 3 -0.2424 0.0000
2 -11 4 -0.0791 0.0000
2 -11 5 -0.1484 0.0000
2 -11 6 -0.1649 0.0000
2 -11 7 0.1320 0.0000
2 -11 8 0.3649 0.0000
2 -11 9 0.2720 0.0000
2 -11 10 0.1446 0.0000
2 -11 11 0.1770 0.0000
2 -11 12 0.1321 0.0000
2 -10 0 0.0044 0.0000
2 -10 1 0.0490 0.0000
2 -10 2 0.0613 0.0000
2 -10 3 0.2084 0.0000
2 -10 4 0.1572 0.0000
2 -10 5 -0.1329 0.0000
2 -10 6 -0.1884 0.0000
2 -10 7 0.0848 0.0000
2 -10 8 0.2748 0.0000
2 -10 9 0.2058 0.0000
2 -10 10 0.1325 0.0000
2 -10 11 0.1461 0.0000
2 -10 12 0.0363 0.0000
2 -10 13 -0.1056 0.0000
2 -9 0 0.3576 0.0000
2 -9 1 0.5181 0.0000
2 -9 2 0.6712 0.0000
2 -9 3 0.6371 0.0000
2 -9 4 0.2238 0.0000
2 -9 5 -0.2229 0.0000
2 -9 6 -0.2611 0.0000
2 -9 7 0.0149 0.0000
2 -9 8 0.1909 0.0000
2 -9 9 0.1161 0.0000
2 -9 10 0.0312 0.0000
2 -9 11 0.0331 0.0000
2 -9 12 -0.0673 0.0000
2 -9 13 -0.2092 0.0000
2 -8 0 1.0068 0.0000
2 -8 1 1.2294 0.0000
2 -8 2 1.2251 0.0000
2 -8 3 0.7958 0.0000
2 -8 4 0.1060 0.0000
2 -8 5 -0.3349 0.0000
2 -8 6 -0.2810 0.0000
2 -8 7 0.0574 0.0000
2 -8 8 0.2634 0.0000
2 -8 9 0.1763 0.0000
2 -8 10 0.0860 0.0000
2 -8 11 0.1050 0.0000
2 -8 12 -0.0404 0.0000
2 -8 13 -0.3309 0.0000
2 -7 0 1.5735 0.0000
2 -7 1 1.6881 0.0000
2 -7 2 1.3250 0.0000
2 -7 3 0.5285 0.0000
2 -7 4 -0.2414 0.0000
2 -7 5 -0.5522 0.0000
2 -7 6 -0.3548 0.0000
2 -7 7 0.1001 0.0000
2 -7 8 0.3481 0.0000
2 -7 9 0.2307 0.0000
2 -7 10 0.1365 0.0000
2 -7 11 0.1307 0.0000
2 -7 12 -0.1626 0.0000
2 -7 13 -0.6018 0.0000
2 -7 14 -0.6570 0.0000
2 -6 0 1.4243 0.0000
2 -6 1 1.3571 0.0000
2 -6 2 0.6002 0.0000
2 -6 3 -0.4367 0.0000
2 -6 4 -1.1011 0.0000
2 -6 5 -1.1441 0.0000
2 -6 6 -0.6869 0.0000
2 -6 7 -0.0529 0.0000
2 -6 8 0.2104 0.0000
2 -6 9 0.0430 0.0000
2 -6 10 -0.0378 0.0000
2 -6 11 -0.0715 0.0000
2 -6 12 -0.4392 0.0000
2 -6 13 -0.7709 0.0000
2 -6 14 -0.5454 0.0000
2 -5 0 0.5892 0.0000
2 -5 1 0.2841 0.0000
2 -5 2 -0.9419 0.0000
2 -5 3 -2.1175 0.0000
2 -5 4 -2.4360 0.0000
2 -5 5 -1.9619 0.0000
2 -5 6 -1.0835 0.0000
2 -5 7 -0.2618 0.0000
2 -5 8 -0.0367 0.0000
2 -5 9 -0.2188 0.0000
2 -5 10 -0.2060 0.0000
2 -5 11 -0.1979 0.0000
2 -5 12 -0.4693 0.0000
2 -5 13 -0.4996 0.0000
2 -5 14 -0.0866 0.0000
2 -4 0 0.3495 0.0000
2 -4 1 -0.6024 0.0000
2 -4 2 -2.5937 0.0000
2 -4 3 -3.8304 0.0000
2 -4 4 -3.5511 0.0000
2 -4 5 -2.4132 0.0000
2 -4 6 -1.1560 0.0000
2 -4 7 -0.2936 0.0000
2 -4 8 -0.1616 0.0000
2 -4 9 -0.2705 0.0000
2 -4 10 -0.1152 0.0000
2 -4 11 -0.0797 0.0000
2 -4 12 -0.2179 0.0000
2 -4 13 -0.0126 0.0000
2 -4 14 0.2937 0.0000
2 -3 0 2.1498 0.0000
2 -3 1 -0.2874 0.0000
2 -3 2 -3.3733 0.0000
2 -3 3 -4.5582 0.0000
2 -3 4 -3.6378 0.0000
2 -3 5 -2.0660 0.0000
2 -3 6 -0.7689 0.0000
2 -3 7 -0.1028 0.0000
2 -3 8 -0.0870 0.0000
2 -3 9 -0.0878 0.0000
2 -3 10 0.0886 0.0000
2 -3 11 -0.0002 0.0000
2 -3 12 -0.0605 0.0000
2 -3 13 0.2590 0.0000
2 -3 14 0.3389 0.0000
2 -2 0 5.8453 0.0000
2 -2 1 1.2976 0.0000
2 -2 2 -2.7555 0.0000
2 -2 3 -3.6822 0.0000
2 -2 4 -2.3689 0.0000
2 -2 5 -0.8702 0.0000
2 -2 6 0.0593 0.0000
2 -2 7 0.3423 0.0000
2 -2 8 0.2072 0.0000
2 -2 9 0.1967 0.0000
2 -2 10 0.1581 0.0000
2 -2 11 -0.1415 0.0000
2 -2 12 -0.0776 0.0000
2 -2 13 0.3351 0.0000
2 -2 14 0.2669 0.0000
2 -1 0 9.4685 0.0000
2 -1 1 3.1830 0.0000
2 -1 2 -1.0564 0.0000
2 -1 3 -1.5065 0.0000
2 -1 4 -0.2068 0.0000
2 -1 5 0.7617 0.0000
2 -1 6 1.0759 0.0000
2 -1 7 0.8799 0.0000
2 -1 8 0.5273 0.0000
2 -1 9 0.3503 0.0000
2 -1 10 0.0183 0.0000
2 -1 11 -0.3294 0.0000
2 -1 12 -0.0276 0.0000
2 -1 13 0.4146 0.0000
2 -1 14 0.2422 0.0000
2 0 0 10.6829 0.0000
2 0 1 4.0144 0.0000
2 0 2 0.5760 0.0000
2 0 3 0.6460 0.0000
2 0 4 1.5866 0.0000
2 0 5 1.8684 0.0000
2 0 6 1.5831 0.0000
2 0 7 0.9816 0.0000
2 0 8 0.4762 0.0000
2 0 9 0.1881 0.0000
2 0 10 -0.2108 0.0000
2 0 11 -0.3347 0.0000
2 0 12 0.1497 0.0000
2 0 13 0.4177 0.0000
2 1 1 2.9832 0.0000
2 1 2 0.9382 0.0000
2 1 3 1.3977 0.0000
2 1 4 1.9250 0.0000
2 1 5 1.7586 0.0000
2 1 6 1.1924 0.0000
2 1 7 0.5085 0.0000
2 1 8 0.1141 0.0000
2 1 9 -0.0556 0.0000
2 1 10 -0.2507 0.0000
2 1 11 -0.1063 0.0000
2 1 12 0.2775 0.0000
2 1 13 0.2142 0.0000
2 2 0 4.2113 0.0000
2 2 1 0.6695 0.0000
2 2 2 0.0305 0.0000
2 2 3 0.7526 0.0000
2 2 4 1.1128 0.0000
2 2 5 0.9377 0.0000
2 2 6 0.5033 0.0000
2 2 7 0.0708 0.0000
2 2 8 -0.0519 0.0000
2 2 9 -0.0475 0.0000
2 2 10 -0.0487 0.0000
2 2 11 0.1362 0.0000
2 2 12 0.1949 0.0000
2 3 0 0.3026 0.0000
2 3 1 -1.2978 0.0000
2 3 2 -0.9292 0.0000
2 3 3 -0.0592 0.0000
2 3 4 0.3405 0.0000
2 3 5 0.3725 0.0000
2 3 6 0.1974 0.0000
2 3 7 0.0112 0.0000
2 3 8 -0.0132 0.0000
2 3 9 -0.0219 0.0000
2 3 10 0.0052 0.0000
2 3 11 0.0820 0.0000
2 4 0 -1.5108 0.0000
2 4 1 -1.8120 0.0000
2 4 2 -0.9887 0.0000
2 4 3 -0.1879 0.0000
2 4 4 0.1657 0.0000
2 4 5 0.2614 0.0000
2 4 6 0.1579 0.0000
2 4 7 -0.0287 0.0000
2 4 8 -0.1948 0.0000
2 4 9 -0.3137 0.0000
2 4 10 -0.2597 0.0000
2 4 11 -0.1763 0.0000
2 5 0 -1.4486 0.0000
2 5 1 -1.1238 0.0000
2 5 2 -0.3025 0.0000
2 5 3 0.1960 0.0000
2 5 4 0.3304 0.0000
2 5 5 0.3131 0.0000
2 5 6 0.1264 0.0000
2 5 7 -0.1741 0.0000
2 5 8 -0.4723 0.0000
2 5 9 -0.5828 0.0000
2 5 10 -0.4043 0.0000
2 6 0 -0.6672 0.0000
2 6 1 -0.1280 0.0000
2 6 2 0.4505 0.0000
2 6 3 0.5891 0.0000
2 6 4 0.5292 0.0000
2 6 5 0.4239 0.0000
2 6 6 0.1858 0.0000
2 6 7 -0.1395 0.0000
2 6 8 -0.4119 0.0000
2 6 9 -0.4204 0.0000
2 7 0 -0.0309 0.0000
2 7 1 0.4836 0.0000
2 7 2 0.7416 0.0000
2 7 3 0.6439 0.0000
2 7 4 0.5475 0.0000
2 7 5 0.4347 0.0000
2 7 6 0.2125 0.0000
2 7 7 -0.0225 0.0000
2 7 8 -0.1717 0.0000
2 8 0 0.1623 0.0000
2 8 1 0.5073 0.0000
2 8 2 0.4831 0.0000
2 8 3 0.3220 0.0000
2 8 4 0.2692 0.0000
2 8 5 0.1358 0.0000
2 8 6 -0.0359 0.0000
2 8 7 -0.1060 0.0000
2 9 0 0.1088 0.0000
2 9 1 0.2903 0.0000
2 9 2 0.1196 0.0000
2 9 3 0.0138 0.0000
2 9 4 -0.0313 0.0000
2 9 5 -0.2146 0.0000
2 10 0 0.1942 0.0000
2 10 1 0.2747 0.0000
2 10 2 0.0834 0.0000
2 10 3 0.0546 0.0000
2 11 0 0.4057 0.0000
2 11 1 0.3499 0.0000
2 12 0 0.4048 0.0000
3 -14 6 0.2836 0.0000
3 -13 0 -0.3390 0.0000
3 -13 1 -0.4507 0.0000
3 -13 2 -0.0713 0.0000
3 -13 3 0.1987 0.0000
3 -13 4 0.1814 0.0000
3 -13 5 0.2125 0.0000
3 -13 6 0.2417 0.0000
3 -13 7 0.1172 0.0000
3 -13 8 0.0730 0.0000
3 -13 9 0.2144 0.0000
3 -12 0 -0.1408 0.0000
3 -12 1 -0.1220 0.0000
3 -12 2 0.1923 0.0000
3 -12 3 0.2531 0.0000
3 -12 4 0.1055 0.0000
3 -12 5 0.0769 0.0000
3 -12 6 0.0757 0.0000
3 -12 7 0.0090 0.0000
3 -12 8 0.0627 0.0000
3 -12 9 0.2176 0.0000
3 -12 10 0.2005 0.0000
3 -12 11 0.0466 0.0000
3 -11 0 0.2117 0.0000
3 -11 1 0.1858 0.0000
3 -11 2 0.2467 0.0000
3 -11 3 0.1354 0.0000
3 -11 4 -0.0126 0.0000
3 -11 5 -0.0380 0.0000
3 -11 6 -0.0483 0.0000
3 -11 7 -0.0740 0.0000
3 -11 8 0.0067 0.0000
3 -11 9 0.1204 0.0000
3 -11 10 0.0673 0.0000
3 -11 11 -0.0414 0.0000
3 -10 0 0.2761 0.0000
3 -10 1 0.0645 0.0000
3 -10 2 -0.0023 0.0000
3 -10 3 0.0025 0.0000
3 -10 4 0.0338 0.0000
3 -10 5 0.0625 0.0000
3 -10 6 0.0381 0.0000
3 -10 7 -0.0130 0.0000
3 -10 8 0.0282 0.0000
3 -10 9 0.1259 0.0000
3 -10 10 0.1156 0.0000
3 -10 11 0.0477 0.0000
3 -10 12 -0.0299 0.0000
3 -9 0 -0.1821 0.0000
3 -9 1 -0.4610 0.0000
3 -9 2 -0.3517 0.0000
3 -9 3 -0.0417 0.0000
3 -9 4 0.1727 0.0000
3 -9 5 0.2281 0.0000
3 -9 6 0.1516 0.0000
3 -9 7 0.0035 0.0000
3 -9 8 -0.0140 0.0000
3 -9 9 0.1210 0.0000
3 -9 10 0.1742 0.0000
3 -9 11 0.0893 0.0000
3 -9 12 -0.0773 0.0000
3 -9 13 -0.2856 0.0000
3 -8 0 -1.0208 0.0000
3 -8 1 -1.1436 0.0000
3 -8 2 -0.7302 0.0000
3 -8 3 -0.1947 0.0000
3 -8 4 0.1016 0.0000
3 -8 5 0.1682 0.0000
3 -8 6 0.0183 0.0000
3 -8 7 -0.2500 0.0000
3 -8 8 -0.2802 0.0000
3 -8 9 -0.0483 0.0000
3 -8 10 0.0713 0.0000
3 -8 11 -0.0162 0.0000
3 -8 12 -0.1514 0.0000
3 -8 13 -0.2304 0.0000
3 -7 0 -1.7841 0.0000
3 -7 1 -1.6388 0.0000
3 -7 2 -0.9794 0.0000
3 -7 3 -0.3353 0.0000
3 -7 4 0.0103 0.0000
3 -7 5 0.0809 0.0000
3 -7 6 -0.1813 0.0000
3 -7 7 -0.5474 0.0000
3 -7 8 -0.4977 0.0000
3 -7 9 -0.1196 0.0000
3 -7 10 0.0613 0.0000
3 -7 11 0.0025 0.0000
3 -7 12 -0.0514 0.0000
3 -7 13 -0.0686 0.0000
3 -6 0 -1.7908 0.0000
3 -6 1 -1.3446 0.0000
3 -6 2 -0.4733 0.0000
3 -6 3 0.2127 0.0000
3 -6 4 0.4855 0.0000
3 -6 5 0.3715 0.0000
3 -6 6 -0.1304 0.0000
3 -6 7 -0.5671 0.0000
3 -6 8 -0.3798 0.0000
3 -6 9 0.0980 0.0000
3 -6 10 0.2518 0.0000
3 -6 11 0.1695 0.0000
3 -6 12 0.1062 0.0000
3 -6 13 -0.0043 0.0000
3 -6 14 -0.1680 0.0000
3 -5 0 -0.7725 0.0000
3 -5 1 0.0677 0.0000
3 -5 2 1.1393 0.0000
3 -5 3 1.6428 0.0000
3 -5 4 1.4768 0.0000
3 -5 5 0.8777 0.0000
3 -5 6 0.0539 0.0000
3 -5 7 -0.3983 0.0000
3 -5 8 -0.1056 0.0000
3 -5 9 0.3170 0.0000
3 -5 10 0.3352 0.0000
3 -5 11 0.2037 0.0000
3 -5 12 0.0788 0.0000
3 -5 13 -0.1436 0.0000
3 -5 14 -0.2918 0.0000
3 -4 0 0.4607 0.0000
3 -4 1 1.9062 0.0000
3 -4 2 3.0834 0.0000
3 -4 3 3.0623 0.0000
3 -4 4 2.1922 0.0000
3 -4 5 1.0984 0.0000
3 -4 6 0.1131 0.0000
3 -4 7 -0.2525 0.0000
3 -4 8 0.0530 0.0000
3 -4 9 0.2921 0.0000
3 -4 10 0.2134 0.0000
3 -4 11 0.1330 0.0000
3 -4 12 -0.0292 0.0000
3 -4 13 -0.2978 0.0000
3 -3 0 0.6518 0.0000
3 -3 1 2.9180 0.0000
3 -3 2 4.0410 0.0000
3 -3 3 3.3849 0.0000
3 -3 4 2.0312 0.0000
3 -3 5 0.8304 0.0000
3 -3 6 -0.0139 0.0000
3 -3 7 -0.2083 0.0000
3 -3 8 0.0367 0.0000
3 -3 9 0.1194 0.0000
3 -3 10 0.1203 0.0000
3 -3 11 0.1620 0.0000
3 -3 12 -0.0956 0.0000
3 -3 13 -0.3971 0.0000
3 -2 0 -0.5491 0.0000
3 -2 1 2.4586 0.0000
3 -2 2 3.3475 0.0000
3 -2 3 2.2986 0.0000
3 -2 4 0.9883 0.0000
3 -2 5 0.0997 0.0000
3 -2 6 -0.3895 0.0000
3 -2 7 -0.3584 0.0000
3 -2 8 -0.1486 0.0000
3 -2 9 -0.0702 0.0000
3 -2 10 0.1216 0.0000
3 -2 11 0.1627 0.0000
3 -2 12 -0.3068 0.0000
3 -1 0 -2.2526 0.0000
3 -1 1 0.9540 0.0000
3 -1 2 1.4613 0.0000
3 -1 3 0.4097 0.0000
3 -1 4 -0.4552 0.0000
3 -1 5 -0.8490 0.0000
3 -1 6 -0.8822 0.0000
3 -1 7 -0.5672 0.0000
3 -1 8 -0.3135 0.0000
3 -1 9 -0.1403 0.0000
3 -1 10 0.1358 0.0000
3 -1 11 -0.0410 0.0000
3 -1 12 -0.6840 0.0000
3 0 0 -3.1724 0.0000
3 0 1 -0.4797 0.0000
3 0 2 -0.3458 0.0000
3 0 3 -1.0946 0.0000
3 0 4 -1.4297 0.0000
3 0 5 -1.3645 0.0000
3 0 6 -0.9574 0.0000
3 0 7 -0.4125 0.0000
3 0 8 -0.1474 0.0000
3 0 9 0.0386 0.0000
3 0 10 0.1601 0.0000
3 0 11 -0.3072 0.0000
3 0 12 -0.8865 0.0000
3 1 0 -2.6424 0.0000
3 1 1 -0.8743 0.0000
3 1 2 -0.9634 0.0000
3 1 3 -1.3675 0.0000
3 1 4 -1.3941 0.0000
3 1 5 -1.0954 0.0000
3 1 6 -0.4835 0.0000
3 1 7 0.0435 0.0000
3 1 8 0.1902 0.0000
3 1 9 0.2574 0.0000
3 1 10 0.1113 0.0000
3 1 11 -0.4628 0.0000
3 1 12 -0.7365 0.0000
3 2 0 -1.1239 0.0000
3 2 1 -0.2635 0.0000
3 2 2 -0.4894 0.0000
3 2 3 -0.7845 0.0000
3 2 4 -0.8465 0.0000
3 2 5 -0.6090 0.0000
3 2 6 -0.1103 0.0000
3 2 7 0.2117 0.0000
3 2 8 0.2573 0.0000
3 2 9 0.2336 0.0000
3 2 10 -0.0558 0.0000
3 2 11 -0.4585 0.0000
3 3 0 0.2560 0.0000
3 3 1 0.4406 0.0000
3 3 2 0.0582 0.0000
3 3 3 -0.3260 0.0000
3 3 4 -0.5388 0.0000
3 3 5 -0.4490 0.0000
3 3 6 -0.1409 0.0000
3 3 7 0.0829 0.0000
3 3 8 0.2094 0.0000
3 3 9 0.1945 0.0000
3 3 10 -0.0865 0.0000
3 3 11 -0.2330 0.0000
3 4 0 0.7779 0.0000
3 4 1 0.5409 0.0000
3 4 2 0.0770 0.0000
3 4 3 -0.2700 0.0000
3 4 4 -0.4269 0.0000
3 4 5 -0.3440 0.0000
3 4 6 -0.0906 0.0000
3 4 7 0.2130 0.0000
3 4 8 0.4671 0.0000
3 4 9 0.4149 0.0000
3 4 10 0.1354 0.0000
3 5 0 0.5479 0.0000
3 5 1 0.1209 0.0000
3 5 2 -0.2055 0.0000
3 5 3 -0.2703 0.0000
3 5 4 -0.2101 0.0000
3 5 5 -0.0757 0.0000
3 5 6 0.1680 0.0000
3 5 7 0.5184 0.0000
3 5 8 0.7388 0.0000
3 5 9 0.5520 0.0000
3 6 0 0.0404 0.0000
3 6 1 -0.3625 0.0000
3 6 2 -0.4106 0.0000
3 6 3 -0.2160 0.0000
3 6 4 -0.0768 0.0000
3 6 5 -0.0007 0.0000
3 6 6 0.1628 0.0000
3 6 7 0.4326 0.0000
3 7 0 -0.3045 0.0000
3 7 1 -0.5402 0.0000
3 7 2 -0.3971 0.0000
3 7 3 -0.2031 0.0000
3 7 4 -0.1705 0.0000
3 7 5 -0.1824 0.0000
3 7 6 -0.0991 0.0000
3 7 7 0.0669 0.0000
3 8 0 -0.3166 0.0000
3 8 1 -0.3879 0.0000
3 8 2 -0.2460 0.0000
3 8 3 -0.2032 0.0000
3 8 4 -0.2226 0.0000
3 8 5 -0.1992 0.0000
3 8 6 -0.1407 0.0000
3 9 0 -0.2679 0.0000
3 9 1 -0.2614 0.0000
3 9 2 -0.2078 0.0000
3 9 3 -0.2265 0.0000
3 9 4 -0.1260 0.0000
3 10 0 -0.4098 0.0000
3 10 1 -0.3440 0.0000
3 10 2 -0.3358 0.0000
3 10 3 -0.2906 0.0000
3 11 0 -0.4279 0.0000
4 -13 0 0.3786 0.0000
4 -13 1 0.3594 0.0000
4 -13 2 0.0852 0.0000
4 -13 3 -0.0778 0.0000
4 -13 4 -0.2679 0.0000
4 -13 5 -0.6069 0.0000
4 -13 6 -0.7895 0.0000
4 -12 0 0.1698 0.0000
4 -12 1 0.0462 0.0000
4 -12 2 -0.2253 0.0000
4 -12 3 -0.3177 0.0000
4 -12 4 -0.3887 0.0000
4 -12 5 -0.5744 0.0000
4 -12 6 -0.6717 0.0000
4 -12 7 -0.5852 0.0000
4 -12 8 -0.4237 0.0000
4 -12 9 -0.1855 0.0000
4 -11 0 -0.1396 0.0000
4 -11 1 -0.2100 0.0000
4 -11 2 -0.3949 0.0000
4 -11 3 -0.3888 0.0000
4 -11 4 -0.2817 0.0000
4 -11 5 -0.2736 0.0000
4 -11 6 -0.2848 0.0000
4 -11 7 -0.1983 0.0000
4 -11 8 -0.0687 0.0000
4 -11 9 0.0822 0.0000
4 -11 10 0.2434 0.0000
4 -11 11 0.2900 0.0000
4 -10 0 -0.0320 0.0000
4 -10 1 -0.0721 0.0000
4 -10 2 -0.3280 0.0000
4 -10 3 -0.3545 0.0000
4 -10 4 -0.1776 0.0000
4 -10 5 -0.0974 0.0000
4 -10 6 -0.0675 0.0000
4 -10 7 0.0454 0.0000
4 -10 8 0.1149 0.0000
4 -10 9 0.1012 0.0000
4 -10 10 0.1252 0.0000
4 -10 11 0.2057 0.0000
4 -9 0 0.4663 0.0000
4 -9 1 0.2583 0.0000
4 -9 2 -0.2145 0.0000
4 -9 3 -0.3499 0.0000
4 -9 4 -0.2314 0.0000
4 -9 5 -0.1795 0.0000
4 -9 6 -0.0627 0.0000
4 -9 7 0.1551 0.0000
4 -9 8 0.1720 0.0000
4 -9 9 0.0179 0.0000
4 -9 10 0.0187 0.0000
4 -9 11 0.2416 0.0000
4 -9 12 0.4792 0.0000
4 -8 0 1.0374 0.0000
4 -8 1 0.5970 0.0000
4 -8 2 -0.0150 0.0000
4 -8 3 -0.2346 0.0000
4 -8 4 -0.2406 0.0000
4 -8 5 -0.1999 0.0000
4 -8 6 0.0856 0.0000
4 -8 7 0.3918 0.0000
4 -8 8 0.2818 0.0000
4 -8 9 -0.0043 0.0000
4 -8 10 0.0439 0.0000
4 -8 11 0.4088 0.0000
4 -8 12 0.6707 0.0000
4 -7 0 1.4633 0.0000
4 -7 1 0.8981 0.0000
4 -7 2 0.2635 0.0000
4 -7 3 -0.0319 0.0000
4 -7 4 -0.1313 0.0000
4 -7 5 -0.0069 0.0000
4 -7 6 0.4166 0.0000
4 -7 7 0.6218 0.0000
4 -7 8 0.2481 0.0000
4 -7 9 -0.1532 0.0000
4 -7 10 -0.0001 0.0000
4 -7 11 0.4918 0.0000
4 -7 12 0.7421 0.0000
4 -6 0 1.4107 0.0000
4 -6 1 0.7658 0.0000
4 -6 2 0.1271 0.0000
4 -6 3 -0.1490 0.0000
4 -6 4 -0.1274 0.0000
4 -6 5 0.2005 0.0000
4 -6 6 0.6475 0.0000
4 -6 7 0.5954 0.0000
4 -6 8 -0.0247 0.0000
4 -6 9 -0.4079 0.0000
4 -6 10 -0.0863 0.0000
4 -6 11 0.4802 0.0000
4 -6 12 0.6800 0.0000
4 -5 0 0.5686 0.0000
4 -5 1 -0.2280 0.0000
4 -5 2 -0.7764 0.0000
4 -5 3 -0.7276 0.0000
4 -5 4 -0.3057 0.0000
4 -5 5 0.2687 0.0000
4 -5 6 0.6692 0.0000
4 -5 7 0.4222 0.0000
4 -5 8 -0.2395 0.0000
4 -5 9 -0.4704 0.0000
4 -5 10 -0.0634 0.0000
4 -5 11 0.3939 0.0000
4 -5 12 0.4681 0.0000
4 -4 0 -0.7514 0.0000
4 -4 1 -1.7457 0.0000
4 -4 2 -1.9743 0.0000
4 -4 3 -1.3574 0.0000
4 -4 4 -0.5319 0.0000
4 -4 5 0.1679 0.0000
4 -4 6 0.5268 0.0000
4 -4 7 0.2569 0.0000
4 -4 8 -0.2785 0.0000
4 -4 9 -0.3914 0.0000
4 -4 10 -0.1172 0.0000
4 -4 11 0.0888 0.0000
4 -4 12 0.1001 0.0000
4 -3 0 -1.7306 0.0000
4 -3 1 -2.8333 0.0000
4 -3 2 -2.5901 0.0000
4 -3 3 -1.5472 0.0000
4 -3 4 -0.6398 0.0000
4 -3 5 0.0105 0.0000
4 -3 6 0.3429 0.0000
4 -3 7 0.1236 0.0000
4 -3 8 -0.2693 0.0000
4 -3 9 -0.3686 0.0000
4 -3 10 -0.3124 0.0000
4 -3 11 -0.2341 0.0000
4 -2 0 -1.7860 0.0000
4 -2 1 -2.7489 0.0000
4 -2 2 -2.0961 0.0000
4 -2 3 -1.0281 0.0000
4 -2 4 -0.3432 0.0000
4 -2 5 0.1638 0.0000
4 -2 6 0.3944 0.0000
4 -2 7 0.1535 0.0000
4 -2 8 -0.1303 0.0000
4 -2 9 -0.2211 0.0000
4 -2 10 -0.2503 0.0000
4 -2 11 -0.0777 0.0000
4 -1 0 -0.9612 0.0000
4 -1 1 -1.5146 0.0000
4 -1 2 -0.7004 0.0000
4 -1 3 0.0591 0.0000
4 -1 4 0.4341 0.0000
4 -1 5 0.7153 0.0000
4 -1 6 0.6587 0.0000
4 -1 7 0.3044 0.0000
4 -1 8 0.1342 0.0000
4 -1 9 0.1082 0.0000
4 -1 10 0.1405 0.0000
4 -1 11 0.4394 0.0000
4 0 0 0.1224 0.0000
4 0 1 -0.0064 0.0000
4 0 2 0.6353 0.0000
4 0 3 0.9804 0.0000
4 0 4 1.0996 0.0000
4 0 5 1.0548 0.0000
4 0 6 0.6128 0.0000
4 0 7 0.1845 0.0000
4 0 8 0.1440 0.0000
4 0 9 0.1991 0.0000
4 0 10 0.3408 0.0000
4 0 11 0.6571 0.0000
4 1 0 0.6525 0.0000
4 1 1 0.6845 0.0000
4 1 2 0.9813 0.0000
4 1 3 1.0835 0.0000
4 1 4 1.0978 0.0000
4 1 5 0.7809 0.0000
4 1 6 0.1287 0.0000
4 1 7 -0.2304 0.0000
4 1 8 -0.1798 0.0000
4 1 9 -0.0613 0.0000
4 1 10 0.1933 0.0000
4 2 0 0.3562 0.0000
4 2 1 0.3569 0.0000
4 2 2 0.4916 0.0000
4 2 3 0.6737 0.0000
4 2 4 0.7562 0.0000
4 2 5 0.3829 0.0000
4 2 6 -0.1974 0.0000
4 2 7 -0.4392 0.0000
4 2 8 -0.3984 0.0000
4 2 9 -0.2257 0.0000
4 2 10 0.1100 0.0000
4 3 0 -0.2350 0.0000
4 3 1 -0.1840 0.0000
4 3 2 0.0687 0.0000
4 3 3 0.4270 0.0000
4 3 4 0.5638 0.0000
4 3 5 0.2703 0.0000
4 3 6 -0.1357 0.0000
4 3 7 -0.3570 0.0000
4 3 8 -0.3828 0.0000
4 3 9 -0.1404 0.0000
4 4 0 -0.4489 0.0000
4 4 1 -0.2368 0.0000
4 4 2 0.0843 0.0000
4 4 3 0.3354 0.0000
4 4 4 0.3417 0.0000
4 4 5 0.1266 0.0000
4 4 6 -0.1550 0.0000
4 4 7 -0.4113 0.0000
4 4 8 -0.4318 0.0000
4 4 9 -0.1030 0.0000
4 5 0 -0.1444 0.0000
4 5 1 0.1199 0.0000
4 5 2 0.2056 0.0000
4 5 3 0.0823 0.0000
4 5 4 -0.0831 0.0000
4 5 5 -0.1954 0.0000
4 5 6 -0.3734 0.0000
4 5 7 -0.5982 0.0000
4 5 8 -0.5202 0.0000
4 6 0 0.3000 0.0000
4 6 1 0.4193 0.0000
4 6 2 0.1697 0.0000
4 6 3 -0.2023 0.0000
4 6 4 -0.3513 0.0000
4 6 5 -0.3067 0.0000
4 6 6 -0.3765 0.0000
4 6 7 -0.5120 0.0000
4 7 0 0.4036 0.0000
4 7 1 0.3587 0.0000
4 7 2 0.0169 0.0000
4 7 3 -0.2807 0.0000
4 7 4 -0.2763 0.0000
4 7 5 -0.1168 0.0000
4 7 6 -0.1141 0.0000
4 8 0 0.1159 0.0000
4 8 1 0.0708 0.0000
4 8 2 -0.0978 0.0000
4 8 3 -0.2019 0.0000
4 8 4 -0.1203 0.0000
4 9 0 -0.0789 0.0000
4 9 1 -0.0108 0.0000
4 9 2 0.0085 0.0000
4 10 0 0.0945 0.0000
4 10 1 0.2217 0.0000
5 -13 0 -0.0509 0.0000
5 -13 1 0.0216 0.0000
5 -13 2 -0.0054 0.0000
5 -13 3 -0.0786 0.0000
5 -13 4 0.1418 0.0000
5 -13 5 0.4876 0.0000
5 -13 6 0.5726 0.0000
5 -12 0 0.2577 0.0000
5 -12 1 0.3482 0.0000
5 -12 2 0.3421 0.0000
5 -12 3 0.2750 0.0000
5 -12 4 0.4181 0.0000
5 -12 5 0.6573 0.0000
5 -12 6 0.6876 0.0000
5 -12 7 0.5104 0.0000
5 -12 8 0.3033 0.0000
5 -11 0 0.5081 0.0000
5 -11 1 0.6441 0.0000
5 -11 2 0.6879 0.0000
5 -11 3 0.5291 0.0000
5 -11 4 0.4426 0.0000
5 -11 5 0.4875 0.0000
5 -11 6 0.4091 0.0000
5 -11 7 0.1811 0.0000
5 -11 8 0.0445 0.0000
5 -11 9 0.0301 0.0000
5 -10 0 0.4211 0.0000
5 -10 1 0.6843 0.0000
5 -10 2 0.7727 0.0000
5 -10 3 0.4845 0.0000
5 -10 4 0.2486 0.0000
5 -10 5 0.2134 0.0000
5 -10 6 0.0665 0.0000
5 -10 7 -0.1361 0.0000
5 -10 8 -0.0666 0.0000
5 -10 9 0.1273 0.0000
5 -10 10 0.1125 0.0000
5 -9 0 0.1061 0.0000
5 -9 1 0.4897 0.0000
5 -9 2 0.5699 0.0000
5 -9 3 0.2648 0.0000
5 -9 4 0.1094 0.0000
5 -9 5 0.0826 0.0000
5 -9 6 -0.1641 0.0000
5 -9 7 -0.3356 0.0000
5 -9 8 -0.0965 0.0000
5 -9 9 0.1405 0.0000
5 -9 10 -0.0193 0.0000
5 -9 11 -0.3028 0.0000
5 -8 0 -0.3246 0.0000
5 -8 1 0.0963 0.0000
5 -8 2 0.2001 0.0000
5 -8 3 0.0810 0.0000
5 -8 4 0.1057 0.0000
5 -8 5 -0.0012 0.0000
5 -8 6 -0.3872 0.0000
5 -8 7 -0.4883 0.0000
5 -8 8 -0.1483 0.0000
5 -8 9 -0.0155 0.0000
5 -8 10 -0.3741 0.0000
5 -8 11 -0.7172 0.0000
5 -7 0 -0.7555 0.0000
5 -7 1 -0.2734 0.0000
5 -7 2 -0.0111 0.0000
5 -7 3 0.1022 0.0000
5 -7 4 0.1365 0.0000
5 -7 5 -0.1568 0.0000
5 -7 6 -0.5444 0.0000
5 -7 7 -0.4389 0.0000
5 -7 8 -0.0315 0.0000
5 -7 9 -0.0673 0.0000
5 -7 10 -0.6055 0.0000
5 -7 11 -0.9539 0.0000
5 -6 0 -0.7528 0.0000
5 -6 1 -0.1318 0.0000
5 -6 2 0.2419 0.0000
5 -6 3 0.2885 0.0000
5 -6 4 0.0531 0.0000
5 -6 5 -0.3696 0.0000
5 -6 6 -0.5505 0.0000
5 -6 7 -0.2003 0.0000
5 -6 8 0.1946 0.0000
5 -6 9 -0.0160 0.0000
5 -6 10 -0.6490 0.0000
5 -6 11 -0.9337 0.0000
5 -5 0 -0.0500 0.0000
5 -5 1 0.6031 0.0000
5 -5 2 0.7350 0.0000
5 -5 3 0.3327 0.0000
5 -5 4 -0.2264 0.0000
5 -5 5 -0.6019 0.0000
5 -5 6 -0.5469 0.0000
5 -5 7 -0.0924 0.0000
5 -5 8 0.2328 0.0000
5 -5 9 -0.0316 0.0000
5 -5 10 -0.5567 0.0000
5 -5 11 -0.6639 0.0000
5 -4 0 0.8963 0.0000
5 -4 1 1.3436 0.0000
5 -4 2 0.9551 0.0000
5 -4 3 0.1262 0.0000
5 -4 4 -0.4806 0.0000
5 -4 5 -0.6954 0.0000
5 -4 6 -0.5496 0.0000
5 -4 7 -0.1100 0.0000
5 -4 8 0.2040 0.0000
5 -4 9 0.0582 0.0000
5 -4 10 -0.2018 0.0000
5 -3 0 1.4459 0.0000
5 -3 1 1.5666 0.0000
5 -3 2 0.7833 0.0000
5 -3 3 -0.0546 0.0000
5 -3 4 -0.4278 0.0000
5 -3 5 -0.5402 0.0000
5 -3 6 -0.4183 0.0000
5 -3 7 0.0049 0.0000
5 -3 8 0.3185 0.0000
5 -3 9 0.2742 0.0000
5 -3 10 0.2038 0.0000
5 -2 0 1.4309 0.0000
5 -2 1 1.2338 0.0000
5 -2 2 0.3876 0.0000
5 -2 3 -0.1403 0.0000
5 -2 4 -0.2982 0.0000
5 -2 5 -0.4172 0.0000
5 -2 6 -0.2839 0.0000
5 -2 7 0.1054 0.0000
5 -2 8 0.2534 0.0000
5 -2 9 0.1436 0.0000
5 -2 10 0.1214 0.0000
5 -1 0 0.9781 0.0000
5 -1 1 0.5219 0.0000
5 -1 2 -0.1510 0.0000
5 -1 3 -0.3838 0.0000
5 -1 4 -0.4881 0.0000
5 -1 5 -0.5561 0.0000
5 -1 6 -0.2874 0.0000
5 -1 7 -0.0182 0.0000
5 -1 8 -0.1645 0.0000
5 -1 9 -0.3608 0.0000
5 -1 10 -0.3250 0.0000
5 0 0 0.3232 0.0000
5 0 1 -0.2141 0.0000
5 0 2 -0.6194 0.0000
5 0 3 -0.7166 0.0000
5 0 4 -0.7954 0.0000
5 0 5 -0.6258 0.0000
5 0 6 -0.1656 0.0000
5 0 7 -0.0595 0.0000
5 0 8 -0.3842 0.0000
5 0 9 -0.5251 0.0000
5 0 10 -0.4085 0.0000
5 1 0 -0.1036 0.0000
5 1 1 -0.4975 0.0000
5 1 2 -0.7026 0.0000
5 1 3 -0.8154 0.0000
5 1 4 -0.8116 0.0000
5 1 5 -0.3612 0.0000
5 1 6 0.1908 0.0000
5 1 7 0.1985 0.0000
5 1 8 -0.0790 0.0000
5 1 9 -0.1204 0.0000
5 1 10 -0.0426 0.0000
5 2 0 -0.0224 0.0000
5 2 1 -0.2720 0.0000
5 2 2 -0.4972 0.0000
5 2 3 -0.7184 0.0000
5 2 4 -0.6465 0.0000
5 2 5 -0.1119 0.0000
5 2 6 0.3631 0.0000
5 2 7 0.3802 0.0000
5 2 8 0.2499 0.0000
5 2 9 0.2060 0.0000
5 3 0 0.3065 0.0000
5 3 1 0.0093 0.0000
5 3 2 -0.3437 0.0000
5 3 3 -0.6011 0.0000
5 3 4 -0.5290 0.0000
5 3 5 -0.1629 0.0000
5 3 6 0.1401 0.0000
5 3 7 0.2298 0.0000
5 3 8 0.1981 0.0000
5 4 0 0.4094 0.0000
5 4 1 0.0273 0.0000
5 4 2 -0.2564 0.0000
5 4 3 -0.3640 0.0000
5 4 4 -0.3604 0.0000
5 4 5 -0.2841 0.0000
5 4 6 -0.1242 0.0000
5 4 7 0.0420 0.0000
5 5 0 0.1394 0.0000
5 5 1 -0.1457 0.0000
5 5 2 -0.1267 0.0000
5 5 3 -0.0327 0.0000
5 5 4 -0.1506 0.0000
5 5 5 -0.2933 0.0000
5 5 6 -0.1595 0.0000
5 6 0 -0.2415 0.0000
5 6 1 -0.3327 0.0000
5 6 2 -0.0604 0.0000
5 6 3 0.1109 0.0000
5 6 4 -0.0901 0.0000
5 6 5 -0.2554 0.0000
5 7 0 -0.3671 0.0000
5 7 1 -0.3793 0.0000
5 7 2 -0.0655 0.0000
5 7 3 0.0962 0.0000
5 7 4 -0.0665 0.0000
5 8 0 -0.1842 0.0000
5 8 1 -0.2343 0.0000
5 8 2 0.0238 0.0000
5 8 3 0.1866 0.0000
5 9 0 -0.0060 0.0000
5 9 1 -0.0670 0.0000
6 -12 0 -0.4821 0.0000
6 -12 1 -0.3978 0.0000
6 -12 2 -0.1391 0.0000
6 -12 3 -0.0646 0.0000
6 -12 4 -0.2298 0.0000
6 -12 5 -0.3298 0.0000
6 -12 6 -0.2246 0.0000
6 -11 0 -0.4510 0.0000
6 -11 1 -0.3876 0.0000
6 -11 2 -0.2046 0.0000
6 -11 3 -0.1053 0.0000
6 -11 4 -0.2195 0.0000
6 -11 5 -0.3154 0.0000
6 -11 6 -0.1813 0.0000
6 -11 7 -0.0670 0.0000
6 -10 0 -0.2552 0.0000
6 -10 1 -0.3060 0.0000
6 -10 2 -0.1615 0.0000
6 -10 3 -0.0549 0.0000
6 -10 4 -0.2279 0.0000
6 -10 5 -0.3382 0.0000
6 -10 6 -0.1628 0.0000
6 -10 7 -0.1677 0.0000
6 -10 8 -0.5295 0.0000
6 -10 9 -0.6883 0.0000
6 -9 0 -0.2031 0.0000
6 -9 1 -0.2470 0.0000
6 -9 2 -0.0493 0.0000
6 -9 3 -0.0131 0.0000
6 -9 4 -0.2700 0.0000
6 -9 5 -0.2777 0.0000
6 -9 6 -0.0214 0.0000
6 -9 7 -0.1587 0.0000
6 -9 8 -0.6004 0.0000
6 -9 9 -0.6247 0.0000
6 -8 0 -0.1449 0.0000
6 -8 1 -0.0762 0.0000
6 -8 2 0.1172 0.0000
6 -8 3 0.0263 0.0000
6 -8 4 -0.1728 0.0000
6 -8 5 0.0308 0.0000
6 -8 6 0.2913 0.0000
6 -8 7 0.0285 0.0000
6 -8 8 -0.3279 0.0000
6 -8 9 -0.1491 0.0000
6 -7 0 0.1093 0.0000
6 -7 1 0.1328 0.0000
6 -7 2 0.1584 0.0000
6 -7 3 0.0197 0.0000
6 -7 4 0.0268 0.0000
6 -7 5 0.3264 0.0000
6 -7 6 0.4093 0.0000
6 -7 7 0.0804 0.0000
6 -7 8 -0.0693 0.0000
6 -7 9 0.2766 0.0000
6 -7 10 0.6197 0.0000
6 -6 0 0.1656 0.0000
6 -6 1 -0.0406 0.0000
6 -6 2 -0.1298 0.0000
6 -6 3 -0.0841 0.0000
6 -6 4 0.1371 0.0000
6 -6 5 0.3252 0.0000
6 -6 6 0.2150 0.0000
6 -6 7 -0.0203 0.0000
6 -6 8 0.0478 0.0000
6 -6 9 0.4372 0.0000
6 -6 10 0.6654 0.0000
6 -5 0 -0.3087 0.0000
6 -5 1 -0.6121 0.0000
6 -5 2 -0.4990 0.0000
6 -5 3 -0.1043 0.0000
6 -5 4 0.1993 0.0000
6 -5 5 0.2290 0.0000
6 -5 6 0.1087 0.0000
6 -5 7 0.0250 0.0000
6 -5 8 0.1282 0.0000
6 -5 9 0.3853 0.0000
6 -5 10 0.4629 0.0000
6 -4 0 -0.8924 0.0000
6 -4 1 -0.9899 0.0000
6 -4 2 -0.4875 0.0000
6 -4 3 0.1096 0.0000
6 -4 4 0.3134 0.0000
6 -4 5 0.2724 0.0000
6 -4 6 0.2193 0.0000
6 -4 7 0.1090 0.0000
6 -4 8 0.0462 0.0000
6 -4 9 0.1213 0.0000
6 -4 10 0.0905 0.0000
6 -3 0 -1.0335 0.0000
6 -3 1 -0.7970 0.0000
6 -3 2 -0.0781 0.0000
6 -3 3 0.3891 0.0000
6 -3 4 0.4032 0.0000
6 -3 5 0.3493 0.0000
6 -3 6 0.2468 0.0000
6 -3 7 -0.0149 0.0000
6 -3 8 -0.1500 0.0000
6 -3 9 -0.1129 0.0000
6 -3 10 -0.1853 0.0000
6 -2 0 -0.7370 0.0000
6 -2 1 -0.2417 0.0000
6 -2 2 0.3973 0.0000
6 -2 3 0.5676 0.0000
6 -2 4 0.4650 0.0000
6 -2 5 0.3884 0.0000
6 -2 6 0.1668 0.0000
6 -2 7 -0.0633 0.0000
6 -2 8 0.0105 0.0000
6 -2 9 0.0858 0.0000
6 -2 10 -0.0836 0.0000
6 -1 0 -0.2833 0.0000
6 -1 1 0.3114 0.0000
6 -1 2 0.7051 0.0000
6 -1 3 0.6621 0.0000
6 -1 4 0.5539 0.0000
6 -1 5 0.4055 0.0000
6 -1 6 0.1424 0.0000
6 -1 7 0.1872 0.0000
6 -1 8 0.5152 0.0000
6 -1 9 0.4895 0.0000
6 0 0 0.0997 0.0000
6 0 1 0.5936 0.0000
6 0 2 0.7274 0.0000
6 0 3 0.6188 0.0000
6 0 4 0.5094 0.0000
6 0 5 0.2271 0.0000
6 0 6 -0.0009 0.0000
6 0 7 0.2924 0.0000
6 0 8 0.6428 0.0000
6 1 0 0.2180 0.0000
6 1 1 0.5079 0.0000
6 1 2 0.4936 0.0000
6 1 3 0.4124 0.0000
6 1 4 0.2491 0.0000
6 1 5 -0.1663 0.0000
6 1 6 -0.3570 0.0000
6 1 7 -0.0290 0.0000
6 1 8 0.1835 0.0000
6 2 0 0.0836 0.0000
6 2 1 0.2856 0.0000
6 2 2 0.2788 0.0000
6 2 3 0.2539 0.0000
6 2 4 0.0620 0.0000
6 2 5 -0.3604 0.0000
6 2 6 -0.5179 0.0000
6 2 7 -0.3069 0.0000
6 3 0 -0.0093 0.0000
6 3 1 0.2298 0.0000
6 3 2 0.2387 0.0000
6 3 3 0.2468 0.0000
6 3 4 0.1544 0.0000
6 3 5 -0.0974 0.0000
6 3 6 -0.2219 0.0000
6 4 0 0.1412 0.0000
6 4 1 0.3093 0.0000
6 4 2 0.1990 0.0000
6 4 3 0.2356 0.0000
6 4 4 0.3699 0.0000
6 4 5 0.3447 0.0000
6 5 0 0.4180 0.0000
6 5 1 0.3648 0.0000
6 5 2 0.1112 0.0000
6 5 3 0.2257 0.0000
6 5 4 0.5603 0.0000
6 5 5 0.6153 0.0000
6 6 0 0.5936 0.0000
6 6 1 0.4208 0.0000
6 6 2 0.1689 0.0000
6 6 3 0.3469 0.0000
6 6 4 0.6752 0.0000
6 7 0 0.5646 0.0000
6 7 1 0.4890 0.0000
6 7 2 0.3136 0.0000
6 8 0 0.4249 0.0000
6 8 1 0.4555 0.0000
7 -12 0 0.7436 0.0000
7 -11 0 0.5241 0.0000
7 -11 1 0.4856 0.0000
7 -11 2 0.4186 0.0000
7 -11 3 0.4087 0.0000
7 -11 4 0.3960 0.0000
7 -11 5 0.1972 0.0000
7 -11 6 -0.1159 0.0000
7 -10 0 -0.0646 0.0000
7 -10 1 -0.0469 0.0000
7 -10 2 -0.0029 0.0000
7 -10 3 0.2379 0.0000
7 -10 4 0.5010 0.0000
7 -10 5 0.3586 0.0000
7 -10 6 0.0534 0.0000
7 -9 0 -0.4403 0.0000
7 -9 1 -0.4213 0.0000
7 -9 2 -0.2420 0.0000
7 -9 3 0.2640 0.0000
7 -9 4 0.5972 0.0000
7 -9 5 0.3072 0.0000
7 -9 6 0.0066 0.0000
7 -9 7 0.2507 0.0000
7 -9 8 0.4804 0.0000
7 -8 0 -0.4345 0.0000
7 -8 1 -0.4695 0.0000
7 -8 2 -0.2432 0.0000
7 -8 3 0.2273 0.0000
7 -8 4 0.2776 0.0000
7 -8 5 -0.1869 0.0000
7 -8 6 -0.3441 0.0000
7 -8 7 0.0112 0.0000
7 -8 8 0.1938 0.0000
7 -7 0 -0.3024 0.0000
7 -7 1 -0.3608 0.0000
7 -7 2 -0.2077 0.0000
7 -7 3 -0.0391 0.0000
7 -7 4 -0.2774 0.0000
7 -7 5 -0.6263 0.0000
7 -7 6 -0.5254 0.0000
7 -7 7 -0.1716 0.0000
7 -7 8 -0.0605 0.0000
7 -7 9 -0.1231 0.0000
7 -6 0 -0.1122 0.0000
7 -6 1 -0.1381 0.0000
7 -6 2 -0.1376 0.0000
7 -6 3 -0.2685 0.0000
7 -6 4 -0.5073 0.0000
7 -6 5 -0.5570 0.0000
7 -6 6 -0.3731 0.0000
7 -6 7 -0.1953 0.0000
7 -6 8 -0.1450 0.0000
7 -6 9 -0.1335 0.0000
7 -5 0 0.1724 0.0000
7 -5 1 0.1616 0.0000
7 -5 2 -0.0254 0.0000
7 -5 3 -0.2912 0.0000
7 -5 4 -0.3482 0.0000
7 -5 5 -0.2570 0.0000
7 -5 6 -0.2334 0.0000
7 -5 7 -0.2037 0.0000
7 -5 8 -0.1132 0.0000
7 -5 9 -0.0592 0.0000
7 -4 0 0.3821 0.0000
7 -4 1 0.3210 0.0000
7 -4 2 -0.0223 0.0000
7 -4 3 -0.2453 0.0000
7 -4 4 -0.1344 0.0000
7 -4 5 -0.0841 0.0000
7 -4 6 -0.1639 0.0000
7 -4 7 -0.0748 0.0000
7 -4 8 0.0807 0.0000
7 -4 9 0.1036 0.0000
7 -3 0 0.3914 0.0000
7 -3 1 0.2121 0.0000
7 -3 2 -0.1853 0.0000
7 -3 3 -0.2376 0.0000
7 -3 4 -0.0216 0.0000
7 -3 5 0.0106 0.0000
7 -3 6 0.0237 0.0000
7 -3 7 0.1843 0.0000
7 -3 8 0.2423 0.0000
7 -2 0 0.2724 0.0000
7 -2 1 -0.0738 0.0000
7 -2 2 -0.4043 0.0000
7 -2 3 -0.2721 0.0000
7 -2 4 -0.0359 0.0000
7 -2 5 0.0291 0.0000
7 -2 6 0.1122 0.0000
7 -2 7 0.1146 0.0000
7 -2 8 -0.0097 0.0000
7 -1 0 0.0658 0.0000
7 -1 1 -0.3754 0.0000
7 -1 2 -0.5343 0.0000
7 -1 3 -0.3239 0.0000
7 -1 4 -0.1754 0.0000
7 -1 5 -0.1055 0.0000
7 -1 6 -0.1023 0.0000
7 -1 7 -0.3449 0.0000
7 -1 8 -0.4681 0.0000
7 0 0 -0.1858 0.0000
7 0 1 -0.4946 0.0000
7 0 2 -0.4252 0.0000
7 0 3 -0.2639 0.0000
7 0 4 -0.2276 0.0000
7 0 5 -0.1367 0.0000
7 0 6 -0.2168 0.0000
7 0 7 -0.5360 0.0000
7 1 0 -0.2958 0.0000
7 1 1 -0.3002 0.0000
7 1 2 -0.0575 0.0000
7 1 3 -0.0143 0.0000
7 1 4 -0.0156 0.0000
7 1 5 0.1550 0.0000
7 1 6 0.0785 0.0000
7 1 7 -0.1847 0.0000
7 2 0 -0.1749 0.0000
7 2 1 0.0690 0.0000
7 2 2 0.3378 0.0000
7 2 3 0.2386 0.0000
7 2 4 0.2314 0.0000
7 2 5 0.4421 0.0000
7 2 6 0.3808 0.0000
7 3 0 -0.0070 0.0000
7 3 1 0.3438 0.0000
7 3 2 0.5253 0.0000
7 3 3 0.2754 0.0000
7 3 4 0.2004 0.0000
7 3 5 0.3510 0.0000
7 4 0 -0.0125 0.0000
7 4 1 0.3956 0.0000
7 4 2 0.4749 0.0000
7 4 3 0.1122 0.0000
7 4 4 -0.0483 0.0000
7 5 0 -0.2176 0.0000
7 5 1 0.2239 0.0000
7 5 2 0.2473 0.0000
7 5 3 -0.1043 0.0000
7 6 0 -0.4552 0.0000
7 6 1 -0.0697 0.0000
7 7 0 -0.5134 0.0000
8 -10 0 -0.3153 0.0000
8 -10 1 -0.4521 0.0000
8 -9 0 0.0388 0.0000
8 -9 1 -0.0846 0.0000
8 -9 2 -0.4127 0.0000
8 -9 3 -0.7901 0.0000
8 -9 4 -0.6292 0.0000
8 -9 5 -0.0373 0.0000
8 -8 0 0.1791 0.0000
8 -8 1 0.1089 0.0000
8 -8 2 -0.2366 0.0000
8 -8 3 -0.4382 0.0000
8 -8 4 0.0104 0.0000
8 -8 5 0.6042 0.0000
8 -8 6 0.6255 0.0000
8 -7 0 0.1595 0.0000
8 -7 1 0.1718 0.0000
8 -7 2 0.0333 0.0000
8 -7 3 0.1899 0.0000
8 -7 4 0.7345 0.0000
8 -7 5 1.0544 0.0000
8 -7 6 0.8467 0.0000
8 -7 7 0.4543 0.0000
8 -6 0 0.0349 0.0000
8 -6 1 0.1039 0.0000
8 -6 2 0.2154 0.0000
8 -6 3 0.5725 0.0000
8 -6 4 0.9193 0.0000
8 -6 5 0.9558 0.0000
8 -6 6 0.7146 0.0000
8 -6 7 0.3249 0.0000
8 -5 0 -0.0934 0.0000
8 -5 1 -0.0093 0.0000
8 -5 2 0.2785 0.0000
8 -5 3 0.6049 0.0000
8 -5 4 0.6829 0.0000
8 -5 5 0.6438 0.0000
8 -5 6 0.5088 0.0000
8 -5 7 0.1569 0.0000
8 -4 0 -0.0243 0.0000
8 -4 1 0.0737 0.0000
8 -4 2 0.4239 0.0000
8 -4 3 0.5417 0.0000
8 -4 4 0.3934 0.0000
8 -4 5 0.3539 0.0000
8 -4 6 0.2518 0.0000
8 -4 7 -0.0475 0.0000
8 -3 0 0.1965 0.0000
8 -3 1 0.3433 0.0000
8 -3 2 0.5996 0.0000
8 -3 3 0.3998 0.0000
8 -3 4 0.0757 0.0000
8 -3 5 -0.0047 0.0000
8 -3 6 -0.1117 0.0000
8 -2 0 0.2658 0.0000
8 -2 1 0.4801 0.0000
8 -2 2 0.5308 0.0000
8 -2 3 0.1136 0.0000
8 -2 4 -0.2065 0.0000
8 -2 5 -0.2578 0.0000
8 -2 6 -0.2566 0.0000
8 -1 0 0.1103 0.0000
8 -1 1 0.3298 0.0000
8 -1 2 0.2182 0.0000
8 -1 3 -0.0999 0.0000
8 -1 4 -0.1896 0.0000
8 -1 5 -0.1398 0.0000
8 -1 6 -0.0081 0.0000
8 0 0 -0.0171 0.0000
8 0 1 0.0627 0.0000
8 0 2 -0.0702 0.0000
8 0 3 -0.0584 0.0000
8 0 4 0.0631 0.0000
8 0 5 0.0965 0.0000
8 1 0 0.0262 0.0000
8 1 1 -0.1574 0.0000
8 1 2 -0.2099 0.0000
8 1 3 0.0754 0.0000
8 1 4 0.1734 0.0000
8 1 5 0.0579 0.0000
8 2 0 0.0557 0.0000
8 2 1 -0.3749 0.0000
8 2 2 -0.2985 0.0000
8 2 3 0.0909 0.0000
8 2 4 0.0528 0.0000
8 3 0 -0.1485 0.0000
8 3 1 -0.6505 0.0000
8 3 2 -0.3926 0.0000
8 3 3 0.0257 0.0000
8 4 0 -0.4736 0.0000
8 4 1 -0.8182 0.0000
8 5 0 -0.5604 0.0000
9 -8 0 0.1898 0.0000
9 -8 1 0.1810 0.0000
9 -7 0 0.0779 0.0000
9 -7 1 -0.0643 0.0000
9 -7 2 -0.1057 0.0000
9 -6 0 0.0195 0.0000
9 -6 1 -0.1274 0.0000
9 -6 2 -0.3210 0.0000
9 -6 3 -0.6233 0.0000
9 -6 4 -0.7981 0.0000
9 -5 0 0.1761 0.0000
9 -5 1 0.0381 0.0000
9 -5 2 -0.2942 0.0000
9 -5 3 -0.5353 0.0000
9 -5 4 -0.5964 0.0000
9 -4 0 0.2072 0.0000
9 -4 1 -0.0352 0.0000
9 -4 2 -0.4255 0.0000
9 -4 3 -0.4677 0.0000
9 -4 4 -0.3826 0.0000
9 -3 0 -0.0999 0.0000
9 -3 1 -0.4454 0.0000
9 -3 2 -0.6464 0.0000
9 -3 3 -0.3511 0.0000
9 -2 0 -0.3464 0.0000
9 -2 1 -0.6426 0.0000
9 -2 2 -0.5257 0.0000
9 -2 3 -0.0585 0.0000
9 -1 0 -0.1488 0.0000
9 -1 1 -0.3040 0.0000
9 -1 2 -0.0930 0.0000
9 0 0 0.2469 0.0000
9 0 1 0.1894 0.0000
9 0 2 0.1786 0.0000
9 1 0 0.3842 0.0000
9 1 1 0.3765 0.0000
9 2 0 0.2748 0.0000
9 2 1 0.3052 0.0000
9 3 0 0.2632 0.0000
10 -6 0 0.2373 0.0000
10 -5 0 0.0437 0.0000
10 -5 1 0.0559 0.0000
10 -4 1 0.1073 0.0000
10 -3 0 0.1100 0.0000
10 -3 1 0.4108 0.0000
10 -2 0 0.3067 0.0000
0 0 0 0.0 0.0
;
_olex2_submission_special_instructions 'No special instructions were received'
_oxdiff_exptl_absorpt_empirical_details
;
Empirical correction (ABSPACK) includes:
- Absorption correction using spherical harmonics
- Frame scaling
;
_oxdiff_exptl_absorpt_empirical_full_max 1.142
_oxdiff_exptl_absorpt_empirical_full_min 0.899
_publcif_funding_html
;
;
loop_
_space_group_symop_operation_xyz
'x, y, z'
'-x, -y, -z'
loop_
_atom_site_label
_atom_site_type_symbol
_atom_site_fract_x
_atom_site_fract_y
_atom_site_fract_z
_atom_site_U_iso_or_equiv
_atom_site_adp_type
_atom_site_occupancy
_atom_site_site_symmetry_order
_atom_site_calc_flag
_atom_site_refinement_flags_posn
Fe01 Fe 0.42021(5) 0.69563(3) 0.27455(3) 0.03980(18) Uani 1 1 d .
Cl02 Cl 0.07082(14) 0.25871(10) 0.29318(9) 0.0788(3) Uani 1 1 d .
O003 O 0.7222(3) 0.97521(19) 0.53087(16) 0.0533(6) Uani 1 1 d .
O004 O 0.4510(3) 0.8730(2) 0.57695(16) 0.0572(6) Uani 1 1 d .
N005 N 0.2306(3) 0.6630(2) 0.31844(19) 0.0433(6) Uani 1 1 d .
N006 N 0.5019(3) 0.8166(2) 0.41509(18) 0.0394(6) Uani 1 1 d .
N007 N 0.3175(3) 0.7886(2) 0.19432(19) 0.0444(6) Uani 1 1 d .
N008 N 0.6298(3) 0.7680(2) 0.26840(18) 0.0432(6) Uani 1 1 d .
N009 N 0.4993(3) 0.5652(2) 0.3144(2) 0.0455(6) Uani 1 1 d .
N00A N 0.3403(3) 0.5718(2) 0.1355(2) 0.0516(7) Uani 1 1 d .
C00B C 0.6510(3) 0.8949(3) 0.4462(2) 0.0408(7) Uani 1 1 d .
C00C C 0.7173(3) 0.8663(3) 0.3559(2) 0.0426(7) Uani 1 1 d .
O00D O 0.3298(5) 0.3730(3) 0.0447(2) 0.1212(14) Uani 1 1 d .
C00E C 0.5845(4) 0.5705(3) 0.4117(3) 0.0508(8) Uani 1 1 d .
H00E H 0.609226 0.641703 0.470326 0.061 Uiso 1 1 calc R
C00F C 0.3131(4) 0.9039(3) 0.2344(3) 0.0509(8) Uani 1 1 d .
H00F H 0.364247 0.947968 0.307061 0.061 Uiso 1 1 calc R
C00G C 0.4129(3) 0.8169(3) 0.4820(2) 0.0420(7) Uani 1 1 d .
C00H C 0.2503(4) 0.7313(3) 0.4204(2) 0.0431(7) Uani 1 1 d .
C00I C 0.0869(4) 0.5859(3) 0.2588(3) 0.0529(8) Uani 1 1 d .
H00I H 0.070690 0.538996 0.188072 0.063 Uiso 1 1 calc R
C00J C 0.2439(4) 0.7257(3) 0.0884(3) 0.0593(9) Uani 1 1 d .
O00K O 0.2006(5) 0.5330(3) -0.0418(2) 0.1159(13) Uani 1 1 d .
C00L C 0.6869(4) 0.7350(3) 0.1868(3) 0.0566(9) Uani 1 1 d .
H00L H 0.628608 0.666270 0.126916 0.068 Uiso 1 1 calc R
C00M C 0.8591(4) 0.9360(3) 0.3616(3) 0.0559(9) Uani 1 1 d .
H00M H 0.915743 1.004704 0.421845 0.067 Uiso 1 1 calc R
C00N C 0.1315(4) 0.7228(3) 0.4641(3) 0.0541(8) Uani 1 1 d .
H00N H 0.148862 0.770634 0.534811 0.065 Uiso 1 1 calc R
C00O C -0.0363(4) 0.5743(3) 0.2991(3) 0.0654(10) Uani 1 1 d .
H00O H -0.134524 0.520011 0.256115 0.078 Uiso 1 1 calc R
C00P C 0.6361(4) 0.4727(4) 0.4267(3) 0.0665(10) Uani 1 1 d .
H00P H 0.694083 0.477981 0.494801 0.080 Uiso 1 1 calc R
C00Q C 0.3704(5) 0.4613(3) 0.1261(3) 0.0684(10) Uani 1 1 d .
C00R C 0.4651(4) 0.4615(3) 0.2308(3) 0.0588(9) Uani 1 1 d .
C00S C 0.1619(5) 0.7755(4) 0.0212(3) 0.0819(12) Uani 1 1 d .
H00S H 0.110062 0.730035 -0.051121 0.098 Uiso 1 1 calc R
C00T C 0.2345(5) 0.9587(4) 0.1703(3) 0.0684(10) Uani 1 1 d .
H00T H 0.233313 1.039205 0.199555 0.082 Uiso 1 1 calc R
C00U C 0.9157(4) 0.9026(4) 0.2767(3) 0.0659(10) Uani 1 1 d .
H00U H 1.010891 0.948703 0.278500 0.079 Uiso 1 1 calc R
C00V C 0.8300(5) 0.8004(4) 0.1895(3) 0.0679(10) Uani 1 1 d .
H00V H 0.868138 0.775172 0.132279 0.081 Uiso 1 1 calc R
C00W C -0.0147(4) 0.6425(4) 0.4024(3) 0.0673(10) Uani 1 1 d .
H00W H -0.097481 0.634942 0.430741 0.081 Uiso 1 1 calc R
C00X C 0.2571(5) 0.5984(3) 0.0499(3) 0.0690(10) Uani 1 1 d .
O00Y O 0.0423(7) 0.1725(5) 0.1947(3) 0.182(2) Uani 1 1 d .
C00Z C 0.6016(6) 0.3680(4) 0.3408(4) 0.0807(12) Uani 1 1 d .
H00Z H 0.636801 0.301799 0.349837 0.097 Uiso 1 1 calc R
O010 O -0.0691(6) 0.2908(5) 0.2987(6) 0.193(2) Uani 1 1 d .
C011 C 0.5155(6) 0.3617(3) 0.2421(4) 0.0799(12) Uani 1 1 d .
H011 H 0.490837 0.291178 0.182799 0.096 Uiso 1 1 calc R
O012 O 0.1295(7) 0.2141(4) 0.3714(3) 0.178(2) Uani 1 1 d .
C013 C 0.1581(5) 0.8944(4) 0.0634(3) 0.0819(13) Uani 1 1 d .
H013 H 0.104197 0.930730 0.019700 0.098 Uiso 1 1 calc R
O014 O 0.1782(7) 0.3654(5) 0.3124(6) 0.199(3) Uani 1 1 d .
loop_
_atom_site_aniso_label
_atom_site_aniso_U_11
_atom_site_aniso_U_22
_atom_site_aniso_U_33
_atom_site_aniso_U_23
_atom_site_aniso_U_13
_atom_site_aniso_U_12
Fe01 0.0399(3) 0.0390(3) 0.0288(3) 0.00300(18) 0.00643(18) 0.00456(18)
Cl02 0.0904(8) 0.0739(7) 0.0703(7) 0.0245(5) 0.0220(6) 0.0272(6)
O003 0.0492(12) 0.0516(13) 0.0350(12) -0.0006(10) 0.0040(10) -0.0036(10)
O004 0.0609(14) 0.0625(14) 0.0309(12) 0.0022(10) 0.0124(10) 0.0021(11)
N005 0.0393(13) 0.0405(13) 0.0387(14) 0.0082(11) 0.0045(11) 0.0047(11)
N006 0.0359(13) 0.0416(13) 0.0299(12) 0.0044(10) 0.0071(10) 0.0042(10)
N007 0.0419(14) 0.0501(15) 0.0328(13) 0.0088(11) 0.0079(11) 0.0083(11)
N008 0.0424(14) 0.0487(14) 0.0320(13) 0.0085(11) 0.0102(11) 0.0097(11)
N009 0.0457(14) 0.0439(14) 0.0438(15) 0.0106(12) 0.0177(12) 0.0084(11)
N00A 0.0578(16) 0.0464(15) 0.0329(14) 0.0011(11) 0.0065(12) 0.0059(12)
C00B 0.0419(16) 0.0407(16) 0.0323(16) 0.0094(13) 0.0057(13) 0.0089(13)
C00C 0.0407(16) 0.0454(16) 0.0334(15) 0.0086(13) 0.0060(13) 0.0097(13)
O00D 0.214(4) 0.0601(18) 0.0569(18) -0.0074(15) 0.024(2) 0.038(2)
C00E 0.0445(18) 0.0579(19) 0.0516(19) 0.0215(16) 0.0161(15) 0.0134(15)
C00F 0.0549(19) 0.0539(19) 0.0437(18) 0.0144(15) 0.0183(15) 0.0162(15)
C00G 0.0424(16) 0.0384(15) 0.0363(17) 0.0075(13) 0.0075(13) 0.0072(13)
C00H 0.0459(17) 0.0415(16) 0.0385(16) 0.0123(13) 0.0118(14) 0.0099(13)
C00I 0.0453(18) 0.0480(18) 0.0459(18) 0.0075(15) 0.0028(15) -0.0013(14)
C00J 0.062(2) 0.063(2) 0.0366(17) 0.0100(16) 0.0029(16) 0.0112(17)
O00K 0.169(3) 0.091(2) 0.0349(15) -0.0082(15) -0.0150(18) 0.034(2)
C00L 0.056(2) 0.062(2) 0.0404(18) 0.0030(15) 0.0189(15) 0.0081(17)
C00M 0.0424(18) 0.061(2) 0.0492(19) 0.0121(16) 0.0090(15) -0.0008(15)
C00N 0.0496(19) 0.062(2) 0.0508(19) 0.0173(16) 0.0223(16) 0.0121(16)
C00O 0.045(2) 0.068(2) 0.068(3) 0.020(2) 0.0091(18) -0.0022(17)
C00P 0.063(2) 0.074(3) 0.077(3) 0.043(2) 0.026(2) 0.0214(19)
C00Q 0.091(3) 0.049(2) 0.049(2) 0.0015(17) 0.0201(19) 0.0122(19)
C00R 0.072(2) 0.0453(18) 0.056(2) 0.0099(16) 0.0272(18) 0.0133(16)
C00S 0.087(3) 0.102(3) 0.047(2) 0.025(2) 0.003(2) 0.030(3)
C00T 0.081(3) 0.068(2) 0.073(3) 0.034(2) 0.033(2) 0.036(2)
C00U 0.050(2) 0.083(3) 0.057(2) 0.018(2) 0.0219(17) 0.0004(18)
C00V 0.063(2) 0.083(3) 0.053(2) 0.012(2) 0.0308(18) 0.011(2)
C00W 0.046(2) 0.080(3) 0.072(3) 0.025(2) 0.0219(18) 0.0050(18)
C00X 0.078(3) 0.066(2) 0.0371(19) 0.0006(17) 0.0038(18) 0.0100(19)
O00Y 0.245(6) 0.214(5) 0.069(2) 0.012(3) 0.016(3) 0.148(5)
C00Z 0.099(3) 0.065(3) 0.099(3) 0.041(3) 0.043(3) 0.036(2)
O010 0.149(4) 0.196(5) 0.281(7) 0.087(5) 0.118(5) 0.087(4)
C011 0.115(4) 0.048(2) 0.084(3) 0.017(2) 0.045(3) 0.030(2)
O012 0.261(6) 0.123(3) 0.100(3) 0.040(3) -0.019(3) 0.050(4)
C013 0.088(3) 0.104(3) 0.066(3) 0.045(3) 0.016(2) 0.047(3)
O014 0.160(4) 0.154(4) 0.303(8) 0.115(5) 0.092(5) 0.005(4)
loop_
_atom_type_symbol
_atom_type_description
_atom_type_scat_dispersion_real
_atom_type_scat_dispersion_imag
_atom_type_scat_source
C C 0.0033 0.0016 'International Tables Vol C Tables 4.2.6.8 and 6.1.1.4'
H H 0.0000 0.0000 'International Tables Vol C Tables 4.2.6.8 and 6.1.1.4'
Cl Cl 0.1484 0.1585 'International Tables Vol C Tables 4.2.6.8 and 6.1.1.4'
Fe Fe 0.3463 0.8444 'International Tables Vol C Tables 4.2.6.8 and 6.1.1.4'
N N 0.0061 0.0033 'International Tables Vol C Tables 4.2.6.8 and 6.1.1.4'
O O 0.0106 0.0060 'International Tables Vol C Tables 4.2.6.8 and 6.1.1.4'
loop_
_geom_angle_atom_site_label_1
_geom_angle_atom_site_label_2
_geom_angle_atom_site_label_3
_geom_angle
N005 Fe01 N008 163.87(10)
N005 Fe01 N009 92.06(10)
N006 Fe01 N005 82.08(10)
N006 Fe01 N007 99.72(10)
N006 Fe01 N008 81.98(10)
N006 Fe01 N009 96.64(10)
N007 Fe01 N005 89.94(10)
N007 Fe01 N008 90.31(10)
N007 Fe01 N009 163.63(10)
N008 Fe01 N009 92.22(10)
N00A Fe01 N005 97.83(11)
N00A Fe01 N006 178.58(11)
N00A Fe01 N007 81.70(11)
N00A Fe01 N008 98.16(11)
N00A Fe01 N009 81.94(11)
O00Y Cl02 O010 109.4(4)
O00Y Cl02 O012 109.3(3)
O00Y Cl02 O014 113.4(4)
O012 Cl02 O010 111.3(4)
O012 Cl02 O014 108.5(4)
O014 Cl02 O010 104.9(4)
C00H N005 Fe01 114.04(19)
C00I N005 Fe01 128.0(2)
C00I N005 C00H 117.9(3)
C00B N006 Fe01 118.59(19)
C00G N006 Fe01 118.00(18)
C00G N006 C00B 123.3(2)
C00F N007 Fe01 126.6(2)
C00F N007 C00J 118.8(3)
C00J N007 Fe01 114.6(2)
C00C N008 Fe01 113.7(2)
C00L N008 Fe01 127.6(2)
C00L N008 C00C 118.6(3)
C00E N009 Fe01 128.0(2)
C00R N009 Fe01 113.7(2)
C00R N009 C00E 118.3(3)
C00Q N00A Fe01 117.7(2)
C00Q N00A C00X 123.6(3)
C00X N00A Fe01 118.7(2)
O003 C00B N006 128.2(3)
O003 C00B C00C 122.4(3)
N006 C00B C00C 109.4(2)
N008 C00C C00B 116.0(3)
N008 C00C C00M 122.0(3)
C00M C00C C00B 122.0(3)
N009 C00E H00E 119.2
N009 C00E C00P 121.5(3)
C00P C00E H00E 119.2
N007 C00F H00F 119.3
N007 C00F C00T 121.3(3)
C00T C00F H00F 119.3
O004 C00G N006 128.8(3)
O004 C00G C00H 121.4(3)
N006 C00G C00H 109.8(2)
N005 C00H C00G 115.2(3)
N005 C00H C00N 122.4(3)
C00N C00H C00G 122.4(3)
N005 C00I H00I 119.1
N005 C00I C00O 121.9(3)
C00O C00I H00I 119.1
N007 C00J C00S 122.2(3)
N007 C00J C00X 115.3(3)
C00S C00J C00X 122.4(3)
N008 C00L H00L 119.2
N008 C00L C00V 121.6(3)
C00V C00L H00L 119.2
C00C C00M H00M 120.5
C00C C00M C00U 119.0(3)
C00U C00M H00M 120.5
C00H C00N H00N 120.5
C00H C00N C00W 119.1(3)
C00W C00N H00N 120.5
C00I C00O H00O 120.1
C00W C00O C00I 119.8(3)
C00W C00O H00O 120.1
C00E C00P H00P 120.2
C00Z C00P C00E 119.6(4)
C00Z C00P H00P 120.2
N00A C00Q C00R 111.1(3)
O00D C00Q N00A 126.7(4)
O00D C00Q C00R 122.2(4)
N009 C00R C00Q 115.6(3)
N009 C00R C011 122.1(4)
C011 C00R C00Q 122.3(3)
C00J C00S H00S 120.8
C00J C00S C013 118.4(4)
C013 C00S H00S 120.8
C00F C00T H00T 120.1
C013 C00T C00F 119.8(4)
C013 C00T H00T 120.1
C00M C00U H00U 120.5
C00V C00U C00M 119.0(3)
C00V C00U H00U 120.5
C00L C00V H00V 120.1
C00U C00V C00L 119.7(3)
C00U C00V H00V 120.1
C00N C00W H00W 120.5
C00O C00W C00N 119.0(3)
C00O C00W H00W 120.5
N00A C00X C00J 109.6(3)
O00K C00X N00A 127.7(4)
O00K C00X C00J 122.7(4)
C00P C00Z H00Z 120.3
C011 C00Z C00P 119.3(4)
C011 C00Z H00Z 120.3
C00R C011 H011 120.4
C00Z C011 C00R 119.1(4)
C00Z C011 H011 120.4
C00S C013 H013 120.3
C00T C013 C00S 119.4(4)
C00T C013 H013 120.3
loop_
_geom_bond_atom_site_label_1
_geom_bond_atom_site_label_2
_geom_bond_distance
Fe01 N005 1.970(3)
Fe01 N006 1.909(2)
Fe01 N007 1.968(2)
Fe01 N008 1.974(2)
Fe01 N009 1.982(3)
Fe01 N00A 1.909(2)
Cl02 O00Y 1.371(4)
Cl02 O010 1.381(5)
Cl02 O012 1.373(4)
Cl02 O014 1.380(5)
O003 C00B 1.202(3)
O004 C00G 1.207(3)
N005 C00H 1.350(4)
N005 C00I 1.343(4)
N006 C00B 1.381(4)
N006 C00G 1.372(4)
N007 C00F 1.336(4)
N007 C00J 1.352(4)
N008 C00C 1.350(4)
N008 C00L 1.338(4)
N009 C00E 1.343(4)
N009 C00R 1.343(4)
N00A C00Q 1.369(5)
N00A C00X 1.381(5)
C00B C00C 1.493(4)
C00C C00M 1.375(4)
O00D C00Q 1.211(4)
C00E H00E 0.9300
C00E C00P 1.378(5)
C00F H00F 0.9300
C00F C00T 1.376(5)
C00G C00H 1.501(4)
C00H C00N 1.360(4)
C00I H00I 0.9300
C00I C00O 1.367(5)
C00J C00S 1.373(5)
C00J C00X 1.492(5)
O00K C00X 1.193(4)
C00L H00L 0.9300
C00L C00V 1.379(5)
C00M H00M 0.9300
C00M C00U 1.376(5)
C00N H00N 0.9300
C00N C00W 1.377(5)
C00O H00O 0.9300
C00O C00W 1.361(5)
C00P H00P 0.9300
C00P C00Z 1.367(6)
C00Q C00R 1.478(5)
C00R C011 1.380(5)
C00S H00S 0.9300
C00S C013 1.377(6)
C00T H00T 0.9300
C00T C013 1.368(6)
C00U H00U 0.9300
C00U C00V 1.369(5)
C00V H00V 0.9300
C00W H00W 0.9300
C00Z H00Z 0.9300
C00Z C011 1.358(6)
C011 H011 0.9300
C013 H013 0.9300
