#------------------------------------------------------------------------------
#$Date: 2017-10-03 06:17:21 +0300 (Tue, 03 Oct 2017) $
#$Revision: 201578 $
#$URL: file:///home/coder/svn-repositories/cod/cif/7/04/43/7044394.cif $
#------------------------------------------------------------------------------
#
# This file is available in the Crystallography Open Database (COD),
# http://www.crystallography.net/
#
# All data on this site have been placed in the public domain by the
# contributors.
#
data_7044394
loop_
_publ_author_name
'Guo, Mingming'
'Liu, Siyu'
'Guo, Huadong'
'Sun, Yingying'
'Guo, Xianmin'
'Deng, Ruiping'
_publ_section_title
;
 The mixed-ligand strategy to assemble a microporous anionic metal-organic
 framework: Ln3+ post-functionalization, sensors and selective adsorption
 of dyes
;
_journal_name_full               'Dalton Trans.'
_journal_paper_doi               10.1039/C7DT02506H
_journal_year                    2017
_chemical_formula_moiety         'C102 H106 N12 O20 S Zn2'
_chemical_formula_sum            'C102 H106 N12 O20 S Zn2'
_chemical_formula_weight         1982.78
_space_group_crystal_system      triclinic
_space_group_IT_number           2
_space_group_name_Hall           '-P 1'
_space_group_name_H-M_alt        'P -1'
_symmetry_space_group_name_Hall  '-P 1'
_symmetry_space_group_name_H-M   'P -1'
_atom_sites_solution_hydrogens   geom
_audit_creation_method           SHELXL-2014/7
_audit_update_record
;
2017-09-20 deposited with the CCDC.
2017-10-02 downloaded from the CCDC.
;
_cell_angle_alpha                93.4100(10)
_cell_angle_beta                 95.780(2)
_cell_angle_gamma                104.9080(10)
_cell_formula_units_Z            2
_cell_length_a                   13.5628(9)
_cell_length_b                   15.8310(10)
_cell_length_c                   24.5816(16)
_cell_measurement_reflns_used    16486
_cell_measurement_temperature    120(2)
_cell_measurement_theta_max      24.363
_cell_measurement_theta_min      1.768
_cell_volume                     5054.3(6)
_computing_cell_refinement       'Bruker SMART'
_computing_data_collection       'Bruker SMART'
_computing_data_reduction        'Bruker SAINT'
_computing_structure_refinement  'SHELXL-2014/7 (Sheldrick, 2014)'
_computing_structure_solution    'SHELXL-2014/7 (Sheldrick, 2014)'
_diffrn_ambient_temperature      120(2)
_diffrn_measured_fraction_theta_full 0.996
_diffrn_measured_fraction_theta_max 0.996
_diffrn_measurement_device_type  'CCD area detector'
_diffrn_radiation_type           MoK\a
_diffrn_radiation_wavelength     0.71073
_diffrn_reflns_av_R_equivalents  0.0380
_diffrn_reflns_av_unetI/netI     0.0763
_diffrn_reflns_Laue_measured_fraction_full 0.996
_diffrn_reflns_Laue_measured_fraction_max 0.996
_diffrn_reflns_limit_h_max       15
_diffrn_reflns_limit_h_min       -15
_diffrn_reflns_limit_k_max       18
_diffrn_reflns_limit_k_min       -18
_diffrn_reflns_limit_l_max       28
_diffrn_reflns_limit_l_min       -18
_diffrn_reflns_number            27564
_diffrn_reflns_point_group_measured_fraction_full 0.996
_diffrn_reflns_point_group_measured_fraction_max 0.996
_diffrn_reflns_theta_full        24.363
_diffrn_reflns_theta_max         24.363
_diffrn_reflns_theta_min         1.768
_exptl_absorpt_coefficient_mu    0.569
_exptl_absorpt_correction_T_max  0.917
_exptl_absorpt_correction_T_min  0.898
_exptl_absorpt_correction_type   empirical
_exptl_absorpt_process_details   SADABS
_exptl_crystal_colour            colorless
_exptl_crystal_density_diffrn    1.303
_exptl_crystal_density_method    'not measured'
_exptl_crystal_description       block
_exptl_crystal_F_000             2076
_exptl_crystal_size_max          0.20
_exptl_crystal_size_mid          0.18
_exptl_crystal_size_min          0.16
_refine_diff_density_max         0.677
_refine_diff_density_min         -0.613
_refine_diff_density_rms         0.084
_refine_ls_extinction_method     none
_refine_ls_goodness_of_fit_ref   1.033
_refine_ls_hydrogen_treatment    constr
_refine_ls_matrix_type           full
_refine_ls_number_parameters     1117
_refine_ls_number_reflns         16486
_refine_ls_number_restraints     916
_refine_ls_restrained_S_all      1.016
_refine_ls_R_factor_all          0.1038
_refine_ls_R_factor_gt           0.0687
_refine_ls_shift/su_max          0.001
_refine_ls_shift/su_mean         0.000
_refine_ls_structure_factor_coef Fsqd
_refine_ls_weighting_details
'w=1/[\s^2^(Fo^2^)+(0.1138P)^2^+6.2755P] where P=(Fo^2^+2Fc^2^)/3'
_refine_ls_weighting_scheme      calc
_refine_ls_wR_factor_gt          0.1901
_refine_ls_wR_factor_ref         0.2095
_reflns_Friedel_coverage         0.000
_reflns_number_gt                11082
_reflns_number_total             16486
_reflns_threshold_expression     'I > 2\s(I)'
_cod_data_source_file            c7dt02506h2.cif
_cod_data_source_block           1_sq
_cod_database_code               7044394
_shelx_shelxl_version_number     2014/7
_shelx_space_group_comment
;
The symmetry employed for this shelxl refinement is uniquely defined
by the following loop, which should always be used as a source of
symmetry information in preference to the above space-group names.
They are only intended as comments.
;
_platon_squeeze_void_probe_radius 1.20
_shelx_res_file
;

    1_sq.res created by SHELXL-2014/7


TITL aaa in P-1
CELL 0.71073 13.5628 15.831 24.5816 93.41 95.78 104.908
ZERR 2 0.0009 0.001 0.0016 0.001 0.002 0.001
LATT 1
SFAC C H N O S Zn
UNIT 204 212 24 40 2 4
SADI O5 C27A O6 C27A O0AA C27B O1AA C27B
SADI C27B C24 C27A C24
SADI N5BA C6BA N5BA C1A
SADI N7BA C2BA N7BA C0CA
SADI N8BA C1CA N8BA C2CA
RIGU
EADP C27B C27A
EADP C28A C28B

L.S. 15 0 162
PLAN  30
TEMP 23
BOND $h
htab
ABIN
fmap 2
acta
OMIT 1 0 1
OMIT 0 1 0
OMIT 0 0 1
OMIT -1 0 1
OMIT 0 -2 1
OMIT 0 0 2
OMIT -1 1 1
OMIT -1 -2 1
REM <olex2.extras>
REM <HklSrc "%.\\aaa_sq.hkl">
REM </olex2.extras>

WGHT    0.113800    6.275500
FVAR       0.76344
ZN1   6    0.116819    0.147698    0.344078    11.00000    0.03363    0.02120 =
         0.02630    0.00105    0.00882    0.00783
ZN2   6    0.341227    0.653330   -0.250643    11.00000    0.05240    0.02537 =
         0.02652    0.00330    0.01833    0.00866
S1    5    0.761522    0.571818    0.472381    11.00000    0.02957    0.02066 =
         0.04715    0.00224    0.01646    0.00302
O1    4    0.432238    0.579759   -0.266233    11.00000    0.06220    0.03531 =
         0.05330    0.00869    0.03063    0.01682
O2    4    0.580863    0.671636   -0.282123    11.00000    0.06617    0.03164 =
         0.05514   -0.00208    0.02568    0.01029
O3    4    0.909557    0.196039   -0.656751    11.00000    0.04314    0.06551 =
         0.03285   -0.00262    0.00747    0.00824
O4    4    1.025556    0.154710   -0.600242    11.00000    0.04125    0.03103 =
         0.04257    0.00422    0.02404    0.00967
PART 1
O5    4    0.348727   -0.259428   -0.317040    10.80000    0.04556    0.02829 =
         0.09710    0.01734    0.02662    0.00838
O6    4    0.424544   -0.207158   -0.235340    10.80000    0.06654    0.03890 =
         0.07577    0.02353    0.04061    0.02022
PART 0
O7    4    0.122144    0.246552    0.300091    11.00000    0.08410    0.04023 =
         0.03699    0.01217    0.02619    0.03115
PART 1
O8    4    0.193230    0.191156    0.234957    10.80000    0.07257    0.03372 =
         0.06609    0.01778    0.04052    0.02273
PART 0
O9    4    0.193613    0.705481   -0.194654    11.00000    0.11785    0.07296 =
         0.06172    0.02785    0.03828    0.05214
O10   4    0.318202    0.637720   -0.173609    11.00000    0.08375    0.04415 =
         0.03721    0.00923    0.03067    0.01794
O11   4   -0.024290    1.024422    0.265666    11.00000    0.07767    0.06320 =
         0.06830   -0.01610   -0.00920    0.04641
O12   4    0.118224    1.029907    0.318280    11.00000    0.05142    0.02548 =
         0.04520   -0.00653    0.00681    0.00702
O13   4    0.722553    0.644714    0.488768    11.00000    0.03499    0.02248 =
         0.06002    0.00229    0.01504    0.00633
O14   4    0.813773    0.575272    0.424498    11.00000    0.03670    0.03351 =
         0.04947    0.00864    0.02037    0.00309
N1    3    0.252300    0.181680    0.394762    11.00000    0.03290    0.02071 =
         0.02960    0.00114    0.00661    0.00263
N2    3    0.403653    0.259355    0.436924    11.00000    0.02745    0.01721 =
         0.03395    0.00059    0.00681    0.00141
N3    3    1.057742    0.528797    0.655251    11.00000    0.04412    0.02231 =
         0.03711    0.00073    0.01810    0.00404
N4    3    1.209223    0.572923    0.708241    11.00000    0.04829    0.02819 =
         0.03623    0.00997    0.02088    0.01002
C1    1    0.520360    0.597520   -0.283536    11.00000    0.05651    0.03473 =
         0.02984    0.00410    0.01852    0.01321
C2    1    0.548241    0.518178   -0.308092    11.00000    0.04939    0.03295 =
         0.03649    0.00307    0.01841    0.00938
C3    1    0.475481    0.438158   -0.318389    11.00000    0.04066    0.03443 =
         0.05538    0.00000    0.01690    0.01006
AFIX  43
H3    2    0.408414    0.433673   -0.311156    11.00000   -1.20000
AFIX   0
C4    1    0.501192    0.364705   -0.339309    11.00000    0.04101    0.03183 =
         0.05716   -0.00194    0.01589    0.00707
AFIX  43
H4    2    0.451041    0.311643   -0.346900    11.00000   -1.20000
AFIX   0
C5    1    0.602460    0.369868   -0.349122    11.00000    0.04367    0.02550 =
         0.03477    0.00007    0.01624    0.00693
C6    1    0.674592    0.450473   -0.340470    11.00000    0.04093    0.03283 =
         0.04629   -0.00254    0.01845    0.00429
AFIX  43
H6    2    0.741350    0.455254   -0.348353    11.00000   -1.20000
AFIX   0
C7    1    0.647952    0.524671   -0.320002    11.00000    0.05017    0.03119 =
         0.04552    0.00170    0.01921    0.00611
AFIX  43
H7    2    0.696952    0.578583   -0.314310    11.00000   -1.20000
AFIX   0
C8    1    0.629868    0.288676   -0.368845    11.00000    0.03079    0.02616 =
         0.03413   -0.00199    0.00562    0.00516
C9    1    0.585079    0.208802   -0.348436    11.00000    0.03578    0.02845 =
         0.03001   -0.00218    0.01168    0.00526
AFIX  43
H9    2    0.538832    0.207035   -0.322774    11.00000   -1.20000
AFIX   0
C10   1    0.608891    0.132077   -0.366064    11.00000    0.03673    0.02743 =
         0.02823   -0.00158    0.00710    0.00279
C11   1    0.677336    0.135818   -0.405133    11.00000    0.03887    0.02972 =
         0.03225   -0.00017    0.01194    0.01216
AFIX  43
H11   2    0.694640    0.085092   -0.416765    11.00000   -1.20000
AFIX   0
C12   1    0.719862    0.213624   -0.426844    11.00000    0.03327    0.03104 =
         0.02990    0.00190    0.00855    0.00794
C13   1    0.696595    0.289853   -0.407812    11.00000    0.03232    0.02615 =
         0.03662    0.00575    0.00984    0.00488
AFIX  43
H13   2    0.726562    0.342632   -0.421600    11.00000   -1.20000
AFIX   0
C14   1    0.783582    0.213021   -0.471969    11.00000    0.03301    0.02034 =
         0.03422    0.00133    0.01077    0.00341
C15   1    0.748857    0.230840   -0.524216    11.00000    0.03630    0.04827 =
         0.04203    0.00985    0.01341    0.01506
AFIX  43
H15   2    0.689323    0.249703   -0.529282    11.00000   -1.20000
AFIX   0
C16   1    0.800814    0.221120   -0.568553    11.00000    0.03414    0.04647 =
         0.03585    0.00803    0.00910    0.00708
AFIX  43
H16   2    0.775654    0.232464   -0.603192    11.00000   -1.20000
AFIX   0
C17   1    0.891011    0.194306   -0.561498    11.00000    0.03151    0.02164 =
         0.03332    0.00192    0.01022   -0.00073
C18   1    0.928725    0.180881   -0.509832    11.00000    0.03051    0.03576 =
         0.03569    0.00108    0.00883    0.01030
AFIX  43
H18   2    0.991112    0.166524   -0.504518    11.00000   -1.20000
AFIX   0
C19   1    0.875152    0.188388   -0.465184    11.00000    0.03493    0.04518 =
         0.02972    0.00125    0.00572    0.01265
AFIX  43
H19   2    0.900644    0.176895   -0.430650    11.00000   -1.20000
AFIX   0
C20   1    0.945134    0.180767   -0.610596    11.00000    0.03043    0.02915 =
         0.03587   -0.00389    0.01107   -0.00294
PART 1
C22   1    0.528275   -0.030689   -0.379341    10.80000    0.04564    0.02302 =
         0.03957    0.00539    0.01526    0.01189
AFIX  43
H22   2    0.544957   -0.030669   -0.415122    10.80000   -1.20000
AFIX   0
C23   1    0.475913   -0.107973   -0.360579    10.80000    0.04544    0.02539 =
         0.05159    0.00411    0.02058    0.01075
AFIX  43
H23   2    0.456463   -0.159036   -0.384245    10.80000   -1.20000
AFIX  66
PART 0
C24   1    0.452619   -0.111016   -0.309290    11.00000    0.04476    0.03010 =
         0.05408    0.00716    0.02043    0.00453
PART 2
C3AA  1    0.551613   -0.100103   -0.323305    10.20000    0.04071
AFIX  43
H3AA  2    0.583159   -0.145595   -0.320522    10.20000   -1.20000
AFIX  65
C2AA  1    0.603457   -0.021198   -0.341479    10.20000    0.04164
AFIX  43
H2AA  2    0.669691   -0.013898   -0.350856    10.20000   -1.20000
AFIX  65
PART 0
C21   1    0.556309    0.046794   -0.345639    11.00000    0.03505    0.02724 =
         0.04009    0.00399    0.01359    0.00829
PART 2
C1AA  1    0.457315    0.035883   -0.331624    10.20000    0.03930
AFIX  43
H1AA  2    0.425770    0.081375   -0.334407    10.20000   -1.20000
AFIX  65
C0AA  1    0.405470   -0.043021   -0.313450    10.20000    0.03461
AFIX  43
H0AA  2    0.339236   -0.050322   -0.304073    10.20000   -1.20000
AFIX   0
PART 0
PART 1
C25   1    0.488723   -0.035794   -0.272070    10.80000    0.06294    0.03887 =
         0.04505    0.00826    0.02404    0.00780
AFIX  43
H25   2    0.479671   -0.038743   -0.235161    10.80000   -1.20000
AFIX   0
C26   1    0.537782    0.042483   -0.291056    10.80000    0.06575    0.03483 =
         0.04047    0.00304    0.02336    0.00219
AFIX  43
H26   2    0.558789    0.093125   -0.267033    10.80000   -1.20000
AFIX   0
PART 0
PART 2
C27B  1    0.380972   -0.194722   -0.293309    10.20000    0.04501    0.03485 =
         0.07272    0.01551    0.03419    0.01096
C28B  1    0.115258    0.251968    0.255267    10.20000    0.05370    0.02911 =
         0.03895    0.00688    0.02063    0.01370
C29B  1    0.116222    0.324378    0.223354    10.20000    0.01282
PART 0
PART 1
C30   1    0.081118    0.374095    0.235940    10.80000    0.06512    0.03833 =
         0.03401    0.01333    0.02458    0.01513
AFIX  43
H30   2    0.036401    0.355346    0.261726    10.80000   -1.20000
AFIX   0
C31   1    0.078229    0.449961    0.209526    10.80000    0.09501    0.04202 =
         0.03915    0.01443    0.03354    0.03547
AFIX  43
H31   2    0.031185    0.481152    0.217478    10.80000   -1.20000
AFIX   0
PART 0
PART 2
C32B  1    0.111324    0.472769    0.169395    10.20000    0.03257
PART 0
PART 1
C33   1    0.208367    0.425105    0.157441    10.80000    0.14597    0.04950 =
         0.06423    0.02689    0.07441    0.05186
AFIX  43
H33   2    0.251359    0.440525    0.130418    10.80000   -1.20000
AFIX   0
C34   1    0.208195    0.350008    0.182492    10.80000    0.09812    0.03807 =
         0.06226    0.02291    0.05631    0.03409
AFIX  43
H34   2    0.248352    0.314491    0.170823    10.80000   -1.20000
AFIX   0
PART 0
C35   1    0.141218    0.559125    0.142771    11.00000    0.15862    0.03898 =
         0.03935    0.01390    0.05316    0.04390
C36   1    0.126527    0.631787    0.172934    11.00000    0.15000    0.03534 =
         0.04086    0.01129    0.04412    0.03853
AFIX  43
H36   2    0.118591    0.628996    0.209980    11.00000   -1.20000
AFIX   0
C37   1    0.123682    0.706617    0.148792    11.00000    0.15811    0.04076 =
         0.04505    0.01553    0.05350    0.04425
C38   1    0.135314    0.711103    0.093778    11.00000    0.26416    0.05330 =
         0.05848    0.02906    0.08317    0.08915
AFIX  43
H38   2    0.129371    0.760762    0.076741    11.00000   -1.20000
AFIX   0
C39   1    0.156257    0.640368    0.063208    11.00000    0.25204    0.05540 =
         0.04904    0.02818    0.08334    0.08369
C40   1    0.160025    0.565837    0.089027    11.00000    0.23263    0.05086 =
         0.04733    0.02266    0.07601    0.07631
AFIX  43
H40   2    0.175522    0.519495    0.069753    11.00000   -1.20000
AFIX   0
C41   1    0.177874    0.648174    0.005641    11.00000    0.24975    0.05931 =
         0.05799    0.03397    0.08063    0.09334
C42   1    0.111640    0.676183   -0.033492    11.00000    0.26289    0.12438 =
         0.07404    0.05709    0.10128    0.13344
AFIX  43
H42   2    0.054083    0.690814   -0.022452    11.00000   -1.20000
AFIX   0
C43   1    0.130819    0.682574   -0.089449    11.00000    0.20264    0.10567 =
         0.07136    0.04654    0.08032    0.10034
AFIX  43
H43   2    0.086460    0.699730   -0.115223    11.00000   -1.20000
AFIX   0
C44   1    0.219836    0.661670   -0.103437    11.00000    0.17221    0.05848 =
         0.05049    0.02441    0.05712    0.06674
C45   1    0.282382    0.629725   -0.066164    11.00000    0.16086    0.06085 =
         0.04263    0.00626    0.03979    0.04907
AFIX  43
H45   2    0.339611    0.614233   -0.076970    11.00000   -1.20000
AFIX   0
C46   1    0.258537    0.620932   -0.011811    11.00000    0.21237    0.05834 =
         0.04775    0.01976    0.05663    0.05671
AFIX  43
H46   2    0.298033    0.596353    0.012463    11.00000   -1.20000
AFIX   0
C47   1    0.244460    0.669924   -0.161486    11.00000    0.12472    0.05705 =
         0.05307    0.01841    0.04086    0.05130
C48   1    0.105314    0.782191    0.181784    11.00000    0.12333    0.03502 =
         0.03952    0.00747    0.03571    0.03364
C49   1    0.027670    0.820645    0.163958    11.00000    0.14133    0.03983 =
         0.04060   -0.00726    0.00782    0.03651
AFIX  43
H49   2   -0.012443    0.800144    0.130503    11.00000   -1.20000
AFIX   0
C50   1    0.009716    0.889430    0.195808    11.00000    0.10982    0.04629 =
         0.04941   -0.01165   -0.01095    0.04068
AFIX  43
H50   2   -0.042415    0.914660    0.183715    11.00000   -1.20000
AFIX   0
C51   1    0.068456    0.919845    0.244700    11.00000    0.05062    0.02517 =
         0.03692    0.00109    0.01133    0.01034
C52   1    0.145261    0.882802    0.263032    11.00000    0.04790    0.03516 =
         0.04802   -0.00115    0.01145    0.01337
AFIX  43
H52   2    0.185743    0.904219    0.296271    11.00000   -1.20000
AFIX   0
C53   1    0.162121    0.813309    0.231721    11.00000    0.08080    0.03837 =
         0.05510    0.00992    0.03838    0.02525
PART 1
AFIX  43
H53   2    0.212887    0.787234    0.244774    11.00000   -1.20000
AFIX   0
PART 0
C54   1    0.050876    0.997196    0.277926    11.00000    0.04661    0.02413 =
         0.03999    0.00196    0.01189    0.01112
C55   1    0.330573    0.250235    0.394110    11.00000    0.03557    0.02417 =
         0.03086    0.00016    0.00902    0.00440
AFIX  43
H55   2    0.335129    0.288741    0.366767    11.00000   -1.20000
AFIX   0
C56   1    0.371736    0.190337    0.469154    11.00000    0.03006    0.01994 =
         0.03303   -0.00160    0.01369    0.00936
C57   1    0.275579    0.141428    0.442304    11.00000    0.03209    0.02052 =
         0.02649    0.00020    0.01159    0.00637
C58   1    0.222362    0.065529    0.462964    11.00000    0.03850    0.02243 =
         0.03518    0.00057    0.00886    0.00255
AFIX  43
H58   2    0.158679    0.032878    0.445617    11.00000   -1.20000
AFIX   0
C59   1    0.266134    0.040107    0.509502    11.00000    0.04465    0.02461 =
         0.04300    0.00938    0.00652    0.00036
AFIX  43
H59   2    0.231468   -0.010395    0.524153    11.00000   -1.20000
AFIX   0
C60   1    0.363232    0.089206    0.535812    11.00000    0.04827    0.03119 =
         0.04114    0.01009    0.00225    0.00732
AFIX  43
H60   2    0.391661    0.069664    0.567075    11.00000   -1.20000
AFIX   0
C61   1    0.416409    0.164785    0.516400    11.00000    0.03750    0.02581 =
         0.04234    0.00363    0.00172    0.00578
AFIX  43
H61   2    0.479722    0.197544    0.534132    11.00000   -1.20000
AFIX   0
C62   1    0.494054    0.331604    0.447574    11.00000    0.02541    0.01860 =
         0.03663    0.00444    0.00816    0.00575
C63   1    0.552683    0.354119    0.404898    11.00000    0.03734    0.02379 =
         0.03361    0.00060    0.01263    0.00439
AFIX  43
H63   2    0.536043    0.320435    0.371316    11.00000   -1.20000
AFIX   0
C64   1    0.636384    0.427438    0.412905    11.00000    0.03464    0.02446 =
         0.04145    0.00078    0.02135    0.00258
AFIX  43
H64   2    0.676317    0.443954    0.384749    11.00000   -1.20000
AFIX   0
C65   1    0.659362    0.475565    0.463595    11.00000    0.02646    0.02221 =
         0.03887    0.00508    0.01164    0.00711
C66   1    0.602085    0.450997    0.506330    11.00000    0.02869    0.02242 =
         0.03257    0.00143    0.00880    0.00751
AFIX  43
H66   2    0.619837    0.483358    0.540353    11.00000   -1.20000
AFIX   0
C67   1    0.518133    0.377948    0.498222    11.00000    0.02739    0.02125 =
         0.03505    0.00350    0.01183    0.00652
AFIX  43
H67   2    0.478937    0.360724    0.526562    11.00000   -1.20000
AFIX   0
C68   1    0.843229    0.554987    0.528493    11.00000    0.02611    0.02106 =
         0.04165   -0.00068    0.01634    0.00242
C69   1    0.873180    0.617967    0.572897    11.00000    0.03888    0.02068 =
         0.04255   -0.00110    0.01752    0.00787
AFIX  43
H69   2    0.846770    0.666661    0.574075    11.00000   -1.20000
AFIX   0
C70   1    0.941663    0.607679    0.614721    11.00000    0.04498    0.02420 =
         0.03910   -0.00607    0.01319    0.00698
AFIX  43
H70   2    0.962072    0.649564    0.644676    11.00000   -1.20000
AFIX   0
C71   1    0.981259    0.535126    0.612989    11.00000    0.03388    0.02378 =
         0.04006    0.00309    0.02029    0.00415
C72   1    0.950295    0.471066    0.569082    11.00000    0.03434    0.02258 =
         0.04505    0.00395    0.02023    0.00941
AFIX  43
H72   2    0.976596    0.422302    0.568275    11.00000   -1.20000
AFIX   0
C73   1    0.880977    0.480287    0.527155    11.00000    0.03056    0.01908 =
         0.04498   -0.00600    0.01578    0.00197
AFIX  43
H73   2    0.858835    0.437332    0.497841    11.00000   -1.20000
AFIX   0
C74   1    1.141328    0.596578    0.675005    11.00000    0.05124    0.02751 =
         0.03053    0.00337    0.01672    0.00570
AFIX  43
H74   2    1.149181    0.653847    0.665744    11.00000   -1.20000
AFIX   0
C75   1    1.074249    0.453811    0.677906    11.00000    0.04942    0.02755 =
         0.03860    0.00472    0.02644    0.01119
C76   1    1.014843    0.366964    0.673465    11.00000    0.05773    0.02621 =
         0.05124    0.00477    0.02606    0.00621
AFIX  43
H76   2    0.951127    0.348378    0.652277    11.00000   -1.20000
AFIX   0
C77   1    1.057619    0.310209    0.702941    11.00000    0.07469    0.02620 =
         0.07335    0.01798    0.02830    0.01008
AFIX  43
H77   2    1.020437    0.251785    0.701867    11.00000   -1.20000
AFIX   0
C78   1    1.152760    0.336686    0.733712    11.00000    0.07717    0.03850 =
         0.07383    0.02144    0.02517    0.01894
AFIX  43
H78   2    1.179430    0.295541    0.751282    11.00000   -1.20000
AFIX   0
C79   1    1.208535    0.422788    0.738753    11.00000    0.06300    0.03846 =
         0.05443    0.01819    0.01804    0.01479
AFIX  43
H79   2    1.271517    0.441032    0.760656    11.00000   -1.20000
AFIX   0
C80   1    1.168327    0.482561    0.710110    11.00000    0.05307    0.03240 =
         0.03549    0.00807    0.02376    0.01281
PART 2
O0AA  4    0.286281   -0.205807   -0.293866    10.20000    0.04295
O1AA  4    0.431063   -0.246757   -0.277476    10.20000    0.03985
PART 0
PART 1
C27A  1    0.405471   -0.197723   -0.285928    10.80000    0.04501    0.03485 =
         0.07272    0.01551    0.03419    0.01096
PART 0
PART 2
C7AA  1    0.098400    0.324242    0.168052    10.20000    0.05428
AFIX  43
H7AA  2    0.086473    0.271333    0.146666    10.20000   -1.20000
AFIX   0
C6AA  1    0.097103    0.399994    0.141619    10.20000    0.06905
C5AA  1    0.137106    0.406618    0.251512    10.20000    0.03668
AFIX  43
H5AA  2    0.149018    0.410967    0.289630    10.20000   -1.20000
AFIX   0
C4AA  1    0.141251    0.484703    0.225102    10.20000    0.04445
PART 0
PART 1
C32A  1    0.147181    0.478542    0.170843    10.80000    0.10324    0.02819 =
         0.03440    0.00613    0.03828    0.02491
C29A  1    0.151495    0.326652    0.223391    10.80000    0.05667    0.03149 =
         0.04169    0.00621    0.02097    0.01323

PART 0
N2BA  3    0.823332    0.864076    0.371726    11.00000    0.04757    0.04578 =
         0.07443    0.02456    0.02092    0.00775

N8AA  3    0.135272    0.851143   -0.230293    11.00000    0.06148    0.09363 =
         0.05780   -0.01639   -0.00191    0.04436
AFIX  23
H8AA  2    0.144922    0.797572   -0.231820    11.00000   -1.20000
H8AB  2    0.087824    0.852085   -0.257868    11.00000   -1.20000
AFIX   0

C4BA  1    0.796161    0.783391    0.398170    11.00000    0.07824    0.04351 =
         0.09637    0.02503    0.03235    0.01014
AFIX 137
H4BA  2    0.853807    0.758571    0.401671    11.00000   -1.50000
H4BB  2    0.738989    0.742582    0.376446    11.00000   -1.50000
H4BC  2    0.777666    0.795502    0.433932    11.00000   -1.50000
AFIX   0
C0BA  1    0.917632    0.926818    0.394659    11.00000    0.05935    0.05702 =
         0.09976    0.01625    0.02731    0.00363
AFIX 137
H0BA  2    0.919284    0.934593    0.433801    11.00000   -1.50000
H0BB  2    0.921463    0.981943    0.379537    11.00000   -1.50000
H0BC  2    0.974999    0.905737    0.385923    11.00000   -1.50000
AFIX   0

N5BA  3    0.368271    0.171413    0.202051    11.00000    0.08466    0.13316 =
         0.10377   -0.04541   -0.00045    0.05001
AFIX  23
H5BA  2    0.329917    0.197598    0.220830    11.00000   -1.20000
H5BB  2    0.429512    0.181847    0.221832    11.00000   -1.20000
AFIX   0

C9AA  1    0.227043    0.911325   -0.237696    11.00000    0.08706    0.09725 =
         0.10900    0.03086    0.00710    0.03809
AFIX  33
H9AA  2    0.247895    0.896420   -0.272381    11.00000   -1.50000
H9AB  2    0.217042    0.969226   -0.237111    11.00000   -1.50000
H9AC  2    0.279345    0.909745   -0.208689    11.00000   -1.50000
AFIX   0
C3BA  1    0.095655    0.868018   -0.177609    11.00000    0.17629    0.11290 =
         0.09861    0.03691    0.05687    0.09092
AFIX  33
H3BA  2    0.032691    0.824287   -0.175348    11.00000   -1.50000
H3BB  2    0.145498    0.865592   -0.147518    11.00000   -1.50000
H3BC  2    0.083195    0.925073   -0.175940    11.00000   -1.50000
AFIX   0

C1BA  1    0.766068    0.878374    0.329648    11.00000    0.08951    0.09266 =
         0.11847    0.04128   -0.00289    0.01424
AFIX  43
H1BA  2    0.787298    0.930925    0.313791    11.00000   -1.20000
AFIX   0
O6BA  4    0.683707    0.824984    0.309341    11.00000    0.09874    0.12072 =
         0.15608    0.04610   -0.02462    0.00108

O8BA  4    0.830749    0.623374   -0.006266    10.75000    0.38430    0.10120 =
         0.08716    0.01428    0.09016    0.08786
N7BA  3    0.829635    0.608776    0.083247    10.75000    0.17258    0.11280 =
         0.08571    0.00100    0.04935   -0.02653
C9BA  1    0.862582    0.598086    0.039262    10.75000    0.24355    0.07640 =
         0.08863    0.00298    0.06224   -0.02333
AFIX  43
H9BA  2    0.914495    0.569511    0.038994    10.75000   -1.20000
AFIX   0
C0CA  1    0.854358    0.574237    0.129437    10.75000    0.17711    0.12400 =
         0.08512   -0.00948    0.04138   -0.03774
AFIX  33
H0CA  2    0.818887    0.592001    0.158109    10.75000   -1.50000
H0CB  2    0.834746    0.511385    0.123249    10.75000   -1.50000
H0CC  2    0.927169    0.594556    0.140077    10.75000   -1.50000
AFIX   0
C2BA  1    0.759425    0.656082    0.090030    10.75000    0.26336    0.24780 =
         0.14404    0.01715    0.06978    0.07142
AFIX  33
H2BA  2    0.744333    0.656133    0.127356    10.75000   -1.50000
H2BB  2    0.787296    0.715328    0.081627    10.75000   -1.50000
H2BC  2    0.697483    0.629912    0.065857    10.75000   -1.50000
AFIX   0

PART 2
C1A   1    0.318899    0.072775    0.197209    11.00000    0.22063
AFIX  33
H1AB  2    0.313581    0.052991    0.233231    11.00000   -1.50000
H1AC  2    0.251554    0.060227    0.177126    11.00000   -1.50000
H1AD  2    0.360476    0.043001    0.178221    11.00000   -1.50000
AFIX   0
PART 0
C6BA  1    0.382593    0.213352    0.150282    11.00000    0.29106    0.31409 =
         0.14484    0.04538    0.06997    0.17105
AFIX  33
H6BA  2    0.414110    0.275058    0.158403    11.00000   -1.50000
H6BB  2    0.425949    0.187514    0.129947    11.00000   -1.50000
H6BC  2    0.317027    0.204740    0.128851    11.00000   -1.50000
AFIX   0

N8BA  3    0.020404    0.100254    0.052645    10.35000    0.10284
O5BA  4   -0.084185    0.109186   -0.013749    10.35000    0.13357
C7BA  1   -0.071072    0.082906    0.026082    10.35000    0.10011
AFIX  43
H7BA  2   -0.126300    0.047856    0.040820    10.35000   -1.20000
AFIX   0
C1CA  1    0.085576    0.081284    0.101639    10.35000    0.12974
AFIX  33
H1CA  2    0.155401    0.115247    0.102027    10.35000   -1.50000
H1CB  2    0.059800    0.096594    0.134767    10.35000   -1.50000
H1CC  2    0.082897    0.019970    0.099222    10.35000   -1.50000
AFIX   0
C2CA  1    0.100401    0.177210    0.037873    10.35000    0.16194
AFIX  33
H2CA  2    0.164131    0.182685    0.060444    10.35000   -1.50000
H2CB  2    0.109853    0.168540   -0.000038    10.35000   -1.50000
H2CC  2    0.078474    0.229709    0.043747    10.35000   -1.50000
AFIX   0

PART 2
O2AA  4    0.079575    0.174258    0.226138    10.20000    0.08275
PART 0
PART 1
C28A  1    0.154698    0.247223    0.254472    10.80000    0.05370    0.02911 =
         0.03895    0.00688    0.02063    0.01370
HKLF 4

REM  aaa in P-1
REM R1 =  0.0687 for   11082 Fo > 4sig(Fo)  and  0.1038 for all   16486 data
REM   1117 parameters refined using    916 restraints

END

WGHT      0.1134      6.3380

REM Instructions for potential hydrogen bonds
EQIV $1 -x+1, -y+1, -z
HTAB C55 O2_$1
HTAB C63 O2_$1
EQIV $2 -x+1, -y, -z
HTAB C63 O5_$2
HTAB C63 O1AA_$2
EQIV $3 -x+2, -y+1, -z
HTAB C70 O3_$3
EQIV $4 -x+1, -y+1, -z+1
HTAB C70 O7_$4
EQIV $5 x+1, y+1, z+1
HTAB C74 O0AA_$5
HTAB N8AA O9
EQIV $6 -x+1, -y+1, -z-1
HTAB N8AA O3_$6
EQIV $7 -x, -y+2, -z
HTAB N8AA O11_$7
EQIV $8 -x, -y+1, -z
HTAB N8AA O2AA_$8
HTAB N5BA O2_$1
HTAB N5BA O1AA_$2
EQIV $9 x, y+1, z
HTAB C9AA O0AA_$9
HTAB C3BA O2AA_$8
HTAB C3BA O11_$7
HTAB C1CA O2AA
HTAB C2CA O8BA_$1

REM Highest difference peak  0.677,  deepest hole -0.613,  1-sigma level  0.084
Q1    1   0.3082  0.7420 -0.1775  11.00000  0.05    0.68
Q2    1   0.3111  0.6920 -0.0868  11.00000  0.05    0.65
Q3    1  -0.0124  0.1400 -0.0192  11.00000  0.05    0.65
Q4    1   0.9230  0.5506  0.0461  11.00000  0.05    0.62
Q5    1   0.2391  0.7240 -0.0692  11.00000  0.05    0.62
Q6    1   0.0522  0.0371  0.0916  11.00000  0.05    0.62
Q7    1   0.1966  0.2229  0.0448  11.00000  0.05    0.60
Q8    1   0.1430  0.8999 -0.2672  11.00000  0.05    0.57
Q9    1  -0.0817  0.0051  0.0554  11.00000  0.05    0.55
Q10   1   0.3353  0.7058 -0.1423  11.00000  0.05    0.54
Q11   1   0.1206  0.1278  0.1183  11.00000  0.05    0.53
Q12   1   0.4084  0.6431 -0.2435  11.00000  0.05    0.53
Q13   1   0.0860  0.2144  0.0724  11.00000  0.05    0.52
Q14   1   0.2268  0.9553 -0.1967  11.00000  0.05    0.51
Q15   1   0.7417  0.5812 -0.0177  11.00000  0.05    0.48
Q16   1   0.2158  0.7240 -0.0161  11.00000  0.05    0.48
Q17   1   0.2958  0.1235  0.2422  11.00000  0.05    0.47
Q18   1   0.9088  0.1295 -0.6504  11.00000  0.05    0.47
Q19   1   0.7557  0.6029  0.0324  11.00000  0.05    0.46
Q20   1   0.0904  0.7756 -0.2156  11.00000  0.05    0.45
Q21   1   0.0186  0.1602  0.0304  11.00000  0.05    0.44
Q22   1   0.3066  0.0638  0.2186  11.00000  0.05    0.44
Q23   1   0.1400 -0.0250  0.0667  11.00000  0.05    0.44
Q24   1   0.3593  0.5947 -0.1660  11.00000  0.05    0.41
Q25   1   0.7771  0.9230  0.2904  11.00000  0.05    0.40
Q26   1   0.3237  0.6234 -0.2894  11.00000  0.05    0.40
Q27   1   0.5185 -0.0988 -0.3305  11.00000  0.05    0.40
Q28   1  -0.1268  0.1106 -0.0214  11.00000  0.05    0.40
Q29   1   0.3785  0.6151 -0.1612  11.00000  0.05    0.39
Q30   1   0.1098  0.1166  0.3096  11.00000  0.05    0.39
;
_shelx_res_checksum              36667
_shelx_fab_file
;
    2    0    0     57.86      0.00
    3    0    0    -10.33      0.00
    4    0    0      5.23      0.00
    5    0    0     -0.14      0.00
    6    0    0     -2.74      0.00
    7    0    0     -2.49      0.00
    8    0    0      0.69      0.00
    9    0    0      1.62      0.00
   10    0    0     -0.39      0.00
   11    0    0      0.13      0.00
   12    0    0     -0.20      0.00
   13    0    0      0.55      0.00
   14    0    0     -0.67      0.00
   15    0    0      1.01      0.00
  -15    1    0     -0.60      0.00
  -14    1    0      1.70      0.00
  -13    1    0     -1.08      0.00
  -12    1    0      0.80      0.00
  -11    1    0     -1.26      0.00
  -10    1    0      1.09      0.00
   -9    1    0      1.17      0.00
   -8    1    0     -1.18      0.00
   -7    1    0     -0.54      0.00
   -6    1    0     -4.63      0.00
   -5    1    0      3.01      0.00
   -4    1    0      1.10      0.00
   -3    1    0     13.55      0.00
   -2    1    0    -44.69      0.00
   -1    1    0     24.71      0.00
    1    1    0      1.11      0.00
    2    1    0    -61.92      0.00
    3    1    0     52.03      0.00
    4    1    0    -23.35      0.00
    5    1    0     11.80      0.00
    6    1    0     -8.07      0.00
    7    1    0     -0.53      0.00
    8    1    0      1.90      0.00
    9    1    0      0.27      0.00
   10    1    0      0.06      0.00
   11    1    0     -0.13      0.00
   12    1    0      0.86      0.00
   13    1    0     -0.29      0.00
   14    1    0     -0.91      0.00
  -15    2    0      0.45      0.00
  -14    2    0     -0.02      0.00
  -13    2    0      0.05      0.00
  -12    2    0      0.11      0.00
  -11    2    0     -1.06      0.00
  -10    2    0      2.13      0.00
   -9    2    0     -0.27      0.00
   -8    2    0     -2.38      0.00
   -7    2    0     -1.07      0.00
   -6    2    0      3.01      0.00
   -5    2    0     -7.29      0.00
   -4    2    0     19.72      0.00
   -3    2    0    -37.21      0.00
   -2    2    0     29.77      0.00
   -1    2    0     -3.67      0.00
    0    2    0     10.10      0.00
    1    2    0      3.28      0.00
    2    2    0    -26.48      0.00
    3    2    0     13.77      0.00
    4    2    0      0.57      0.00
    5    2    0     -3.20      0.00
    6    2    0      1.32      0.00
    7    2    0     -3.13      0.00
    8    2    0      1.84      0.00
    9    2    0      0.38      0.00
   10    2    0     -0.12      0.00
   11    2    0      0.80      0.00
   12    2    0     -0.08      0.00
   13    2    0     -0.49      0.00
   14    2    0     -0.19      0.00
  -15    3    0      3.13      0.00
  -14    3    0     -2.42      0.00
  -13    3    0      0.80      0.00
  -12    3    0     -0.35      0.00
  -11    3    0      0.43      0.00
  -10    3    0      1.75      0.00
   -9    3    0     -2.95      0.00
   -8    3    0     -1.61      0.00
   -7    3    0      2.50      0.00
   -6    3    0      0.68      0.00
   -5    3    0     -1.34      0.00
   -4    3    0     -3.03      0.00
   -3    3    0     -4.76      0.00
   -2    3    0     15.39      0.00
   -1    3    0      6.87      0.00
    0    3    0    -17.67      0.00
    1    3    0     16.16      0.00
    2    3    0    -15.87      0.00
    3    3    0      4.66      0.00
    4    3    0     -0.45      0.00
    5    3    0      0.84      0.00
    6    3    0     -3.14      0.00
    7    3    0      2.17      0.00
    8    3    0     -0.15      0.00
    9    3    0     -0.56      0.00
   10    3    0      0.63      0.00
   11    3    0      0.70      0.00
   12    3    0      0.22      0.00
   13    3    0     -1.31      0.00
   14    3    0      0.52      0.00
  -15    4    0      1.64      0.00
  -14    4    0     -1.28      0.00
  -13    4    0     -0.81      0.00
  -12    4    0      2.08      0.00
  -11    4    0     -0.57      0.00
  -10    4    0     -0.30      0.00
   -9    4    0     -1.17      0.00
   -8    4    0     -0.42      0.00
   -7    4    0      1.11      0.00
   -6    4    0      2.89      0.00
   -5    4    0     -7.85      0.00
   -4    4    0      5.24      0.00
   -3    4    0     -4.76      0.00
   -2    4    0     13.04      0.00
   -1    4    0      9.34      0.00
    0    4    0    -32.74      0.00
    1    4    0     27.56      0.00
    2    4    0    -11.67      0.00
    3    4    0     -3.37      0.00
    4    4    0      5.14      0.00
    5    4    0     -4.81      0.00
    6    4    0      2.16      0.00
    7    4    0      0.34      0.00
    8    4    0     -0.41      0.00
    9    4    0      0.96      0.00
   10    4    0     -1.83      0.00
   11    4    0      2.84      0.00
   12    4    0     -1.89      0.00
   13    4    0      1.31      0.00
  -15    5    0     -0.80      0.00
  -14    5    0     -0.19      0.00
  -13    5    0      0.92      0.00
  -12    5    0     -0.99      0.00
  -11    5    0      1.50      0.00
  -10    5    0     -1.68      0.00
   -9    5    0      0.63      0.00
   -8    5    0     -0.82      0.00
   -7    5    0      0.90      0.00
   -6    5    0     -0.38      0.00
   -5    5    0      2.62      0.00
   -4    5    0    -11.18      0.00
   -3    5    0     17.35      0.00
   -2    5    0     -4.62      0.00
   -1    5    0      6.99      0.00
    0    5    0    -20.48      0.00
    1    5    0     15.15      0.00
    2    5    0      0.04      0.00
    3    5    0    -10.22      0.00
    4    5    0      6.20      0.00
    5    5    0     -3.46      0.00
    6    5    0      1.46      0.00
    7    5    0      0.65      0.00
    8    5    0      0.22      0.00
    9    5    0     -0.03      0.00
   10    5    0     -1.60      0.00
   11    5    0      3.25      0.00
   12    5    0     -2.48      0.00
   13    5    0      0.55      0.00
  -15    6    0     -0.97      0.00
  -14    6    0      0.54      0.00
  -13    6    0     -0.17      0.00
  -12    6    0     -0.53      0.00
  -11    6    0      1.51      0.00
  -10    6    0     -0.99      0.00
   -9    6    0     -0.83      0.00
   -8    6    0      1.79      0.00
   -7    6    0     -2.19      0.00
   -6    6    0      2.80      0.00
   -5    6    0     -1.63      0.00
   -4    6    0     -4.23      0.00
   -3    6    0     11.45      0.00
   -2    6    0     -1.61      0.00
   -1    6    0     -4.87      0.00
    0    6    0     -1.38      0.00
    1    6    0      1.26      0.00
    2    6    0      4.34      0.00
    3    6    0     -7.86      0.00
    4    6    0      2.42      0.00
    5    6    0     -1.66      0.00
    6    6    0      2.81      0.00
    7    6    0     -1.65      0.00
    8    6    0      2.14      0.00
    9    6    0     -1.10      0.00
   10    6    0     -0.75      0.00
   11    6    0      1.37      0.00
   12    6    0     -0.87      0.00
  -15    7    0     -0.70      0.00
  -14    7    0      0.20      0.00
  -13    7    0      0.71      0.00
  -12    7    0     -0.62      0.00
  -11    7    0      0.13      0.00
  -10    7    0     -0.08      0.00
   -9    7    0      0.80      0.00
   -8    7    0     -1.15      0.00
   -7    7    0      0.81      0.00
   -6    7    0     -0.53      0.00
   -5    7    0     -0.34      0.00
   -4    7    0     -0.22      0.00
   -3    7    0      6.08      0.00
   -2    7    0     -3.36      0.00
   -1    7    0     -0.86      0.00
    0    7    0     -1.68      0.00
    1    7    0      1.34      0.00
    2    7    0      0.88      0.00
    3    7    0     -2.71      0.00
    4    7    0     -1.36      0.00
    5    7    0      1.51      0.00
    6    7    0     -0.63      0.00
    7    7    0      1.98      0.00
    8    7    0      0.36      0.00
    9    7    0     -1.91      0.00
   10    7    0      1.48      0.00
   11    7    0     -1.87      0.00
   12    7    0      1.89      0.00
  -15    8    0     -0.29      0.00
  -14    8    0      0.46      0.00
  -13    8    0      0.58      0.00
  -12    8    0     -0.59      0.00
  -11    8    0     -0.47      0.00
  -10    8    0      0.54      0.00
   -9    8    0      1.05      0.00
   -8    8    0     -1.63      0.00
   -7    8    0      0.37      0.00
   -6    8    0     -0.77      0.00
   -5    8    0      0.84      0.00
   -4    8    0      0.75      0.00
   -3    8    0      1.92      0.00
   -2    8    0      0.42      0.00
   -1    8    0     -5.06      0.00
    0    8    0      4.09      0.00
    1    8    0     -2.64      0.00
    2    8    0      0.67      0.00
    3    8    0     -0.79      0.00
    4    8    0     -1.20      0.00
    5    8    0      0.02      0.00
    6    8    0      1.43      0.00
    7    8    0      0.27      0.00
    8    8    0      0.83      0.00
    9    8    0     -1.06      0.00
   10    8    0     -0.73      0.00
   11    8    0      0.58      0.00
  -15    9    0      2.24      0.00
  -14    9    0     -1.10      0.00
  -13    9    0      0.13      0.00
  -12    9    0      0.84      0.00
  -11    9    0     -1.26      0.00
  -10    9    0      0.80      0.00
   -9    9    0     -0.40      0.00
   -8    9    0      0.36      0.00
   -7    9    0     -1.64      0.00
   -6    9    0      1.28      0.00
   -5    9    0     -0.87      0.00
   -4    9    0      2.59      0.00
   -3    9    0      0.52      0.00
   -2    9    0     -0.63      0.00
   -1    9    0     -3.10      0.00
    0    9    0      2.79      0.00
    1    9    0     -1.80      0.00
    2    9    0      0.08      0.00
    3    9    0     -0.69      0.00
    4    9    0     -0.59      0.00
    5    9    0      0.85      0.00
    6    9    0     -0.05      0.00
    7    9    0      1.00      0.00
    8    9    0     -0.14      0.00
    9    9    0     -0.50      0.00
   10    9    0      0.14      0.00
   11    9    0     -0.32      0.00
  -14   10    0      0.76      0.00
  -13   10    0      0.00      0.00
  -12   10    0      0.51      0.00
  -11   10    0     -0.45      0.00
  -10   10    0     -0.98      0.00
   -9   10    0      0.56      0.00
   -8   10    0     -0.05      0.00
   -7   10    0     -0.62      0.00
   -6   10    0      0.15      0.00
   -5   10    0      0.69      0.00
   -4   10    0      1.89      0.00
   -3   10    0     -1.01      0.00
   -2   10    0      0.39      0.00
   -1   10    0     -1.88      0.00
    0   10    0     -0.49      0.00
    1   10    0      2.29      0.00
    2   10    0     -3.41      0.00
    3   10    0      2.14      0.00
    4   10    0     -1.77      0.00
    5   10    0      0.95      0.00
    6   10    0      1.00      0.00
    7   10    0     -1.07      0.00
    8   10    0      0.30      0.00
    9   10    0      0.76      0.00
   10   10    0     -0.27      0.00
  -14   11    0      0.42      0.00
  -13   11    0     -0.02      0.00
  -12   11    0      0.58      0.00
  -11   11    0     -0.69      0.00
  -10   11    0     -0.99      0.00
   -9   11    0      0.26      0.00
   -8   11    0      0.20      0.00
   -7   11    0      0.10      0.00
   -6   11    0     -0.29      0.00
   -5   11    0      1.58      0.00
   -4   11    0      0.25      0.00
   -3   11    0     -0.97      0.00
   -2   11    0      1.02      0.00
   -1   11    0     -2.14      0.00
    0   11    0      0.41      0.00
    1   11    0      0.05      0.00
    2   11    0      0.07      0.00
    3   11    0     -1.02      0.00
    4   11    0      0.64      0.00
    5   11    0      0.14      0.00
    6   11    0     -0.09      0.00
    7   11    0      0.18      0.00
    8   11    0     -0.18      0.00
    9   11    0      0.71      0.00
  -14   12    0      0.72      0.00
  -13   12    0      0.12      0.00
  -12   12    0      0.04      0.00
  -11   12    0     -1.04      0.00
  -10   12    0      0.16      0.00
   -9   12    0     -0.67      0.00
   -8   12    0      0.44      0.00
   -7   12    0      1.18      0.00
   -6   12    0     -1.02      0.00
   -5   12    0      1.33      0.00
   -4   12    0      0.07      0.00
   -3   12    0     -0.52      0.00
   -2   12    0     -1.11      0.00
   -1   12    0      2.18      0.00
    0   12    0     -3.59      0.00
    1   12    0      2.52      0.00
    2   12    0     -0.86      0.00
    3   12    0     -1.21      0.00
    4   12    0      1.46      0.00
    5   12    0     -0.23      0.00
    6   12    0     -0.82      0.00
    7   12    0      1.23      0.00
    8   12    0     -0.50      0.00
  -13   13    0      0.98      0.00
  -12   13    0      0.07      0.00
  -11   13    0     -2.52      0.00
  -10   13    0      1.56      0.00
   -9   13    0     -0.64      0.00
   -8   13    0      1.09      0.00
   -7   13    0     -0.98      0.00
   -6   13    0      1.20      0.00
   -5   13    0      0.39      0.00
   -4   13    0     -0.81      0.00
   -3   13    0     -0.15      0.00
   -2   13    0      0.59      0.00
   -1   13    0     -0.84      0.00
    0   13    0      0.22      0.00
    1   13    0     -0.46      0.00
    2   13    0     -0.32      0.00
    3   13    0     -0.04      0.00
    4   13    0      0.11      0.00
    5   13    0      0.59      0.00
    6   13    0     -0.37      0.00
    7   13    0     -0.16      0.00
  -12   14    0     -1.30      0.00
  -11   14    0     -1.68      0.00
  -10   14    0      1.67      0.00
   -9   14    0     -0.03      0.00
   -8   14    0      0.05      0.00
   -7   14    0     -0.76      0.00
   -6   14    0      1.37      0.00
   -5   14    0      0.39      0.00
   -4   14    0     -1.54      0.00
   -3   14    0      0.96      0.00
   -2   14    0      0.03      0.00
   -1   14    0     -0.75      0.00
    0   14    0      0.90      0.00
    1   14    0     -2.16      0.00
    2   14    0      0.88      0.00
    3   14    0     -0.07      0.00
    4   14    0      0.14      0.00
    5   14    0      0.41      0.00
    6   14    0     -0.26      0.00
  -12   15    0     -1.06      0.00
  -11   15    0      0.06      0.00
  -10   15    0      0.47      0.00
   -9   15    0      0.38      0.00
   -8   15    0     -0.76      0.00
   -7   15    0     -0.22      0.00
   -6   15    0      1.95      0.00
   -5   15    0     -1.18      0.00
   -4   15    0      0.34      0.00
   -3   15    0     -0.52      0.00
   -2   15    0      1.02      0.00
   -1   15    0     -1.20      0.00
    0   15    0      0.33      0.00
    1   15    0     -1.36      0.00
    2   15    0      0.05      0.00
    3   15    0      1.08      0.00
    4   15    0      0.42      0.00
    5   15    0     -1.24      0.00
  -10   16    0      2.74      0.00
   -9   16    0     -2.39      0.00
   -8   16    0     -0.22      0.00
   -7   16    0      1.51      0.00
   -6   16    0     -0.01      0.00
   -5   16    0      0.35      0.00
   -4   16    0     -0.45      0.00
   -3   16    0     -0.79      0.00
   -2   16    0      1.34      0.00
   -1   16    0     -0.76      0.00
    0   16    0     -1.40      0.00
    1   16    0      0.50      0.00
    2   16    0     -0.67      0.00
    3   16    0      2.31      0.00
   -9   17    0     -0.83      0.00
   -8   17    0     -0.51      0.00
   -7   17    0      1.35      0.00
   -6   17    0      0.47      0.00
   -5   17    0      0.56      0.00
   -4   17    0     -2.33      0.00
   -3   17    0      1.69      0.00
   -2   17    0     -1.00      0.00
   -1   17    0      0.50      0.00
    0   17    0     -1.61      0.00
    1   17    0      0.36      0.00
   -6   18    0      0.43      0.00
   -5   18    0     -0.20      0.00
   -4   18    0     -1.46      0.00
   -3   18    0      1.60      0.00
   -2   18    0     -1.83      0.00
    1  -18    1      0.74      0.00
    2  -18    1     -0.64      0.00
    3  -18    1     -0.45      0.00
    4  -18    1     -0.16      0.00
    5  -18    1      0.20      0.00
    6  -18    1     -1.44      0.00
   -1  -17    1      0.26      0.00
    0  -17    1     -0.58      0.00
    1  -17    1      0.69      0.00
    2  -17    1     -1.58      0.00
    3  -17    1      1.85      0.00
    4  -17    1     -2.51      0.00
    5  -17    1      0.30      0.00
    6  -17    1      0.84      0.00
    7  -17    1      0.43      0.00
    8  -17    1      0.05      0.00
    9  -17    1     -0.11      0.00
   -3  -16    1      1.92      0.00
   -2  -16    1     -0.49      0.00
   -1  -16    1     -0.03      0.00
    0  -16    1     -0.45      0.00
    1  -16    1     -0.50      0.00
    2  -16    1      0.64      0.00
    3  -16    1     -0.45      0.00
    4  -16    1     -1.19      0.00
    5  -16    1      0.63      0.00
    6  -16    1      0.08      0.00
    7  -16    1      0.95      0.00
    8  -16    1      0.51      0.00
    9  -16    1     -1.89      0.00
   10  -16    1      1.19      0.00
   -5  -15    1     -1.22      0.00
   -4  -15    1      0.81      0.00
   -3  -15    1      0.81      0.00
   -2  -15    1      0.17      0.00
   -1  -15    1     -0.90      0.00
    0  -15    1     -0.79      0.00
    1  -15    1      0.64      0.00
    2  -15    1     -0.23      0.00
    3  -15    1     -0.27      0.00
    4  -15    1     -0.24      0.00
    5  -15    1     -0.59      0.00
    6  -15    1      1.11      0.00
    7  -15    1      0.36      0.00
    8  -15    1      0.21      0.00
    9  -15    1     -1.24      0.00
   10  -15    1      0.76      0.00
   11  -15    1      0.79      0.00
   12  -15    1     -0.97      0.00
   -6  -14    1     -0.08      0.00
   -5  -14    1      0.21      0.00
   -4  -14    1     -0.14      0.00
   -3  -14    1      1.42      0.00
   -2  -14    1     -0.27      0.00
   -1  -14    1     -1.54      0.00
    0  -14    1      0.01      0.00
    1  -14    1      0.12      0.00
    2  -14    1      0.45      0.00
    3  -14    1     -0.37      0.00
    4  -14    1     -0.65      0.00
    5  -14    1     -0.48      0.00
    6  -14    1      1.59      0.00
    7  -14    1     -0.38      0.00
    8  -14    1      0.28      0.00
    9  -14    1     -0.79      0.00
   10  -14    1      1.39      0.00
   11  -14    1     -0.61      0.00
   12  -14    1     -0.94      0.00
   -7  -13    1     -0.94      0.00
   -6  -13    1      0.06      0.00
   -5  -13    1      0.98      0.00
   -4  -13    1      0.11      0.00
   -3  -13    1     -0.03      0.00
   -2  -13    1      0.19      0.00
   -1  -13    1     -1.24      0.00
    0  -13    1      0.44      0.00
    1  -13    1     -1.01      0.00
    2  -13    1      1.59      0.00
    3  -13    1     -0.59      0.00
    4  -13    1     -1.76      0.00
    5  -13    1      0.78      0.00
    6  -13    1      1.30      0.00
    7  -13    1     -1.24      0.00
    8  -13    1      1.62      0.00
    9  -13    1     -1.32      0.00
   10  -13    1      1.67      0.00
   11  -13    1     -1.77      0.00
   12  -13    1      0.17      0.00
   13  -13    1      0.29      0.00
   -8  -12    1      0.78      0.00
   -7  -12    1     -1.16      0.00
   -6  -12    1      0.03      0.00
   -5  -12    1      1.90      0.00
   -4  -12    1     -1.20      0.00
   -3  -12    1      0.99      0.00
   -2  -12    1     -2.09      0.00
   -1  -12    1      2.89      0.00
    0  -12    1     -3.26      0.00
    1  -12    1      1.13      0.00
    2  -12    1      0.88      0.00
    3  -12    1     -2.14      0.00
    4  -12    1      0.32      0.00
    5  -12    1      0.62      0.00
    6  -12    1      0.00      0.00
    7  -12    1     -0.30      0.00
    8  -12    1      2.25      0.00
    9  -12    1     -2.23      0.00
   10  -12    1      1.27      0.00
   11  -12    1     -0.55      0.00
   12  -12    1     -1.27      0.00
   13  -12    1      1.40      0.00
   14  -12    1     -0.91      0.00
   -9  -11    1      1.60      0.00
   -8  -11    1     -1.70      0.00
   -7  -11    1      0.43      0.00
   -6  -11    1      0.29      0.00
   -5  -11    1      0.55      0.00
   -4  -11    1      0.58      0.00
   -3  -11    1     -1.42      0.00
   -2  -11    1      0.64      0.00
   -1  -11    1      0.44      0.00
    0  -11    1     -0.50      0.00
    1  -11    1     -1.43      0.00
    2  -11    1      1.07      0.00
    3  -11    1     -1.45      0.00
    4  -11    1     -0.18      0.00
    5  -11    1      1.78      0.00
    6  -11    1     -0.57      0.00
    7  -11    1     -0.10      0.00
    8  -11    1      0.63      0.00
    9  -11    1      0.93      0.00
   10  -11    1     -1.70      0.00
   11  -11    1      0.31      0.00
   12  -11    1     -0.48      0.00
   13  -11    1      0.07      0.00
   14  -11    1      0.57      0.00
  -10  -10    1      0.02      0.00
   -9  -10    1      1.58      0.00
   -8  -10    1     -1.04      0.00
   -7  -10    1     -0.70      0.00
   -6  -10    1      1.42      0.00
   -5  -10    1      0.63      0.00
   -4  -10    1     -1.33      0.00
   -3  -10    1      1.96      0.00
   -2  -10    1     -2.62      0.00
   -1  -10    1      1.91      0.00
    0  -10    1     -0.41      0.00
    2  -10    1      0.73      0.00
    3  -10    1     -1.04      0.00
    4  -10    1      0.54      0.00
    5  -10    1      1.57      0.00
    6  -10    1     -0.21      0.00
    7  -10    1     -0.99      0.00
    8  -10    1      0.94      0.00
    9  -10    1      0.63      0.00
   10  -10    1     -1.10      0.00
   11  -10    1      0.16      0.00
   12  -10    1     -1.74      0.00
   13  -10    1      2.60      0.00
   14  -10    1     -1.45      0.00
  -11   -9    1     -0.73      0.00
  -10   -9    1     -0.71      0.00
   -9   -9    1      1.60      0.00
   -8   -9    1     -1.86      0.00
   -7   -9    1      1.57      0.00
   -6   -9    1     -0.52      0.00
   -5   -9    1      1.59      0.00
   -4   -9    1     -0.95      0.00
   -3   -9    1      0.30      0.00
   -2   -9    1     -0.04      0.00
   -1   -9    1     -1.57      0.00
    0   -9    1      1.49      0.00
    1   -9    1     -1.95      0.00
    2   -9    1     -0.96      0.00
    3   -9    1     -0.16      0.00
    4   -9    1      1.93      0.00
    5   -9    1     -0.09      0.00
    6   -9    1      0.70      0.00
    7   -9    1     -1.37      0.00
    8   -9    1      1.34      0.00
    9   -9    1     -1.45      0.00
   10   -9    1      2.12      0.00
   11   -9    1     -2.35      0.00
   12   -9    1      0.71      0.00
   13   -9    1     -0.30      0.00
   14   -9    1      0.44      0.00
   15   -9    1      0.66      0.00
  -11   -8    1     -0.16      0.00
  -10   -8    1     -0.12      0.00
   -9   -8    1     -0.53      0.00
   -8   -8    1     -0.11      0.00
   -7   -8    1      0.60      0.00
   -6   -8    1      1.42      0.00
   -5   -8    1     -0.60      0.00
   -4   -8    1      1.33      0.00
   -3   -8    1     -3.04      0.00
   -2   -8    1      3.26      0.00
   -1   -8    1     -4.65      0.00
    0   -8    1      3.46      0.00
    1   -8    1     -2.97      0.00
    2   -8    1     -0.61      0.00
    3   -8    1     -0.49      0.00
    4   -8    1      3.19      0.00
    5   -8    1     -0.83      0.00
    6   -8    1      0.09      0.00
    7   -8    1      0.48      0.00
    8   -8    1     -1.28      0.00
    9   -8    1      0.86      0.00
   10   -8    1      0.48      0.00
   11   -8    1     -0.27      0.00
   12   -8    1     -1.67      0.00
   13   -8    1      1.67      0.00
   14   -8    1     -0.30      0.00
   15   -8    1      0.36      0.00
  -12   -7    1      0.45      0.00
  -11   -7    1     -0.29      0.00
  -10   -7    1      0.74      0.00
   -9   -7    1     -1.65      0.00
   -8   -7    1     -0.07      0.00
   -7   -7    1      2.37      0.00
   -6   -7    1     -1.56      0.00
   -5   -7    1      3.61      0.00
   -4   -7    1     -2.44      0.00
   -3   -7    1     -1.69      0.00
   -2   -7    1      0.86      0.00
   -1   -7    1      0.36      0.00
    0   -7    1     -2.16      0.00
    1   -7    1      2.14      0.00
    2   -7    1     -7.83      0.00
    3   -7    1      7.49      0.00
    4   -7    1     -0.38      0.00
    5   -7    1     -0.78      0.00
    6   -7    1      0.49      0.00
    7   -7    1      0.60      0.00
    8   -7    1     -1.08      0.00
    9   -7    1      0.84      0.00
   10   -7    1     -0.06      0.00
   11   -7    1     -0.31      0.00
   12   -7    1     -0.22      0.00
   13   -7    1      0.48      0.00
   14   -7    1      0.05      0.00
   15   -7    1     -0.67      0.00
  -12   -6    1     -0.87      0.00
  -11   -6    1      1.43      0.00
  -10   -6    1     -0.11      0.00
   -9   -6    1     -1.97      0.00
   -8   -6    1      1.70      0.00
   -7   -6    1     -0.60      0.00
   -6   -6    1      2.32      0.00
   -5   -6    1     -1.00      0.00
   -4   -6    1      3.40      0.00
   -3   -6    1     -8.84      0.00
   -2   -6    1      4.26      0.00
   -1   -6    1      1.89      0.00
    0   -6    1     -2.01      0.00
    1   -6    1     -4.21      0.00
    2   -6    1     -2.95      0.00
    3   -6    1      8.06      0.00
    4   -6    1      1.19      0.00
    5   -6    1     -5.77      0.00
    6   -6    1      5.86      0.00
    7   -6    1     -2.83      0.00
    8   -6    1      0.63      0.00
    9   -6    1      0.72      0.00
   10   -6    1     -1.57      0.00
   11   -6    1      1.07      0.00
   12   -6    1      0.35      0.00
   13   -6    1     -0.74      0.00
   14   -6    1     -0.50      0.00
   15   -6    1      1.10      0.00
  -13   -5    1      0.26      0.00
  -12   -5    1     -2.76      0.00
  -11   -5    1      4.20      0.00
  -10   -5    1     -1.97      0.00
   -9   -5    1     -1.48      0.00
   -8   -5    1      2.19      0.00
   -7   -5    1     -0.81      0.00
   -6   -5    1      1.40      0.00
   -5   -5    1      0.36      0.00
   -4   -5    1      2.55      0.00
   -3   -5    1     -9.18      0.00
   -2   -5    1      1.76      0.00
   -1   -5    1     10.07      0.00
    0   -5    1    -11.57      0.00
    1   -5    1     -0.75      0.00
    2   -5    1     -6.77      0.00
    3   -5    1     20.90      0.00
    4   -5    1    -12.71      0.00
    5   -5    1      4.86      0.00
    6   -5    1     -0.09      0.00
    7   -5    1     -2.15      0.00
    8   -5    1      2.01      0.00
    9   -5    1      0.04      0.00
   10   -5    1     -1.80      0.00
   11   -5    1      1.43      0.00
   12   -5    1     -0.47      0.00
   13   -5    1     -0.18      0.00
   14   -5    1      0.26      0.00
   15   -5    1     -0.52      0.00
  -13   -4    1      2.55      0.00
  -12   -4    1     -3.17      0.00
  -11   -4    1      3.94      0.00
  -10   -4    1     -2.73      0.00
   -9   -4    1      1.47      0.00
   -8   -4    1     -0.97      0.00
   -7   -4    1     -0.46      0.00
   -6   -4    1      4.71      0.00
   -5   -4    1     -4.82      0.00
   -4   -4    1      4.91      0.00
   -3   -4    1     -5.31      0.00
   -2   -4    1    -10.16      0.00
   -1   -4    1     27.30      0.00
    0   -4    1    -27.95      0.00
    1   -4    1      2.76      0.00
    2   -4    1      3.67      0.00
    3   -4    1      9.51      0.00
    4   -4    1      0.41      0.00
    5   -4    1     -5.61      0.00
    6   -4    1      0.27      0.00
    7   -4    1      2.58      0.00
    8   -4    1     -0.92      0.00
    9   -4    1     -0.13      0.00
   10   -4    1     -1.02      0.00
   11   -4    1      0.42      0.00
   12   -4    1      0.58      0.00
   13   -4    1     -0.45      0.00
   14   -4    1     -0.75      0.00
   15   -4    1      1.13      0.00
  -14   -3    1     -1.80      0.00
  -13   -3    1      0.30      0.00
  -12   -3    1     -0.15      0.00
  -11   -3    1      0.33      0.00
  -10   -3    1      1.28      0.00
   -9   -3    1     -1.24      0.00
   -8   -3    1     -0.59      0.00
   -7   -3    1      2.00      0.00
   -5   -3    1      1.95      0.00
   -4   -3    1     -4.87      0.00
   -3   -3    1      8.69      0.00
   -2   -3    1    -23.58      0.00
   -1   -3    1     29.81      0.00
    0   -3    1    -20.20      0.00
    1   -3    1    -13.60      0.00
    2   -3    1     27.01      0.00
    3   -3    1      0.30      0.00
    4   -3    1     -3.75      0.00
    5   -3    1     -3.68      0.00
    6   -3    1      0.67      0.00
    7   -3    1      3.23      0.00
    8   -3    1     -1.49      0.00
    9   -3    1     -2.50      0.00
   10   -3    1      1.39      0.00
   11   -3    1      0.78      0.00
   12   -3    1     -1.07      0.00
   13   -3    1      0.50      0.00
   14   -3    1     -1.73      0.00
   15   -3    1      3.02      0.00
  -14   -2    1      0.67      0.00
  -13   -2    1     -2.19      0.00
  -12   -2    1      1.84      0.00
  -11   -2    1     -0.52      0.00
  -10   -2    1      0.94      0.00
   -9   -2    1     -0.42      0.00
   -8   -2    1     -0.26      0.00
   -7   -2    1      1.04      0.00
   -6   -2    1      0.41      0.00
   -5   -2    1     -2.71      0.00
   -4   -2    1      1.39      0.00
   -3   -2    1      3.27      0.00
   -2   -2    1    -10.20      0.00
   -1   -2    1     -1.32      0.00
    1   -2    1    -23.59      0.00
    2   -2    1     47.12      0.00
    3   -2    1    -27.83      0.00
    4   -2    1      6.51      0.00
    5   -2    1     -0.33      0.00
    6   -2    1     -1.83      0.00
    7   -2    1      1.74      0.00
    8   -2    1     -1.73      0.00
    9   -2    1     -1.47      0.00
   10   -2    1      2.52      0.00
   11   -2    1     -1.22      0.00
   12   -2    1     -0.21      0.00
   13   -2    1      0.68      0.00
   14   -2    1     -1.78      0.00
   15   -2    1      2.82      0.00
  -14   -1    1     -0.08      0.00
  -13   -1    1     -1.00      0.00
  -12   -1    1      2.20      0.00
  -11   -1    1     -1.43      0.00
  -10   -1    1      0.85      0.00
   -9   -1    1     -0.92      0.00
   -8   -1    1      2.41      0.00
   -7   -1    1      0.28      0.00
   -6   -1    1     -4.15      0.00
   -5   -1    1      2.06      0.00
   -4   -1    1     -8.96      0.00
   -3   -1    1     31.00      0.00
   -2   -1    1    -45.24      0.00
   -1   -1    1     19.99      0.00
    1   -1    1     73.13      0.00
    2   -1    1    -59.66      0.00
    3   -1    1     24.51      0.00
    4   -1    1     -6.40      0.00
    5   -1    1      4.22      0.00
    6   -1    1     -5.87      0.00
    7   -1    1      2.32      0.00
    8   -1    1     -2.09      0.00
    9   -1    1      0.84      0.00
   10   -1    1      0.09      0.00
   11   -1    1      0.28      0.00
   12   -1    1     -0.42      0.00
   13   -1    1     -0.36      0.00
   14   -1    1      0.73      0.00
   15   -1    1      0.32      0.00
  -15    0    1      0.52      0.00
  -14    0    1     -1.14      0.00
  -13    0    1      1.23      0.00
  -12    0    1     -0.39      0.00
  -11    0    1      0.83      0.00
  -10    0    1     -1.90      0.00
   -9    0    1      1.92      0.00
   -8    0    1      1.51      0.00
   -7    0    1     -0.18      0.00
   -6    0    1     -6.03      0.00
   -5    0    1      1.92      0.00
   -4    0    1     -1.11      0.00
   -3    0    1      6.51      0.00
   -2    0    1     29.04      0.00
    2    0    1     48.95      0.00
    3    0    1    -21.41      0.00
    4    0    1     15.76      0.00
    5    0    1     -9.78      0.00
    6    0    1      4.36      0.00
    7    0    1     -3.98      0.00
    8    0    1     -0.29      0.00
    9    0    1      0.67      0.00
   10    0    1      1.72      0.00
   11    0    1     -1.95      0.00
   12    0    1      1.29      0.00
   13    0    1     -0.46      0.00
   14    0    1     -0.28      0.00
   15    0    1      1.12      0.00
  -15    1    1     -0.25      0.00
  -14    1    1      1.00      0.00
  -13    1    1     -0.31      0.00
  -12    1    1      0.69      0.00
  -11    1    1     -1.41      0.00
  -10    1    1      1.05      0.00
   -9    1    1      0.36      0.00
   -8    1    1      1.88      0.00
   -7    1    1     -2.36      0.00
   -6    1    1     -6.35      0.00
   -5    1    1      6.06      0.00
   -4    1    1     -0.10      0.00
   -3    1    1      6.32      0.00
   -2    1    1    -12.50      0.00
   -1    1    1    -42.91      0.00
    1    1    1    -24.83      0.00
    2    1    1    -48.12      0.00
    3    1    1     45.85      0.00
    4    1    1    -24.49      0.00
    5    1    1     13.78      0.00
    6    1    1     -7.63      0.00
    7    1    1     -0.17      0.00
    8    1    1     -0.44      0.00
    9    1    1      1.31      0.00
   10    1    1     -0.38      0.00
   11    1    1      1.00      0.00
   12    1    1     -0.20      0.00
   13    1    1     -0.31      0.00
   14    1    1     -0.51      0.00
  -15    2    1     -1.96      0.00
  -14    2    1      1.86      0.00
  -13    2    1     -0.75      0.00
  -12    2    1      0.61      0.00
  -11    2    1     -0.99      0.00
  -10    2    1      1.03      0.00
   -9    2    1      1.43      0.00
   -8    2    1     -1.98      0.00
   -7    2    1     -3.37      0.00
   -6    2    1      4.23      0.00
   -5    2    1     -8.21      0.00
   -4    2    1     20.90      0.00
   -3    2    1    -30.89      0.00
   -2    2    1     14.38      0.00
   -1    2    1     -6.26      0.00
    0    2    1     22.52      0.00
    1    2    1     13.03      0.00
    2    2    1    -46.01      0.00
    3    2    1     26.49      0.00
    4    2    1     -4.94      0.00
    5    2    1     -0.53      0.00
    6    2    1      1.87      0.00
    7    2    1     -5.65      0.00
    8    2    1      2.23      0.00
    9    2    1      0.72      0.00
   10    2    1     -0.02      0.00
   11    2    1      0.96      0.00
   12    2    1     -1.01      0.00
   13    2    1      1.07      0.00
   14    2    1     -1.78      0.00
  -15    3    1      0.98      0.00
  -14    3    1     -1.14      0.00
  -13    3    1      0.55      0.00
  -12    3    1     -0.24      0.00
  -11    3    1      0.64      0.00
  -10    3    1      1.35      0.00
   -9    3    1     -2.26      0.00
   -8    3    1     -1.51      0.00
   -7    3    1      1.19      0.00
   -6    3    1      0.52      0.00
   -5    3    1     -1.63      0.00
   -4    3    1      2.70      0.00
   -3    3    1     -7.03      0.00
   -2    3    1     -3.59      0.00
   -1    3    1     22.93      0.00
    0    3    1     -7.95      0.00
    1    3    1      3.77      0.00
    2    3    1    -11.24      0.00
    3    3    1      1.78      0.00
    4    3    1      3.25      0.00
    5    3    1     -0.99      0.00
    6    3    1     -1.39      0.00
    7    3    1     -0.84      0.00
    8    3    1     -0.26      0.00
    9    3    1      1.78      0.00
   10    3    1     -1.00      0.00
   11    3    1      1.30      0.00
   12    3    1      0.33      0.00
   13    3    1     -1.97      0.00
   14    3    1      1.48      0.00
  -15    4    1      1.45      0.00
  -14    4    1     -1.41      0.00
  -13    4    1     -0.92      0.00
  -12    4    1      2.64      0.00
  -11    4    1     -0.94      0.00
  -10    4    1      0.56      0.00
   -9    4    1     -2.54      0.00
   -8    4    1      1.63      0.00
   -7    4    1     -2.53      0.00
   -6    4    1      4.16      0.00
   -5    4    1     -4.37      0.00
   -4    4    1      4.40      0.00
   -3    4    1    -11.27      0.00
   -2    4    1     11.63      0.00
   -1    4    1     13.62      0.00
    0    4    1    -19.95      0.00
    1    4    1     10.72      0.00
    2    4    1     -4.00      0.00
    3    4    1     -4.42      0.00
    4    4    1      4.27      0.00
    5    4    1     -1.05      0.00
    6    4    1     -1.76      0.00
    7    4    1     -0.07      0.00
    8    4    1      0.92      0.00
    9    4    1      0.32      0.00
   10    4    1     -0.94      0.00
   11    4    1      1.70      0.00
   12    4    1      0.03      0.00
   13    4    1     -1.27      0.00
  -15    5    1     -0.26      0.00
  -14    5    1     -1.02      0.00
  -13    5    1      0.94      0.00
  -12    5    1      0.07      0.00
  -11    5    1      0.44      0.00
  -10    5    1     -0.78      0.00
   -9    5    1      1.16      0.00
   -8    5    1     -3.75      0.00
   -7    5    1      2.33      0.00
   -6    5    1      2.09      0.00
   -5    5    1     -1.98      0.00
   -4    5    1     -4.35      0.00
   -3    5    1      6.01      0.00
   -2    5    1     -0.35      0.00
   -1    5    1     13.51      0.00
    0    5    1    -22.14      0.00
    1    5    1     12.69      0.00
    2    5    1      0.50      0.00
    3    5    1    -10.10      0.00
    4    5    1      8.44      0.00
    5    5    1     -4.71      0.00
    6    5    1      0.18      0.00
    7    5    1      1.23      0.00
    8    5    1     -0.88      0.00
    9    5    1      0.73      0.00
   10    5    1     -0.04      0.00
   11    5    1      0.96      0.00
   12    5    1     -0.91      0.00
   13    5    1     -0.36      0.00
  -15    6    1     -2.45      0.00
  -14    6    1      0.53      0.00
  -13    6    1      0.75      0.00
  -12    6    1     -0.69      0.00
  -11    6    1      1.01      0.00
  -10    6    1      0.11      0.00
   -9    6    1     -1.69      0.00
   -8    6    1      0.63      0.00
   -7    6    1     -0.08      0.00
   -6    6    1      1.71      0.00
   -5    6    1     -1.29      0.00
   -4    6    1     -4.78      0.00
   -3    6    1      9.46      0.00
   -2    6    1     -1.41      0.00
   -1    6    1      1.05      0.00
    0    6    1     -4.17      0.00
    1    6    1      0.07      0.00
    2    6    1      4.48      0.00
    3    6    1     -5.90      0.00
    4    6    1      1.42      0.00
    5    6    1     -0.78      0.00
    6    6    1      0.70      0.00
    7    6    1     -1.17      0.00
    8    6    1      1.84      0.00
    9    6    1     -0.50      0.00
   10    6    1     -0.30      0.00
   11    6    1      0.99      0.00
   12    6    1     -1.38      0.00
  -15    7    1     -1.71      0.00
  -14    7    1      0.34      0.00
  -13    7    1      1.41      0.00
  -12    7    1     -1.11      0.00
  -11    7    1      0.73      0.00
  -10    7    1     -0.53      0.00
   -9    7    1      0.88      0.00
   -8    7    1     -1.45      0.00
   -7    7    1      1.58      0.00
   -6    7    1     -1.00      0.00
   -5    7    1     -0.81      0.00
   -4    7    1      0.41      0.00
   -3    7    1      2.43      0.00
   -2    7    1      2.44      0.00
   -1    7    1     -3.00      0.00
    0    7    1     -0.14      0.00
    1    7    1     -1.20      0.00
    2    7    1      2.88      0.00
    3    7    1     -3.24      0.00
    4    7    1      0.30      0.00
    5    7    1     -1.21      0.00
    6    7    1      0.38      0.00
    7    7    1      1.16      0.00
    8    7    1      0.41      0.00
    9    7    1     -1.08      0.00
   10    7    1      1.50      0.00
   11    7    1     -2.57      0.00
   12    7    1      2.11      0.00
  -15    8    1     -1.24      0.00
  -14    8    1      1.72      0.00
  -13    8    1     -0.63      0.00
  -12    8    1      0.65      0.00
  -11    8    1     -1.26      0.00
  -10    8    1      1.45      0.00
   -9    8    1      0.05      0.00
   -8    8    1     -1.16      0.00
   -7    8    1      1.31      0.00
   -6    8    1     -3.06      0.00
   -5    8    1      2.79      0.00
   -4    8    1     -1.51      0.00
   -3    8    1      2.40      0.00
   -2    8    1      3.30      0.00
   -1    8    1     -5.95      0.00
    0    8    1      2.04      0.00
    1    8    1      0.86      0.00
    2    8    1     -2.62      0.00
    3    8    1      2.27      0.00
    4    8    1     -2.61      0.00
    5    8    1     -0.74      0.00
    6    8    1      1.31      0.00
    7    8    1      0.62      0.00
    8    8    1      0.84      0.00
    9    8    1     -1.20      0.00
   10    8    1     -0.27      0.00
   11    8    1     -0.10      0.00
  -15    9    1      2.51      0.00
  -14    9    1     -1.78      0.00
  -13    9    1      0.76      0.00
  -12    9    1      0.25      0.00
  -11    9    1      0.02      0.00
  -10    9    1     -0.20      0.00
   -9    9    1      0.26      0.00
   -8    9    1      0.03      0.00
   -7    9    1     -1.36      0.00
   -6    9    1      0.05      0.00
   -5    9    1     -0.37      0.00
   -4    9    1      2.10      0.00
   -3    9    1      1.17      0.00
   -2    9    1      0.89      0.00
   -1    9    1     -4.27      0.00
    0    9    1      2.29      0.00
    1    9    1      0.18      0.00
    2    9    1     -1.42      0.00
    3    9    1      0.03      0.00
    4    9    1     -0.56      0.00
    5    9    1     -0.65      0.00
    6    9    1      0.71      0.00
    7    9    1      0.94      0.00
    8    9    1      0.31      0.00
    9    9    1     -1.39      0.00
   10    9    1      0.60      0.00
   11    9    1     -0.24      0.00
  -14   10    1      2.39      0.00
  -13   10    1     -2.62      0.00
  -12   10    1      2.28      0.00
  -11   10    1      0.01      0.00
  -10   10    1     -1.65      0.00
   -9   10    1      0.97      0.00
   -8   10    1     -0.43      0.00
   -7   10    1     -1.01      0.00
   -6   10    1      0.09      0.00
   -5   10    1     -0.02      0.00
   -4   10    1      3.37      0.00
   -3   10    1     -1.25      0.00
   -2   10    1      0.53      0.00
   -1   10    1     -1.69      0.00
    0   10    1     -0.69      0.00
    1   10    1      2.84      0.00
    2   10    1     -3.32      0.00
    3   10    1      0.99      0.00
    4   10    1     -0.75      0.00
    5   10    1     -0.05      0.00
    6   10    1      1.38      0.00
    7   10    1     -1.40      0.00
    8   10    1      1.07      0.00
    9   10    1     -0.08      0.00
   10   10    1     -0.28      0.00
  -14   11    1      0.25      0.00
  -13   11    1     -0.78      0.00
  -12   11    1      1.48      0.00
  -11   11    1     -0.24      0.00
  -10   11    1     -1.27      0.00
   -9   11    1     -0.03      0.00
   -8   11    1      0.25      0.00
   -7   11    1     -0.85      0.00
   -6   11    1      0.29      0.00
   -5   11    1      1.39      0.00
   -4   11    1      0.80      0.00
   -3   11    1     -0.33      0.00
   -2   11    1      0.06      0.00
   -1   11    1     -1.66      0.00
    0   11    1      1.07      0.00
    1   11    1     -0.20      0.00
    2   11    1     -0.88      0.00
    3   11    1      0.09      0.00
    4   11    1     -0.47      0.00
    5   11    1      0.97      0.00
    6   11    1     -0.28      0.00
    7   11    1     -1.61      0.00
    8   11    1      2.84      0.00
    9   11    1     -1.54      0.00
  -14   12    1      1.48      0.00
  -13   12    1     -1.22      0.00
  -12   12    1      1.61      0.00
  -11   12    1     -0.95      0.00
  -10   12    1     -1.17      0.00
   -9   12    1      0.84      0.00
   -8   12    1     -1.43      0.00
   -7   12    1      2.02      0.00
   -6   12    1     -1.43      0.00
   -5   12    1      1.92      0.00
   -4   12    1     -0.13      0.00
   -3   12    1      0.29      0.00
   -2   12    1     -1.55      0.00
   -1   12    1      1.54      0.00
    0   12    1     -1.93      0.00
    1   12    1      1.28      0.00
    2   12    1     -0.57      0.00
    3   12    1     -1.96      0.00
    4   12    1      3.06      0.00
    5   12    1     -1.26      0.00
    6   12    1     -1.89      0.00
    7   12    1      2.56      0.00
    8   12    1     -1.06      0.00
  -13   13    1      0.76      0.00
  -12   13    1      0.59      0.00
  -11   13    1     -2.55      0.00
  -10   13    1      1.08      0.00
   -9   13    1     -0.59      0.00
   -8   13    1      0.78      0.00
   -7   13    1     -0.49      0.00
   -6   13    1      0.80      0.00
   -5   13    1      0.34      0.00
   -4   13    1     -0.39      0.00
   -3   13    1      0.72      0.00
   -2   13    1     -0.52      0.00
   -1   13    1     -0.75      0.00
    0   13    1      1.10      0.00
    1   13    1     -1.17      0.00
    2   13    1     -0.26      0.00
    3   13    1      0.02      0.00
    4   13    1      0.53      0.00
    5   13    1     -0.25      0.00
    6   13    1     -0.68      0.00
    7   13    1      0.52      0.00
  -12   14    1     -1.14      0.00
  -11   14    1     -1.89      0.00
  -10   14    1      1.01      0.00
   -9   14    1      0.29      0.00
   -8   14    1      0.44      0.00
   -7   14    1     -0.90      0.00
   -6   14    1      0.81      0.00
   -5   14    1      0.78      0.00
   -4   14    1     -1.82      0.00
   -3   14    1      2.49      0.00
   -2   14    1     -1.46      0.00
   -1   14    1     -0.13      0.00
    0   14    1      0.60      0.00
    1   14    1     -1.79      0.00
    2   14    1      1.17      0.00
    3   14    1     -1.07      0.00
    4   14    1      0.91      0.00
    5   14    1     -0.33      0.00
    6   14    1      0.10      0.00
  -12   15    1     -0.56      0.00
  -11   15    1     -0.72      0.00
  -10   15    1     -0.47      0.00
   -9   15    1      1.86      0.00
   -8   15    1     -0.65      0.00
   -7   15    1     -1.26      0.00
   -6   15    1      2.34      0.00
   -5   15    1     -1.56      0.00
   -4   15    1      0.94      0.00
   -3   15    1     -0.46      0.00
   -2   15    1      1.62      0.00
   -1   15    1     -2.28      0.00
    0   15    1      1.00      0.00
    1   15    1     -1.65      0.00
    2   15    1      0.56      0.00
    3   15    1      0.29      0.00
    4   15    1      0.30      0.00
    5   15    1     -0.51      0.00
  -10   16    1      2.39      0.00
   -9   16    1     -1.03      0.00
   -8   16    1     -0.61      0.00
   -7   16    1      0.54      0.00
   -6   16    1      0.83      0.00
   -5   16    1     -0.44      0.00
   -4   16    1      0.05      0.00
   -3   16    1     -0.04      0.00
   -2   16    1      1.34      0.00
   -1   16    1     -1.47      0.00
    0   16    1     -1.09      0.00
    1   16    1      0.55      0.00
    2   16    1     -0.99      0.00
    3   16    1      2.21      0.00
   -9   17    1     -1.52      0.00
   -8   17    1     -0.50      0.00
   -7   17    1      1.42      0.00
   -6   17    1      0.02      0.00
   -5   17    1      0.60      0.00
   -4   17    1     -1.37      0.00
   -3   17    1      1.06      0.00
   -2   17    1      0.06      0.00
   -1   17    1     -0.25      0.00
    0   17    1     -2.18      0.00
    1   17    1      0.92      0.00
   -6   18    1      1.31      0.00
   -5   18    1     -0.33      0.00
   -4   18    1     -1.67      0.00
   -3   18    1      2.41      0.00
   -2   18    1     -1.97      0.00
    1  -18    2      0.13      0.00
    2  -18    2      0.71      0.00
    3  -18    2     -1.96      0.00
    4  -18    2      0.62      0.00
    5  -18    2      0.88      0.00
    6  -18    2     -2.92      0.00
   -2  -17    2     -1.14      0.00
   -1  -17    2      0.37      0.00
    0  -17    2      0.12      0.00
    1  -17    2      0.70      0.00
    2  -17    2     -1.37      0.00
    3  -17    2      0.83      0.00
    4  -17    2     -1.51      0.00
    5  -17    2      0.22      0.00
    6  -17    2      0.24      0.00
    7  -17    2      0.16      0.00
    8  -17    2      0.05      0.00
    9  -17    2      0.37      0.00
   -3  -16    2      2.13      0.00
   -2  -16    2     -1.41      0.00
   -1  -16    2     -0.10      0.00
    0  -16    2      1.04      0.00
    1  -16    2     -0.73      0.00
    2  -16    2     -0.41      0.00
    3  -16    2      0.51      0.00
    4  -16    2     -1.64      0.00
    5  -16    2      0.25      0.00
    6  -16    2      1.04      0.00
    7  -16    2     -0.61      0.00
    8  -16    2      0.92      0.00
    9  -16    2     -0.44      0.00
   10  -16    2     -0.24      0.00
   -5  -15    2     -0.90      0.00
   -4  -15    2      1.44      0.00
   -3  -15    2      0.12      0.00
   -2  -15    2      0.16      0.00
   -1  -15    2     -0.25      0.00
    0  -15    2     -1.07      0.00
    1  -15    2      1.31      0.00
    2  -15    2     -0.92      0.00
    3  -15    2     -0.23      0.00
    4  -15    2     -0.31      0.00
    5  -15    2     -0.30      0.00
    6  -15    2      0.66      0.00
    7  -15    2     -0.05      0.00
    8  -15    2      1.31      0.00
    9  -15    2     -1.87      0.00
   10  -15    2      0.85      0.00
   11  -15    2      0.69      0.00
   -6  -14    2     -0.46      0.00
   -5  -14    2     -0.02      0.00
   -4  -14    2      0.28      0.00
   -3  -14    2      1.97      0.00
   -2  -14    2     -1.39      0.00
   -1  -14    2      0.16      0.00
    0  -14    2     -1.60      0.00
    1  -14    2      1.31      0.00
    2  -14    2      0.27      0.00
    3  -14    2     -1.23      0.00
    4  -14    2      0.43      0.00
    5  -14    2     -1.11      0.00
    6  -14    2      1.12      0.00
    7  -14    2      0.07      0.00
    8  -14    2      0.55      0.00
    9  -14    2     -0.64      0.00
   10  -14    2     -0.02      0.00
   11  -14    2      0.45      0.00
   12  -14    2     -0.08      0.00
   -7  -13    2     -1.46      0.00
   -6  -13    2      0.49      0.00
   -5  -13    2      0.47      0.00
   -4  -13    2      0.63      0.00
   -3  -13    2      0.15      0.00
   -2  -13    2      0.70      0.00
   -1  -13    2     -1.99      0.00
    0  -13    2      0.39      0.00
    1  -13    2     -0.41      0.00
    2  -13    2      1.38      0.00
    3  -13    2     -0.31      0.00
    5  -13    2      0.52      0.00
    6  -13    2      1.26      0.00
    7  -13    2     -1.48      0.00
    8  -13    2      2.78      0.00
    9  -13    2     -2.39      0.00
   10  -13    2      1.06      0.00
   11  -13    2     -0.49      0.00
   12  -13    2      0.45      0.00
   13  -13    2     -0.33      0.00
   -8  -12    2      1.50      0.00
   -7  -12    2     -3.33      0.00
   -6  -12    2      0.89      0.00
   -5  -12    2      2.71      0.00
   -4  -12    2     -2.13      0.00
   -3  -12    2      2.12      0.00
   -2  -12    2     -1.96      0.00
   -1  -12    2      1.29      0.00
    0  -12    2     -1.33      0.00
    1  -12    2     -0.44      0.00
    2  -12    2      2.49      0.00
    3  -12    2     -2.53      0.00
    4  -12    2     -0.17      0.00
    5  -12    2     -0.22      0.00
    6  -12    2      1.13      0.00
    7  -12    2     -1.10      0.00
    8  -12    2      2.95      0.00
    9  -12    2     -3.12      0.00
   10  -12    2      1.77      0.00
   11  -12    2     -0.41      0.00
   12  -12    2     -0.85      0.00
   13  -12    2      1.39      0.00
   14  -12    2     -1.75      0.00
   -9  -11    2      1.20      0.00
   -8  -11    2     -1.08      0.00
   -7  -11    2     -0.85      0.00
   -6  -11    2      0.18      0.00
   -5  -11    2      2.16      0.00
   -4  -11    2     -0.55      0.00
   -3  -11    2     -0.54      0.00
   -2  -11    2      0.46      0.00
   -1  -11    2      0.26      0.00
    0  -11    2     -0.70      0.00
    1  -11    2     -0.36      0.00
    2  -11    2      0.72      0.00
    3  -11    2     -1.63      0.00
    4  -11    2     -0.45      0.00
    5  -11    2      1.20      0.00
    6  -11    2      0.03      0.00
    7  -11    2     -0.60      0.00
    8  -11    2      0.86      0.00
    9  -11    2      1.13      0.00
   10  -11    2     -2.34      0.00
   11  -11    2      1.71      0.00
   12  -11    2     -1.30      0.00
   13  -11    2      0.56      0.00
   14  -11    2     -0.33      0.00
  -10  -10    2      0.77      0.00
   -9  -10    2      1.04      0.00
   -8  -10    2     -1.03      0.00
   -7  -10    2     -1.27      0.00
   -6  -10    2      1.89      0.00
   -5  -10    2      0.24      0.00
   -4  -10    2     -0.17      0.00
   -3  -10    2      1.07      0.00
   -2  -10    2     -1.61      0.00
   -1  -10    2      1.51      0.00
    0  -10    2     -0.39      0.00
    1  -10    2     -1.78      0.00
    2  -10    2      0.72      0.00
    3  -10    2     -1.50      0.00
    4  -10    2     -0.21      0.00
    5  -10    2      2.05      0.00
    6  -10    2     -0.21      0.00
    7  -10    2     -1.77      0.00
    8  -10    2      1.55      0.00
    9  -10    2      1.35      0.00
   10  -10    2     -2.44      0.00
   11  -10    2      1.95      0.00
   12  -10    2     -3.02      0.00
   13  -10    2      3.58      0.00
   14  -10    2     -3.37      0.00
  -11   -9    2     -1.11      0.00
  -10   -9    2     -1.70      0.00
   -9   -9    2      3.45      0.00
   -8   -9    2     -2.77      0.00
   -7   -9    2      0.69      0.00
   -6   -9    2      0.27      0.00
   -5   -9    2      1.64      0.00
   -4   -9    2     -1.51      0.00
   -3   -9    2      2.08      0.00
   -2   -9    2     -1.02      0.00
   -1   -9    2     -0.68      0.00
    0   -9    2      0.92      0.00
    1   -9    2     -1.93      0.00
    2   -9    2     -0.39      0.00
    3   -9    2     -0.85      0.00
    4   -9    2      0.58      0.00
    5   -9    2      1.50      0.00
    6   -9    2     -0.24      0.00
    7   -9    2     -1.52      0.00
    8   -9    2      1.83      0.00
    9   -9    2     -1.02      0.00
   10   -9    2      1.69      0.00
   11   -9    2     -1.66      0.00
   12   -9    2     -0.01      0.00
   13   -9    2     -0.59      0.00
   14   -9    2      1.21      0.00
   15   -9    2     -0.44      0.00
  -11   -8    2     -1.81      0.00
  -10   -8    2      0.65      0.00
   -9   -8    2      0.33      0.00
   -8   -8    2     -1.07      0.00
   -7   -8    2      0.59      0.00
   -6   -8    2      1.43      0.00
   -5   -8    2     -1.04      0.00
   -4   -8    2      2.47      0.00
   -3   -8    2     -2.56      0.00
   -2   -8    2      2.65      0.00
   -1   -8    2     -2.77      0.00
    0   -8    2      0.35      0.00
    1   -8    2     -0.65      0.00
    2   -8    2     -0.47      0.00
    3   -8    2     -3.21      0.00
    4   -8    2      4.48      0.00
    5   -8    2     -0.83      0.00
    6   -8    2     -0.45      0.00
    7   -8    2      0.12      0.00
    8   -8    2      0.39      0.00
    9   -8    2     -0.36      0.00
   10   -8    2      1.35      0.00
   11   -8    2     -0.63      0.00
   12   -8    2     -1.84      0.00
   13   -8    2      1.03      0.00
   14   -8    2      0.73      0.00
   15   -8    2     -0.02      0.00
  -12   -7    2     -1.13      0.00
  -11   -7    2      0.35      0.00
  -10   -7    2      0.31      0.00
   -9   -7    2     -0.55      0.00
   -8   -7    2     -1.07      0.00
   -7   -7    2      2.20      0.00
   -6   -7    2     -0.94      0.00
   -5   -7    2      3.00      0.00
   -4   -7    2     -1.68      0.00
   -3   -7    2     -1.09      0.00
   -1   -7    2     -1.79      0.00
    0   -7    2     -1.03      0.00
    1   -7    2      1.82      0.00
    2   -7    2     -7.07      0.00
    3   -7    2      4.92      0.00
    4   -7    2      0.41      0.00
    5   -7    2     -0.48      0.00
    6   -7    2     -0.18      0.00
    7   -7    2      0.91      0.00
    8   -7    2     -0.24      0.00
    9   -7    2      0.50      0.00
   10   -7    2     -0.08      0.00
   11   -7    2     -0.49      0.00
   12   -7    2     -0.34      0.00
   13   -7    2      0.42      0.00
   14   -7    2      0.47      0.00
   15   -7    2     -1.12      0.00
  -13   -6    2     -0.52      0.00
  -12   -6    2     -1.42      0.00
  -11   -6    2      1.40      0.00
  -10   -6    2      0.32      0.00
   -9   -6    2     -1.86      0.00
   -8   -6    2      0.37      0.00
   -7   -6    2      1.19      0.00
   -6   -6    2      0.97      0.00
   -5   -6    2     -0.26      0.00
   -4   -6    2      3.35      0.00
   -3   -6    2     -7.33      0.00
   -2   -6    2      3.46      0.00
   -1   -6    2      3.23      0.00
    0   -6    2     -5.70      0.00
    1   -6    2      0.18      0.00
    2   -6    2     -4.84      0.00
    3   -6    2      4.18      0.00
    4   -6    2      5.11      0.00
    5   -6    2     -8.31      0.00
    6   -6    2      6.79      0.00
    7   -6    2     -1.52      0.00
    8   -6    2     -0.88      0.00
    9   -6    2      1.75      0.00
   10   -6    2     -1.50      0.00
   11   -6    2      0.12      0.00
   12   -6    2      0.65      0.00
   13   -6    2     -0.07      0.00
   14   -6    2     -1.45      0.00
   15   -6    2      1.86      0.00
  -13   -5    2     -0.29      0.00
  -12   -5    2     -2.19      0.00
  -11   -5    2      3.15      0.00
  -10   -5    2     -0.89      0.00
   -9   -5    2     -2.53      0.00
   -8   -5    2      2.82      0.00
   -7   -5    2     -0.74      0.00
   -6   -5    2      0.38      0.00
   -5   -5    2      2.52      0.00
   -4   -5    2      0.93      0.00
   -3   -5    2     -7.74      0.00
   -2   -5    2      3.65      0.00
   -1   -5    2      5.36      0.00
    0   -5    2     -6.80      0.00
    2   -5    2     -3.85      0.00
    3   -5    2     12.02      0.00
    4   -5    2     -4.41      0.00
    5   -5    2      0.58      0.00
    6   -5    2      2.60      0.00
    7   -5    2     -3.20      0.00
    8   -5    2      2.32      0.00
    9   -5    2      0.12      0.00
   10   -5    2     -1.31      0.00
   11   -5    2     -0.03      0.00
   12   -5    2      1.16      0.00
   13   -5    2     -0.86      0.00
   14   -5    2     -0.39      0.00
   15   -5    2      0.45      0.00
  -13   -4    2      1.98      0.00
  -12   -4    2     -3.19      0.00
  -11   -4    2      3.66      0.00
  -10   -4    2     -2.21      0.00
   -9   -4    2      0.50      0.00
   -8   -4    2      0.28      0.00
   -7   -4    2     -1.18      0.00
   -6   -4    2      3.10      0.00
   -5   -4    2     -0.37      0.00
   -4   -4    2      2.84      0.00
   -3   -4    2     -8.07      0.00
   -2   -4    2     -0.18      0.00
   -1   -4    2     11.80      0.00
    0   -4    2    -12.26      0.00
    1   -4    2     -3.43      0.00
    2   -4    2     -6.58      0.00
    3   -4    2     20.39      0.00
    4   -4    2     -6.31      0.00
    5   -4    2      0.39      0.00
    6   -4    2     -2.14      0.00
    7   -4    2      2.32      0.00
    8   -4    2     -0.23      0.00
    9   -4    2      0.06      0.00
   10   -4    2     -1.47      0.00
   11   -4    2      1.12      0.00
   12   -4    2      0.02      0.00
   13   -4    2     -0.56      0.00
   14   -4    2     -0.64      0.00
   15   -4    2      1.07      0.00
  -14   -3    2     -2.63      0.00
  -13   -3    2      0.83      0.00
  -12   -3    2     -0.60      0.00
  -11   -3    2      0.81      0.00
  -10   -3    2      0.31      0.00
   -9   -3    2     -0.11      0.00
   -8   -3    2     -0.73      0.00
   -7   -3    2     -0.59      0.00
   -6   -3    2      2.77      0.00
   -5   -3    2      2.63      0.00
   -4   -3    2     -6.15      0.00
   -3   -3    2      7.84      0.00
   -2   -3    2    -21.64      0.00
   -1   -3    2     28.27      0.00
    0   -3    2    -13.70      0.00
    1   -3    2    -22.84      0.00
    2   -3    2     21.51      0.00
    3   -3    2      7.40      0.00
    5   -3    2     -6.71      0.00
    6   -3    2      1.84      0.00
    7   -3    2      2.41      0.00
    8   -3    2     -1.10      0.00
    9   -3    2     -2.01      0.00
   10   -3    2      1.20      0.00
   11   -3    2      1.28      0.00
   12   -3    2     -1.67      0.00
   13   -3    2     -0.51      0.00
   14   -3    2      0.23      0.00
   15   -3    2      1.37      0.00
  -14   -2    2     -0.14      0.00
  -13   -2    2     -3.02      0.00
  -12   -2    2      3.86      0.00
  -11   -2    2     -2.57      0.00
  -10   -2    2      2.63      0.00
   -9   -2    2     -1.13      0.00
   -8   -2    2     -2.07      0.00
   -7   -2    2      3.16      0.00
   -6   -2    2     -0.04      0.00
   -5   -2    2      1.04      0.00
   -4   -2    2     -2.41      0.00
   -3   -2    2      1.06      0.00
   -2   -2    2     -6.48      0.00
   -1   -2    2      2.49      0.00
    0   -2    2      7.60      0.00
    1   -2    2    -36.74      0.00
    2   -2    2     44.28      0.00
    3   -2    2     -8.69      0.00
    4   -2    2     -3.32      0.00
    5   -2    2      2.09      0.00
    6   -2    2     -2.96      0.00
    7   -2    2      1.52      0.00
    8   -2    2     -0.56      0.00
    9   -2    2     -1.36      0.00
   10   -2    2      2.07      0.00
   11   -2    2     -1.07      0.00
   12   -2    2     -0.37      0.00
   13   -2    2      0.41      0.00
   14   -2    2     -1.96      0.00
   15   -2    2      3.52      0.00
  -14   -1    2      1.09      0.00
  -13   -1    2     -1.97      0.00
  -12   -1    2      2.87      0.00
  -11   -1    2     -1.41      0.00
  -10   -1    2      0.67      0.00
   -9   -1    2     -0.90      0.00
   -8   -1    2      0.82      0.00
   -7   -1    2      1.21      0.00
   -6   -1    2      0.98      0.00
   -5   -1    2     -5.47      0.00
   -4   -1    2      4.29      0.00
   -3   -1    2      1.49      0.00
   -2   -1    2     -7.94      0.00
   -1   -1    2      1.64      0.00
    0   -1    2    -24.28      0.00
    1   -1    2     50.91      0.00
    2   -1    2    -42.36      0.00
    3   -1    2     35.74      0.00
    4   -1    2    -20.91      0.00
    5   -1    2     11.45      0.00
    6   -1    2    -10.57      0.00
    7   -1    2      5.15      0.00
    8   -1    2     -1.79      0.00
    9   -1    2      0.48      0.00
   10   -1    2     -0.97      0.00
   11   -1    2      1.68      0.00
   12   -1    2     -1.74      0.00
   13   -1    2      0.53      0.00
   14   -1    2     -0.31      0.00
   15   -1    2      1.19      0.00
  -15    0    2     -1.45      0.00
  -14    0    2      0.05      0.00
  -13    0    2      0.18      0.00
  -12    0    2      1.39      0.00
  -11    0    2     -0.62      0.00
  -10    0    2     -1.61      0.00
   -9    0    2      2.02      0.00
   -8    0    2     -0.11      0.00
   -7    0    2      2.66      0.00
   -6    0    2     -3.48      0.00
   -5    0    2     -3.86      0.00
   -4    0    2      0.96      0.00
   -3    0    2     15.65      0.00
   -2    0    2    -15.11      0.00
   -1    0    2    -42.09      0.00
    0    0    2     71.20      0.00
    1    0    2    -34.53      0.00
    2    0    2     16.45      0.00
    3    0    2    -13.47      0.00
    4    0    2     15.87      0.00
    5    0    2    -15.15      0.00
    6    0    2      8.45      0.00
    7    0    2     -4.87      0.00
    8    0    2      0.58      0.00
    9    0    2     -0.60      0.00
   10    0    2      2.58      0.00
   11    0    2     -3.10      0.00
   12    0    2      2.11      0.00
   13    0    2     -0.52      0.00
   14    0    2     -0.88      0.00
  -15    1    2      0.59      0.00
  -14    1    2     -0.47      0.00
  -13    1    2      1.02      0.00
  -12    1    2      0.00      0.00
  -11    1    2     -0.52      0.00
  -10    1    2      0.28      0.00
   -9    1    2     -1.19      0.00
   -8    1    2      5.16      0.00
   -7    1    2     -3.68      0.00
   -6    1    2     -4.56      0.00
   -5    1    2      4.12      0.00
   -4    1    2     -0.36      0.00
   -3    1    2      1.35      0.00
   -2    1    2      3.53      0.00
   -1    1    2    -54.25      0.00
    0    1    2     80.83      0.00
    1    1    2    -21.90      0.00
    2    1    2    -18.17      0.00
    3    1    2     17.34      0.00
    4    1    2     -9.94      0.00
    5    1    2      5.52      0.00
    6    1    2     -3.16      0.00
    7    1    2      0.01      0.00
    8    1    2     -1.94      0.00
    9    1    2      1.30      0.00
   10    1    2     -0.05      0.00
   11    1    2      1.03      0.00
   12    1    2     -0.63      0.00
   13    1    2     -0.31      0.00
   14    1    2      0.08      0.00
  -15    2    2     -2.38      0.00
  -14    2    2      1.98      0.00
  -13    2    2     -0.64      0.00
  -12    2    2      0.80      0.00
  -11    2    2     -0.78      0.00
  -10    2    2      0.12      0.00
   -9    2    2      1.42      0.00
   -8    2    2     -0.27      0.00
   -7    2    2     -2.92      0.00
   -6    2    2      0.80      0.00
   -5    2    2     -1.62      0.00
   -4    2    2      7.28      0.00
   -3    2    2    -13.33      0.00
   -2    2    2      7.85      0.00
   -1    2    2    -20.36      0.00
    0    2    2     29.35      0.00
    1    2    2     21.26      0.00
    2    2    2    -48.60      0.00
    4    2    2     -7.58      0.00
    5    2    2      1.49      0.00
    6    2    2      1.03      0.00
    7    2    2     -4.23      0.00
    8    2    2      0.93      0.00
    9    2    2      0.08      0.00
   10    2    2      1.06      0.00
   11    2    2      0.38      0.00
   12    2    2     -1.09      0.00
   13    2    2      1.53      0.00
   14    2    2     -2.17      0.00
  -15    3    2     -1.74      0.00
  -14    3    2      1.01      0.00
  -13    3    2     -0.30      0.00
  -12    3    2      0.18      0.00
  -11    3    2      0.82      0.00
  -10    3    2      0.01      0.00
   -9    3    2     -0.87      0.00
   -8    3    2     -1.17      0.00
   -7    3    2      1.85      0.00
   -6    3    2     -2.48      0.00
   -5    3    2     -1.79      0.00
   -4    3    2      7.66      0.00
   -3    3    2     -7.91      0.00
   -2    3    2    -12.06      0.00
   -1    3    2     22.30      0.00
    0    3    2     -0.82      0.00
    1    3    2      6.18      0.00
    2    3    2    -14.94      0.00
    3    3    2      2.85      0.00
    4    3    2      3.83      0.00
    5    3    2     -3.06      0.00
    6    3    2      2.84      0.00
    7    3    2     -4.22      0.00
    8    3    2     -0.80      0.00
    9    3    2      3.55      0.00
   10    3    2     -1.80      0.00
   11    3    2      1.04      0.00
   12    3    2      0.45      0.00
   13    3    2     -1.11      0.00
   14    3    2      0.44      0.00
  -15    4    2      0.22      0.00
  -14    4    2     -0.93      0.00
  -13    4    2     -0.19      0.00
  -12    4    2      1.61      0.00
  -11    4    2     -0.44      0.00
  -10    4    2      0.42      0.00
   -9    4    2     -2.56      0.00
   -8    4    2      3.30      0.00
   -7    4    2     -4.65      0.00
   -6    4    2      1.99      0.00
   -5    4    2      0.87      0.00
   -4    4    2      2.12      0.00
   -3    4    2    -10.53      0.00
   -2    4    2      4.30      0.00
   -1    4    2     11.82      0.00
    0    4    2     -0.46      0.00
    1    4    2     -6.67      0.00
    2    4    2      4.55      0.00
    3    4    2     -7.26      0.00
    4    4    2      3.90      0.00
    5    4    2      1.61      0.00
    6    4    2     -2.87      0.00
    7    4    2     -1.15      0.00
    8    4    2      0.75      0.00
    9    4    2      0.89      0.00
   10    4    2     -0.82      0.00
   11    4    2      1.12      0.00
   12    4    2      1.21      0.00
   13    4    2     -2.71      0.00
  -15    5    2      0.00      0.00
  -14    5    2     -1.13      0.00
  -13    5    2      0.34      0.00
  -12    5    2      1.01      0.00
  -11    5    2     -0.59      0.00
  -10    5    2      0.24      0.00
   -9    5    2      1.10      0.00
   -8    5    2     -3.73      0.00
   -7    5    2      0.21      0.00
   -6    5    2      4.23      0.00
   -5    5    2     -2.77      0.00
   -4    5    2     -0.98      0.00
   -3    5    2     -1.01      0.00
   -2    5    2      0.24      0.00
   -1    5    2     13.28      0.00
    0    5    2    -11.02      0.00
    1    5    2      2.56      0.00
    2    5    2      2.55      0.00
    3    5    2     -8.18      0.00
    4    5    2      6.57      0.00
    5    5    2     -2.13      0.00
    6    5    2     -0.86      0.00
    7    5    2     -0.32      0.00
    8    5    2     -0.54      0.00
    9    5    2      0.90      0.00
   10    5    2      1.07      0.00
   11    5    2     -0.93      0.00
   12    5    2      1.35      0.00
   13    5    2     -2.18      0.00
  -15    6    2     -1.92      0.00
  -14    6    2     -0.49      0.00
  -13    6    2      0.96      0.00
  -12    6    2      0.06      0.00
  -11    6    2     -0.17      0.00
  -10    6    2      1.49      0.00
   -9    6    2     -1.57      0.00
   -8    6    2     -1.58      0.00
   -7    6    2      1.10      0.00
   -6    6    2      2.90      0.00
   -5    6    2     -3.69      0.00
   -4    6    2     -0.12      0.00
   -3    6    2      2.25      0.00
   -2    6    2     -1.69      0.00
   -1    6    2      7.95      0.00
    0    6    2     -4.67      0.00
    1    6    2     -2.64      0.00
    2    6    2      4.26      0.00
    3    6    2     -3.94      0.00
    4    6    2      0.40      0.00
    5    6    2      1.64      0.00
    6    6    2     -2.18      0.00
    7    6    2     -0.43      0.00
    8    6    2      1.06      0.00
    9    6    2     -0.35      0.00
   10    6    2      1.06      0.00
   11    6    2      0.15      0.00
   12    6    2     -1.47      0.00
  -15    7    2     -3.01      0.00
  -14    7    2      0.42      0.00
  -13    7    2      1.56      0.00
  -12    7    2     -1.13      0.00
  -11    7    2      1.34      0.00
  -10    7    2     -1.07      0.00
   -9    7    2      1.32      0.00
   -8    7    2     -2.39      0.00
   -7    7    2      1.56      0.00
   -6    7    2      0.97      0.00
   -5    7    2     -2.61      0.00
   -4    7    2      1.70      0.00
   -3    7    2     -1.93      0.00
   -2    7    2      4.96      0.00
   -1    7    2     -1.04      0.00
    0    7    2      1.79      0.00
    1    7    2     -5.89      0.00
    2    7    2      4.78      0.00
    3    7    2     -2.49      0.00
    4    7    2      0.81      0.00
    5    7    2     -1.67      0.00
    6    7    2      0.30      0.00
    7    7    2     -0.16      0.00
    8    7    2      0.61      0.00
    9    7    2     -0.02      0.00
   10    7    2      0.83      0.00
   11    7    2     -1.64      0.00
   12    7    2      1.02      0.00
  -15    8    2     -1.78      0.00
  -14    8    2      2.12      0.00
  -13    8    2     -1.38      0.00
  -12    8    2      1.83      0.00
  -11    8    2     -1.74      0.00
  -10    8    2      1.92      0.00
   -9    8    2     -0.72      0.00
   -8    8    2     -1.14      0.00
   -7    8    2      2.28      0.00
   -6    8    2     -3.25      0.00
   -5    8    2      2.38      0.00
   -4    8    2     -2.19      0.00
   -3    8    2      0.58      0.00
   -2    8    2      5.95      0.00
   -1    8    2     -4.19      0.00
    0    8    2      0.03      0.00
    1    8    2      1.24      0.00
    2    8    2     -3.31      0.00
    3    8    2      3.64      0.00
    4    8    2     -1.88      0.00
    5    8    2     -1.91      0.00
    6    8    2      0.69      0.00
    7    8    2      0.95      0.00
    8    8    2      0.51      0.00
    9    8    2     -1.02      0.00
   10    8    2      0.57      0.00
   11    8    2     -0.97      0.00
  -15    9    2      1.35      0.00
  -14    9    2     -1.49      0.00
  -13    9    2      1.20      0.00
  -12    9    2      0.01      0.00
  -11    9    2      0.30      0.00
  -10    9    2     -0.03      0.00
   -9    9    2     -0.08      0.00
   -8    9    2     -0.18      0.00
   -7    9    2      0.45      0.00
   -6    9    2     -2.35      0.00
   -5    9    2      0.71      0.00
   -4    9    2      0.50      0.00
   -3    9    2      1.28      0.00
   -2    9    2      3.05      0.00
   -1    9    2     -3.58      0.00
    0    9    2     -0.59      0.00
    1    9    2      3.00      0.00
    2    9    2     -3.65      0.00
    3    9    2      2.10      0.00
    4    9    2     -0.56      0.00
    5    9    2     -2.08      0.00
    6    9    2      0.57      0.00
    7    9    2      1.92      0.00
    8    9    2     -0.55      0.00
    9    9    2     -1.11      0.00
   10    9    2      0.74      0.00
  -14   10    2      2.50      0.00
  -13   10    2     -2.86      0.00
  -12   10    2      2.23      0.00
  -11   10    2      0.75      0.00
  -10   10    2     -1.90      0.00
   -9   10    2      0.83      0.00
   -8   10    2      0.04      0.00
   -7   10    2     -1.11      0.00
   -6   10    2     -0.85      0.00
   -5   10    2     -0.44      0.00
   -4   10    2      3.82      0.00
   -3   10    2     -1.18      0.00
   -2   10    2      1.71      0.00
   -1   10    2     -2.09      0.00
    0   10    2     -1.02      0.00
    1   10    2      2.87      0.00
    2   10    2     -2.07      0.00
    3   10    2     -0.75      0.00
    4   10    2      1.22      0.00
    5   10    2     -1.87      0.00
    6   10    2      1.23      0.00
    7   10    2      0.16      0.00
    8   10    2     -0.12      0.00
    9   10    2     -0.21      0.00
   10   10    2      0.01      0.00
  -14   11    2      1.00      0.00
  -13   11    2     -2.27      0.00
  -12   11    2      2.38      0.00
  -11   11    2      0.50      0.00
  -10   11    2     -1.95      0.00
   -9   11    2      0.17      0.00
   -8   11    2      0.79      0.00
   -7   11    2     -2.21      0.00
   -6   11    2      0.31      0.00
   -5   11    2      1.30      0.00
   -4   11    2      1.15      0.00
   -3   11    2      0.81      0.00
   -2   11    2     -1.50      0.00
   -1   11    2     -0.15      0.00
    0   11    2      0.62      0.00
    1   11    2     -0.23      0.00
    2   11    2     -0.54      0.00
    3   11    2     -0.14      0.00
    4   11    2     -0.83      0.00
    5   11    2      1.31      0.00
    6   11    2     -0.15      0.00
    7   11    2     -2.57      0.00
    8   11    2      4.27      0.00
    9   11    2     -3.10      0.00
  -14   12    2      1.01      0.00
  -13   12    2     -1.71      0.00
  -12   12    2      2.10      0.00
  -11   12    2      0.06      0.00
  -10   12    2     -2.36      0.00
   -9   12    2      1.62      0.00
   -8   12    2     -1.85      0.00
   -7   12    2      1.22      0.00
   -6   12    2     -1.37      0.00
   -5   12    2      2.29      0.00
   -4   12    2      0.47      0.00
   -3   12    2     -0.39      0.00
   -2   12    2     -0.52      0.00
   -1   12    2      0.09      0.00
    0   12    2     -0.04      0.00
    1   12    2      0.97      0.00
    2   12    2     -2.13      0.00
    3   12    2     -0.35      0.00
    4   12    2      2.19      0.00
    5   12    2     -0.74      0.00
    6   12    2     -2.27      0.00
    7   12    2      2.17      0.00
    8   12    2     -0.42      0.00
  -13   13    2      0.21      0.00
  -12   13    2      1.00      0.00
  -11   13    2     -1.85      0.00
  -10   13    2      0.48      0.00
   -9   13    2     -0.49      0.00
   -8   13    2      0.09      0.00
   -7   13    2      0.11      0.00
   -6   13    2      0.02      0.00
   -5   13    2      1.04      0.00
   -4   13    2     -0.33      0.00
   -3   13    2      0.76      0.00
   -2   13    2     -0.42      0.00
   -1   13    2     -1.31      0.00
    0   13    2      2.59      0.00
    1   13    2     -2.14      0.00
    2   13    2     -0.36      0.00
    3   13    2      0.15      0.00
    4   13    2      0.91      0.00
    5   13    2     -0.46      0.00
    6   13    2     -1.28      0.00
    7   13    2      0.98      0.00
  -12   14    2     -0.64      0.00
  -11   14    2     -1.32      0.00
  -10   14    2      0.26      0.00
   -9   14    2     -0.01      0.00
   -8   14    2      0.79      0.00
   -7   14    2     -0.74      0.00
   -6   14    2      0.36      0.00
   -5   14    2      0.74      0.00
   -4   14    2     -1.47      0.00
   -3   14    2      3.12      0.00
   -2   14    2     -2.61      0.00
   -1   14    2      0.92      0.00
    0   14    2      0.32      0.00
    1   14    2     -1.42      0.00
    2   14    2      0.48      0.00
    3   14    2     -0.71      0.00
    4   14    2      1.23      0.00
    5   14    2     -1.32      0.00
    6   14    2      0.75      0.00
  -12   15    2      0.08      0.00
  -11   15    2     -0.99      0.00
  -10   15    2     -1.01      0.00
   -9   15    2      1.66      0.00
   -8   15    2      0.49      0.00
   -7   15    2     -1.88      0.00
   -6   15    2      1.86      0.00
   -5   15    2     -1.26      0.00
   -4   15    2      0.82      0.00
   -3   15    2      0.44      0.00
   -2   15    2      0.64      0.00
   -1   15    2     -1.33      0.00
    0   15    2      0.56      0.00
    1   15    2     -1.49      0.00
    2   15    2      0.89      0.00
    3   15    2     -0.42      0.00
    4   15    2      0.23      0.00
    5   15    2      0.01      0.00
  -10   16    2     -0.08      0.00
   -9   16    2      0.93      0.00
   -8   16    2     -0.15      0.00
   -7   16    2     -0.96      0.00
   -6   16    2      1.55      0.00
   -5   16    2     -1.05      0.00
   -4   16    2      0.14      0.00
   -3   16    2      1.18      0.00
   -2   16    2      0.60      0.00
   -1   16    2     -1.53      0.00
    0   16    2     -0.37      0.00
    1   16    2     -0.17      0.00
    2   16    2     -0.30      0.00
    3   16    2      0.90      0.00
   -9   17    2     -1.84      0.00
   -8   17    2      0.69      0.00
   -7   17    2      0.15      0.00
   -6   17    2      0.07      0.00
   -5   17    2      0.33      0.00
   -4   17    2     -0.68      0.00
   -3   17    2      1.15      0.00
   -2   17    2      0.67      0.00
   -1   17    2     -1.33      0.00
    0   17    2     -1.49      0.00
    1   17    2      1.11      0.00
   -6   18    2      0.89      0.00
   -5   18    2     -0.44      0.00
   -4   18    2     -0.28      0.00
   -3   18    2      1.26      0.00
   -2   18    2     -0.80      0.00
    1  -18    3     -0.60      0.00
    2  -18    3      1.57      0.00
    3  -18    3     -2.07      0.00
    4  -18    3      0.22      0.00
    5  -18    3      1.39      0.00
    6  -18    3     -2.80      0.00
   -2  -17    3     -0.69      0.00
   -1  -17    3      0.15      0.00
    0  -17    3      0.31      0.00
    1  -17    3      0.79      0.00
    2  -17    3     -0.75      0.00
    3  -17    3     -0.56      0.00
    4  -17    3     -0.34      0.00
    5  -17    3      0.58      0.00
    6  -17    3     -1.02      0.00
    7  -17    3      0.73      0.00
    8  -17    3     -0.52      0.00
    9  -17    3      0.50      0.00
   -3  -16    3      2.32      0.00
   -2  -16    3     -2.11      0.00
   -1  -16    3      0.09      0.00
    0  -16    3      2.00      0.00
    1  -16    3     -0.81      0.00
    2  -16    3     -1.12      0.00
    3  -16    3      0.81      0.00
    4  -16    3     -1.30      0.00
    5  -16    3     -0.12      0.00
    6  -16    3      1.41      0.00
    7  -16    3     -1.45      0.00
    8  -16    3      0.74      0.00
    9  -16    3      0.46      0.00
   10  -16    3     -0.68      0.00
   -5  -15    3     -1.19      0.00
   -4  -15    3      1.91      0.00
   -3  -15    3      0.23      0.00
   -2  -15    3     -0.91      0.00
   -1  -15    3      0.82      0.00
    0  -15    3     -0.36      0.00
    1  -15    3      0.61      0.00
    2  -15    3     -0.97      0.00
    3  -15    3     -0.36      0.00
    4  -15    3      0.06      0.00
    5  -15    3     -0.55      0.00
    6  -15    3      1.06      0.00
    7  -15    3     -1.15      0.00
    8  -15    3      1.93      0.00
    9  -15    3     -1.97      0.00
   10  -15    3      1.36      0.00
   11  -15    3      0.26      0.00
   -6  -14    3     -1.21      0.00
   -5  -14    3     -0.14      0.00
   -4  -14    3      1.12      0.00
   -3  -14    3      1.32      0.00
   -2  -14    3     -1.86      0.00
   -1  -14    3      1.89      0.00
    0  -14    3     -2.25      0.00
    1  -14    3      1.14      0.00
    2  -14    3      0.35      0.00
    3  -14    3     -1.55      0.00
    4  -14    3      0.77      0.00
    5  -14    3     -0.61      0.00
    6  -14    3      0.05      0.00
    7  -14    3      0.45      0.00
    8  -14    3      0.21      0.00
    9  -14    3      0.41      0.00
   10  -14    3     -1.13      0.00
   11  -14    3      0.49      0.00
   12  -14    3      0.99      0.00
   -7  -13    3     -0.92      0.00
   -6  -13    3     -0.37      0.00
   -5  -13    3      0.40      0.00
   -4  -13    3      0.79      0.00
   -3  -13    3      0.53      0.00
   -2  -13    3      0.41      0.00
   -1  -13    3     -1.12      0.00
    0  -13    3     -0.45      0.00
    1  -13    3      0.34      0.00
    2  -13    3      0.63      0.00
    3  -13    3     -0.13      0.00
    4  -13    3     -1.07      0.00
    5  -13    3     -0.44      0.00
    6  -13    3      1.12      0.00
    7  -13    3     -1.63      0.00
    8  -13    3      3.54      0.00
    9  -13    3     -2.56      0.00
   10  -13    3     -0.22      0.00
   11  -13    3      0.83      0.00
   12  -13    3      0.29      0.00
   13  -13    3     -0.03      0.00
   -8  -12    3      1.38      0.00
   -7  -12    3     -4.11      0.00
   -6  -12    3      1.73      0.00
   -5  -12    3      1.17      0.00
   -4  -12    3     -0.59      0.00
   -3  -12    3      1.30      0.00
   -2  -12    3     -0.34      0.00
   -1  -12    3     -0.68      0.00
    0  -12    3      0.14      0.00
    1  -12    3     -0.93      0.00
    2  -12    3      2.13      0.00
    3  -12    3     -1.14      0.00
    4  -12    3     -0.80      0.00
    5  -12    3     -1.10      0.00
    6  -12    3      1.54      0.00
    7  -12    3     -0.79      0.00
    8  -12    3      2.48      0.00
    9  -12    3     -2.78      0.00
   10  -12    3      1.14      0.00
   11  -12    3     -0.37      0.00
   12  -12    3      0.54      0.00
   13  -12    3      0.36      0.00
   -9  -11    3      1.15      0.00
   -8  -11    3     -0.06      0.00
   -7  -11    3     -2.40      0.00
   -6  -11    3      0.36      0.00
   -5  -11    3      2.45      0.00
   -4  -11    3     -0.81      0.00
   -3  -11    3      0.43      0.00
   -2  -11    3      0.22      0.00
   -1  -11    3     -0.27      0.00
    0  -11    3     -0.40      0.00
    1  -11    3      0.37      0.00
    2  -11    3      0.33      0.00
    3  -11    3     -1.09      0.00
    4  -11    3     -0.56      0.00
    5  -11    3     -0.31      0.00
    6  -11    3      0.94      0.00
    7  -11    3     -0.33      0.00
    8  -11    3      0.54      0.00
    9  -11    3      0.56      0.00
   10  -11    3     -1.89      0.00
   11  -11    3      1.80      0.00
   12  -11    3     -1.15      0.00
   13  -11    3      1.44      0.00
   14  -11    3     -1.59      0.00
  -10  -10    3      1.30      0.00
   -9  -10    3     -0.35      0.00
   -8  -10    3      0.01      0.00
   -7  -10    3     -1.74      0.00
   -6  -10    3      1.13      0.00
   -5  -10    3      0.43      0.00
   -4  -10    3      0.97      0.00
   -3  -10    3      0.15      0.00
   -2  -10    3     -0.49      0.00
   -1  -10    3      0.73      0.00
    0  -10    3     -0.44      0.00
    2  -10    3      0.13      0.00
    3  -10    3     -1.66      0.00
    4  -10    3     -0.40      0.00
    5  -10    3      1.29      0.00
    6  -10    3      0.34      0.00
    7  -10    3     -1.79      0.00
    8  -10    3      1.48      0.00
    9  -10    3      1.37      0.00
   10  -10    3     -3.25      0.00
   11  -10    3      3.26      0.00
   12  -10    3     -2.83      0.00
   13  -10    3      3.32      0.00
   14  -10    3     -4.15      0.00
  -11   -9    3     -1.26      0.00
  -10   -9    3     -1.69      0.00
   -9   -9    3      3.23      0.00
   -8   -9    3     -1.88      0.00
   -7   -9    3     -1.12      0.00
   -6   -9    3      1.18      0.00
   -5   -9    3      1.13      0.00
   -4   -9    3     -1.14      0.00
   -3   -9    3      2.97      0.00
   -2   -9    3     -1.36      0.00
   -1   -9    3     -0.81      0.00
    0   -9    3      1.67      0.00
    1   -9    3     -2.13      0.00
    2   -9    3      0.22      0.00
    3   -9    3     -1.23      0.00
    4   -9    3     -1.06      0.00
    5   -9    3      2.68      0.00
    6   -9    3     -0.64      0.00
    7   -9    3     -1.24      0.00
    8   -9    3      0.72      0.00
    9   -9    3      0.93      0.00
   10   -9    3     -0.71      0.00
   11   -9    3      0.75      0.00
   12   -9    3     -0.88      0.00
   13   -9    3     -0.14      0.00
   14   -9    3     -0.04      0.00
  -11   -8    3     -2.77      0.00
  -10   -8    3      0.25      0.00
   -9   -8    3      1.24      0.00
   -8   -8    3     -0.64      0.00
   -7   -8    3     -1.04      0.00
   -6   -8    3      1.36      0.00
   -5   -8    3      0.10      0.00
   -4   -8    3      1.20      0.00
   -3   -8    3      0.29      0.00
   -2   -8    3     -0.02      0.00
   -1   -8    3      0.30      0.00
    0   -8    3     -2.31      0.00
    1   -8    3      1.45      0.00
    2   -8    3     -0.66      0.00
    3   -8    3     -4.32      0.00
    4   -8    3      3.52      0.00
    5   -8    3      0.22      0.00
    6   -8    3     -0.36      0.00
    7   -8    3     -1.16      0.00
    8   -8    3      1.58      0.00
    9   -8    3     -0.77      0.00
   10   -8    3      1.59      0.00
   11   -8    3     -0.84      0.00
   12   -8    3     -0.55      0.00
   13   -8    3     -1.18      0.00
   14   -8    3      2.27      0.00
   15   -8    3     -0.96      0.00
  -12   -7    3     -2.12      0.00
  -11   -7    3     -0.16      0.00
  -10   -7    3      0.54      0.00
   -9   -7    3      0.16      0.00
   -8   -7    3     -1.35      0.00
   -7   -7    3      0.94      0.00
   -6   -7    3      0.53      0.00
   -5   -7    3      1.05      0.00
   -4   -7    3      0.49      0.00
   -3   -7    3     -1.18      0.00
   -2   -7    3      2.50      0.00
   -1   -7    3     -2.47      0.00
    0   -7    3      0.56      0.00
    1   -7    3     -0.83      0.00
    2   -7    3     -2.25      0.00
    3   -7    3     -1.23      0.00
    4   -7    3      2.58      0.00
    5   -7    3     -0.08      0.00
    6   -7    3     -0.99      0.00
    7   -7    3      0.52      0.00
    8   -7    3      0.89      0.00
    9   -7    3      0.06      0.00
   10   -7    3      0.11      0.00
   11   -7    3     -0.42      0.00
   12   -7    3     -0.20      0.00
   13   -7    3     -0.69      0.00
   14   -7    3      1.60      0.00
   15   -7    3     -1.36      0.00
  -13   -6    3      0.27      0.00
  -12   -6    3     -1.97      0.00
  -11   -6    3      1.10      0.00
  -10   -6    3      0.05      0.00
   -9   -6    3     -0.57      0.00
   -8   -6    3     -1.15      0.00
   -7   -6    3      1.82      0.00
   -6   -6    3      0.81      0.00
   -5   -6    3      0.15      0.00
   -4   -6    3      1.66      0.00
   -3   -6    3     -3.24      0.00
   -1   -6    3      4.72      0.00
    0   -6    3     -7.15      0.00
    1   -6    3      1.95      0.00
    2   -6    3     -5.12      0.00
    3   -6    3      2.25      0.00
    4   -6    3      3.25      0.00
    5   -6    3     -4.49      0.00
    6   -6    3      3.60      0.00
    7   -6    3     -0.16      0.00
    8   -6    3     -0.56      0.00
    9   -6    3      1.42      0.00
   10   -6    3     -0.78      0.00
   11   -6    3     -0.48      0.00
   12   -6    3     -0.03      0.00
   13   -6    3      0.62      0.00
   14   -6    3     -0.77      0.00
   15   -6    3      0.77      0.00
  -13   -5    3     -0.52      0.00
  -12   -5    3     -0.99      0.00
  -11   -5    3      0.92      0.00
  -10   -5    3      0.10      0.00
   -9   -5    3     -1.84      0.00
   -8   -5    3      1.23      0.00
   -7   -5    3      0.48      0.00
   -6   -5    3      0.76      0.00
   -5   -5    3      0.74      0.00
   -4   -5    3      2.06      0.00
   -3   -5    3     -6.26      0.00
   -2   -5    3      3.62      0.00
   -1   -5    3      5.63      0.00
    0   -5    3     -8.35      0.00
    1   -5    3     -2.87      0.00
    2   -5    3      0.15      0.00
    3   -5    3     -0.58      0.00
    4   -5    3      6.32      0.00
    5   -5    3     -5.25      0.00
    6   -5    3      4.42      0.00
    7   -5    3     -2.09      0.00
    8   -5    3      1.25      0.00
    9   -5    3      0.53      0.00
   10   -5    3     -0.33      0.00
   11   -5    3     -1.90      0.00
   12   -5    3      1.74      0.00
   13   -5    3      0.21      0.00
   14   -5    3     -1.35      0.00
   15   -5    3      0.76      0.00
  -13   -4    3      1.17      0.00
  -12   -4    3     -2.26      0.00
  -11   -4    3      1.50      0.00
  -10   -4    3     -0.28      0.00
   -9   -4    3     -1.13      0.00
   -8   -4    3      1.57      0.00
   -7   -4    3     -0.30      0.00
   -6   -4    3     -0.86      0.00
   -5   -4    3      4.86      0.00
   -4   -4    3     -0.73      0.00
   -3   -4    3     -7.89      0.00
   -2   -4    3      8.62      0.00
    0   -4    3     -0.01      0.00
    1   -4    3     -8.78      0.00
    2   -4    3     -7.15      0.00
    3   -4    3     17.95      0.00
    4   -4    3     -7.11      0.00
    5   -4    3      4.30      0.00
    6   -4    3     -3.66      0.00
    7   -4    3      2.31      0.00
    8   -4    3      0.41      0.00
    9   -4    3      0.17      0.00
   10   -4    3     -1.96      0.00
   11   -4    3      0.99      0.00
   12   -4    3      0.54      0.00
   13   -4    3     -0.47      0.00
   14   -4    3     -1.28      0.00
   15   -4    3      1.60      0.00
  -14   -3    3     -0.65      0.00
  -13   -3    3     -0.27      0.00
  -12   -3    3     -0.76      0.00
  -11   -3    3      1.48      0.00
  -10   -3    3     -1.46      0.00
   -9   -3    3      1.65      0.00
   -8   -3    3     -0.52      0.00
   -7   -3    3     -2.33      0.00
   -6   -3    3      3.55      0.00
   -5   -3    3      2.99      0.00
   -4   -3    3     -3.78      0.00
   -3   -3    3      1.29      0.00
   -2   -3    3     -7.70      0.00
   -1   -3    3     12.69      0.00
    0   -3    3     -4.02      0.00
    1   -3    3    -21.46      0.00
    2   -3    3      9.77      0.00
    3   -3    3     11.23      0.00
    4   -3    3      0.50      0.00
    5   -3    3     -5.32      0.00
    6   -3    3      1.32      0.00
    7   -3    3      2.03      0.00
    8   -3    3     -0.76      0.00
    9   -3    3     -1.75      0.00
   10   -3    3      1.05      0.00
   11   -3    3      1.05      0.00
   12   -3    3     -0.88      0.00
   13   -3    3     -1.81      0.00
   14   -3    3      1.59      0.00
   15   -3    3      0.18      0.00
  -14   -2    3     -1.09      0.00
  -13   -2    3     -3.03      0.00
  -12   -2    3      4.67      0.00
  -11   -2    3     -4.10      0.00
  -10   -2    3      3.95      0.00
   -9   -2    3     -1.73      0.00
   -8   -2    3     -1.87      0.00
   -7   -2    3      2.45      0.00
   -6   -2    3     -0.07      0.00
   -5   -2    3      3.95      0.00
   -4   -2    3     -4.16      0.00
   -3   -2    3      1.02      0.00
   -2   -2    3     -6.89      0.00
   -1   -2    3     10.26      0.00
    0   -2    3     -6.49      0.00
    1   -2    3    -18.96      0.00
    2   -2    3     16.66      0.00
    3   -2    3      7.55      0.00
    4   -2    3     -0.09      0.00
    5   -2    3     -4.71      0.00
    6   -2    3      1.99      0.00
    7   -2    3     -1.41      0.00
    8   -2    3      0.77      0.00
    9   -2    3     -0.94      0.00
   10   -2    3      1.16      0.00
   11   -2    3     -0.49      0.00
   12   -2    3     -0.26      0.00
   13   -2    3     -0.46      0.00
   14   -2    3     -1.27      0.00
   15   -2    3      3.19      0.00
  -14   -1    3      0.84      0.00
  -13   -1    3     -2.00      0.00
  -12   -1    3      2.42      0.00
  -11   -1    3     -0.30      0.00
  -10   -1    3     -0.47      0.00
   -9   -1    3      0.12      0.00
   -8   -1    3     -0.55      0.00
   -7   -1    3      0.61      0.00
   -6   -1    3      3.95      0.00
   -5   -1    3     -5.58      0.00
   -4   -1    3      7.66      0.00
   -3   -1    3    -15.82      0.00
   -2   -1    3     24.46      0.00
   -1   -1    3    -36.71      0.00
    0   -1    3     23.12      0.00
    1   -1    3     -5.49      0.00
    2   -1    3    -15.30      0.00
    3   -1    3     39.91      0.00
    4   -1    3    -26.83      0.00
    5   -1    3     13.70      0.00
    6   -1    3    -11.67      0.00
    7   -1    3      5.93      0.00
    8   -1    3     -1.80      0.00
    9   -1    3      0.65      0.00
   10   -1    3     -1.16      0.00
   11   -1    3      1.60      0.00
   12   -1    3     -1.66      0.00
   13   -1    3      0.31      0.00
   14   -1    3     -0.36      0.00
   15   -1    3      1.15      0.00
  -15    0    3     -3.98      0.00
  -14    0    3      2.12      0.00
  -13    0    3     -1.42      0.00
  -12    0    3      2.93      0.00
  -11    0    3     -2.12      0.00
  -10    0    3     -0.48      0.00
   -9    0    3      2.21      0.00
   -8    0    3     -2.97      0.00
   -7    0    3      4.63      0.00
   -6    0    3      0.25      0.00
   -5    0    3     -7.46      0.00
   -4    0    3      3.51      0.00
   -3    0    3     14.97      0.00
   -2    0    3    -38.43      0.00
   -1    0    3     31.70      0.00
    0    0    3    -26.15      0.00
    1    0    3     22.26      0.00
    2    0    3     -8.01      0.00
    3    0    3      9.63      0.00
    4    0    3      0.61      0.00
    5    0    3     -9.13      0.00
    6    0    3      6.54      0.00
    7    0    3     -4.94      0.00
    8    0    3      2.31      0.00
    9    0    3     -1.46      0.00
   10    0    3      1.99      0.00
   11    0    3     -2.52      0.00
   12    0    3      1.55      0.00
   13    0    3      0.11      0.00
   14    0    3     -1.59      0.00
  -15    1    3     -0.34      0.00
  -14    1    3     -0.07      0.00
  -13    1    3      0.82      0.00
  -12    1    3      0.21      0.00
  -11    1    3     -0.18      0.00
  -10    1    3     -0.23      0.00
   -9    1    3     -1.68      0.00
   -8    1    3      5.52      0.00
   -7    1    3     -4.59      0.00
   -6    1    3      2.25      0.00
   -5    1    3     -3.89      0.00
   -4    1    3      4.54      0.00
   -3    1    3     -3.01      0.00
   -2    1    3     -5.23      0.00
   -1    1    3     -6.66      0.00
    0    1    3      8.94      0.00
    1    1    3      5.37      0.00
    2    1    3      4.86      0.00
    3    1    3     -7.83      0.00
    4    1    3      5.60      0.00
    5    1    3     -4.37      0.00
    6    1    3      2.02      0.00
    7    1    3     -1.69      0.00
    8    1    3     -0.83      0.00
    9    1    3      0.40      0.00
   10    1    3      0.39      0.00
   11    1    3      0.35      0.00
   12    1    3     -0.55      0.00
   13    1    3      0.13      0.00
   14    1    3     -0.09      0.00
  -15    2    3     -1.24      0.00
  -14    2    3      0.64      0.00
  -13    2    3      0.48      0.00
  -12    2    3      0.03      0.00
  -11    2    3      0.04      0.00
  -10    2    3     -0.05      0.00
   -9    2    3     -0.49      0.00
   -8    2    3      1.60      0.00
   -7    2    3     -1.12      0.00
   -6    2    3     -1.50      0.00
   -5    2    3      4.10      0.00
   -4    2    3     -8.32      0.00
   -3    2    3      4.24      0.00
   -2    2    3     -0.30      0.00
   -1    2    3    -14.79      0.00
    0    2    3     12.78      0.00
    1    2    3     23.07      0.00
    2    2    3    -26.91      0.00
    3    2    3     11.15      0.00
    4    2    3     -2.52      0.00
    5    2    3      0.47      0.00
    6    2    3     -0.37      0.00
    7    2    3     -1.11      0.00
    8    2    3     -0.52      0.00
    9    2    3     -0.72      0.00
   10    2    3      1.78      0.00
   11    2    3      0.09      0.00
   12    2    3     -1.09      0.00
   13    2    3      1.18      0.00
   14    2    3     -1.15      0.00
  -15    3    3     -2.93      0.00
  -14    3    3      2.48      0.00
  -13    3    3     -1.54      0.00
  -12    3    3      1.33      0.00
  -11    3    3      0.57      0.00
  -10    3    3     -0.97      0.00
   -9    3    3     -0.80      0.00
   -8    3    3      0.00      0.00
   -7    3    3      3.98      0.00
   -6    3    3     -6.41      0.00
   -5    3    3      0.05      0.00
   -4    3    3      6.02      0.00
   -3    3    3     -6.73      0.00
   -2    3    3     -8.48      0.00
   -1    3    3     13.89      0.00
    0    3    3     -5.01      0.00
    1    3    3     18.02      0.00
    2    3    3    -17.84      0.00
    3    3    3      3.64      0.00
    4    3    3      2.46      0.00
    5    3    3     -3.30      0.00
    6    3    3      4.24      0.00
    7    3    3     -4.60      0.00
    8    3    3     -0.97      0.00
    9    3    3      2.89      0.00
   10    3    3     -0.76      0.00
   11    3    3     -0.25      0.00
   12    3    3      0.93      0.00
   13    3    3     -0.20      0.00
  -15    4    3     -1.11      0.00
  -14    4    3     -0.19      0.00
  -13    4    3      0.49      0.00
  -12    4    3      0.67      0.00
  -11    4    3      0.18      0.00
  -10    4    3     -1.02      0.00
   -9    4    3     -0.83      0.00
   -8    4    3      2.54      0.00
   -7    4    3     -1.80      0.00
   -6    4    3     -3.36      0.00
   -5    4    3      3.69      0.00
   -4    4    3      2.42      0.00
   -3    4    3    -10.22      0.00
   -2    4    3      2.81      0.00
   -1    4    3      4.87      0.00
    0    4    3      8.45      0.00
    1    4    3     -8.98      0.00
    2    4    3      6.94      0.00
    3    4    3     -9.43      0.00
    4    4    3      5.27      0.00
    5    4    3      0.00      0.00
    6    4    3     -0.56      0.00
    7    4    3     -1.75      0.00
    8    4    3     -0.86      0.00
    9    4    3      1.97      0.00
   10    4    3     -0.73      0.00
   11    4    3      0.55      0.00
   12    4    3      1.21      0.00
   13    4    3     -1.96      0.00
  -15    5    3     -0.73      0.00
  -14    5    3     -0.30      0.00
  -13    5    3      0.12      0.00
  -12    5    3      0.74      0.00
  -11    5    3     -0.68      0.00
  -10    5    3      0.21      0.00
   -9    5    3      0.81      0.00
   -8    5    3     -1.15      0.00
   -7    5    3     -2.67      0.00
   -6    5    3      3.60      0.00
   -5    5    3     -0.22      0.00
   -4    5    3     -2.67      0.00
   -3    5    3      0.77      0.00
   -2    5    3     -3.26      0.00
   -1    5    3      7.66      0.00
    0    5    3      3.30      0.00
    1    5    3     -5.95      0.00
    2    5    3      3.63      0.00
    3    5    3     -4.91      0.00
    4    5    3      2.05      0.00
    5    5    3      1.40      0.00
    6    5    3     -0.81      0.00
    7    5    3     -2.13      0.00
    8    5    3      0.05      0.00
    9    5    3      0.80      0.00
   10    5    3      1.14      0.00
   11    5    3     -1.46      0.00
   12    5    3      2.69      0.00
   13    5    3     -3.24      0.00
  -15    6    3     -0.22      0.00
  -14    6    3     -1.44      0.00
  -13    6    3      0.64      0.00
  -12    6    3      0.74      0.00
  -11    6    3     -1.28      0.00
  -10    6    3      2.26      0.00
   -9    6    3     -0.91      0.00
   -8    6    3     -2.19      0.00
   -7    6    3      0.42      0.00
   -6    6    3      3.27      0.00
   -5    6    3     -4.55      0.00
   -4    6    3      4.43      0.00
   -3    6    3     -3.96      0.00
   -2    6    3     -1.81      0.00
   -1    6    3      8.56      0.00
    0    6    3      0.39      0.00
    1    6    3     -5.46      0.00
    2    6    3      3.13      0.00
    3    6    3     -2.04      0.00
    4    6    3     -0.98      0.00
    5    6    3      3.67      0.00
    6    6    3     -3.06      0.00
    7    6    3     -0.38      0.00
    8    6    3     -0.04      0.00
    9    6    3      0.06      0.00
   10    6    3      1.65      0.00
   11    6    3     -0.36      0.00
   12    6    3     -0.86      0.00
  -15    7    3     -2.95      0.00
  -14    7    3      0.27      0.00
  -13    7    3      0.94      0.00
  -12    7    3     -0.94      0.00
  -11    7    3      1.57      0.00
  -10    7    3     -0.93      0.00
   -9    7    3      1.62      0.00
   -8    7    3     -2.91      0.00
   -7    7    3      0.54      0.00
   -6    7    3      2.67      0.00
   -5    7    3     -2.91      0.00
   -4    7    3      2.73      0.00
   -3    7    3     -5.09      0.00
   -2    7    3      3.40      0.00
   -1    7    3      2.42      0.00
    0    7    3      4.19      0.00
    1    7    3     -8.57      0.00
    2    7    3      3.76      0.00
    3    7    3     -0.33      0.00
    4    7    3     -0.28      0.00
    5    7    3     -0.25      0.00
    6    7    3      0.27      0.00
    7    7    3     -1.68      0.00
    8    7    3      0.63      0.00
    9    7    3      0.67      0.00
   10    7    3      0.15      0.00
   11    7    3     -0.10      0.00
   12    7    3     -0.29      0.00
  -15    8    3     -1.95      0.00
  -14    8    3      2.12      0.00
  -13    8    3     -2.32      0.00
  -12    8    3      2.46      0.00
  -11    8    3     -1.12      0.00
  -10    8    3      1.41      0.00
   -9    8    3     -0.49      0.00
   -8    8    3     -1.39      0.00
   -7    8    3      1.14      0.00
   -6    8    3      0.26      0.00
   -5    8    3     -0.55      0.00
   -4    8    3     -0.74      0.00
   -3    8    3     -2.44      0.00
   -2    8    3      5.67      0.00
   -1    8    3     -0.19      0.00
    0    8    3      0.42      0.00
    1    8    3     -2.03      0.00
    2    8    3     -1.40      0.00
    3    8    3      2.53      0.00
    4    8    3     -0.07      0.00
    5    8    3     -1.87      0.00
    6    8    3     -0.23      0.00
    7    8    3      0.74      0.00
    8    8    3      0.01      0.00
    9    8    3     -0.38      0.00
   10    8    3      0.90      0.00
   11    8    3     -1.10      0.00
  -15    9    3      0.07      0.00
  -14    9    3     -0.72      0.00
  -13    9    3      0.36      0.00
  -12    9    3      1.00      0.00
  -11    9    3     -0.27      0.00
  -10    9    3      0.79      0.00
   -9    9    3     -0.75      0.00
   -8    9    3     -0.63      0.00
   -7    9    3      2.04      0.00
   -6    9    3     -2.98      0.00
   -5    9    3      0.86      0.00
   -4    9    3     -0.93      0.00
   -3    9    3      0.06      0.00
   -2    9    3      4.50      0.00
   -1    9    3     -0.73      0.00
    0    9    3     -3.11      0.00
    1    9    3      3.64      0.00
    2    9    3     -4.68      0.00
    3    9    3      3.65      0.00
    4    9    3     -0.44      0.00
    5    9    3     -2.19      0.00
    6    9    3     -0.14      0.00
    7    9    3      2.09      0.00
    8    9    3     -1.04      0.00
    9    9    3     -0.32      0.00
   10    9    3      0.29      0.00
  -14   10    3      1.15      0.00
  -13   10    3     -1.00      0.00
  -12   10    3      0.85      0.00
  -11   10    3      1.62      0.00
  -10   10    3     -1.77      0.00
   -9   10    3      0.24      0.00
   -8   10    3      0.54      0.00
   -7   10    3     -0.34      0.00
   -6   10    3     -2.04      0.00
   -5   10    3     -0.28      0.00
   -4   10    3      2.38      0.00
   -3   10    3     -0.78      0.00
   -2   10    3      3.42      0.00
   -1   10    3     -2.22      0.00
    0   10    3     -1.03      0.00
    1   10    3      1.68      0.00
    2   10    3     -0.82      0.00
    3   10    3     -0.98      0.00
    4   10    3      1.98      0.00
    5   10    3     -2.41      0.00
    6   10    3     -0.20      0.00
    7   10    3      2.53      0.00
    8   10    3     -1.71      0.00
    9   10    3     -0.33      0.00
   10   10    3      0.64      0.00
  -14   11    3      1.61      0.00
  -13   11    3     -2.79      0.00
  -12   11    3      2.86      0.00
  -11   11    3      0.46      0.00
  -10   11    3     -1.91      0.00
   -9   11    3      0.40      0.00
   -8   11    3      0.96      0.00
   -7   11    3     -2.37      0.00
   -6   11    3     -0.34      0.00
   -5   11    3      0.79      0.00
   -4   11    3      1.12      0.00
   -3   11    3      1.90      0.00
   -2   11    3     -2.14      0.00
   -1   11    3      1.14      0.00
    0   11    3     -0.32      0.00
    1   11    3     -0.70      0.00
    2   11    3      1.39      0.00
    3   11    3     -1.97      0.00
    4   11    3      0.53      0.00
    5   11    3      0.58      0.00
    6   11    3     -0.95      0.00
    7   11    3     -0.34      0.00
    8   11    3      2.17      0.00
    9   11    3     -2.63      0.00
  -14   12    3      0.59      0.00
  -13   12    3     -1.79      0.00
  -12   12    3      2.02      0.00
  -11   12    3      0.96      0.00
  -10   12    3     -2.89      0.00
   -9   12    3      1.54      0.00
   -8   12    3     -0.70      0.00
   -7   12    3     -0.71      0.00
   -6   12    3     -0.95      0.00
   -5   12    3      2.02      0.00
   -4   12    3      1.27      0.00
   -3   12    3     -1.02      0.00
   -2   12    3      0.36      0.00
   -1   12    3     -0.56      0.00
    0   12    3      0.62      0.00
    1   12    3      1.23      0.00
    2   12    3     -3.37      0.00
    3   12    3      1.79      0.00
    4   12    3     -0.07      0.00
    5   12    3      0.29      0.00
    6   12    3     -1.76      0.00
    7   12    3      1.30      0.00
    8   12    3      0.07      0.00
  -13   13    3      0.31      0.00
  -12   13    3      0.64      0.00
  -11   13    3     -0.70      0.00
  -10   13    3     -0.10      0.00
   -9   13    3     -0.28      0.00
   -8   13    3     -0.46      0.00
   -7   13    3      0.42      0.00
   -6   13    3     -0.95      0.00
   -5   13    3      1.87      0.00
   -4   13    3     -0.02      0.00
   -3   13    3     -0.07      0.00
   -2   13    3      0.31      0.00
   -1   13    3     -1.42      0.00
    0   13    3      2.69      0.00
    1   13    3     -1.54      0.00
    2   13    3     -1.14      0.00
    3   13    3      0.26      0.00
    4   13    3      1.18      0.00
    5   13    3     -0.60      0.00
    6   13    3     -1.17      0.00
    7   13    3      0.69      0.00
  -12   14    3     -0.15      0.00
  -11   14    3     -0.57      0.00
  -10   14    3     -0.31      0.00
   -9   14    3     -0.01      0.00
   -8   14    3      0.54      0.00
   -7   14    3     -0.64      0.00
   -6   14    3      0.29      0.00
   -5   14    3      0.45      0.00
   -4   14    3     -0.46      0.00
   -3   14    3      1.93      0.00
   -2   14    3     -1.91      0.00
   -1   14    3      0.98      0.00
    0   14    3      0.60      0.00
    1   14    3     -1.16      0.00
    2   14    3     -0.43      0.00
    3   14    3      0.12      0.00
    4   14    3      0.77      0.00
    5   14    3     -1.09      0.00
    6   14    3      0.44      0.00
  -11   15    3     -1.03      0.00
  -10   15    3     -0.51      0.00
   -9   15    3      0.55      0.00
   -8   15    3      1.08      0.00
   -7   15    3     -1.52      0.00
   -6   15    3      0.77      0.00
   -5   15    3     -0.27      0.00
   -4   15    3      0.06      0.00
   -3   15    3      1.42      0.00
   -2   15    3     -0.77      0.00
   -1   15    3      0.33      0.00
    0   15    3      0.00      0.00
    1   15    3     -1.09      0.00
    2   15    3      0.25      0.00
    3   15    3      0.03      0.00
    4   15    3     -0.03      0.00
  -10   16    3     -1.97      0.00
   -9   16    3      1.31      0.00
   -8   16    3      0.98      0.00
   -7   16    3     -1.94      0.00
   -6   16    3      1.52      0.00
   -5   16    3     -0.96      0.00
   -4   16    3     -0.03      0.00
   -3   16    3      1.97      0.00
   -2   16    3     -0.58      0.00
   -1   16    3     -0.19      0.00
    0   16    3     -0.54      0.00
    1   16    3     -0.58      0.00
    2   16    3      0.55      0.00
    3   16    3     -0.56      0.00
   -9   17    3     -1.66      0.00
   -8   17    3      2.09      0.00
   -7   17    3     -1.23      0.00
   -6   17    3      0.40      0.00
   -5   17    3     -0.10      0.00
   -4   17    3     -0.49      0.00
   -3   17    3      1.94      0.00
   -2   17    3      0.17      0.00
   -1   17    3     -1.61      0.00
    0   17    3     -0.21      0.00
    1   17    3      0.45      0.00
   -5   18    3     -0.56      0.00
   -4   18    3      1.43      0.00
   -3   18    3     -0.47      0.00
    2  -18    4      1.67      0.00
    3  -18    4     -1.17      0.00
    4  -18    4     -0.58      0.00
    5  -18    4      1.10      0.00
    6  -18    4     -1.23      0.00
   -1  -17    4     -0.07      0.00
    0  -17    4      0.07      0.00
    1  -17    4      0.94      0.00
    2  -17    4     -0.22      0.00
    3  -17    4     -1.05      0.00
    4  -17    4     -0.15      0.00
    5  -17    4      0.91      0.00
    6  -17    4     -1.36      0.00
    7  -17    4      0.68      0.00
    8  -17    4     -0.69      0.00
    9  -17    4      0.42      0.00
   -3  -16    4      1.06      0.00
   -2  -16    4     -0.90      0.00
   -1  -16    4     -0.18      0.00
    0  -16    4      2.04      0.00
    1  -16    4     -0.49      0.00
    2  -16    4     -0.89      0.00
    3  -16    4     -0.06      0.00
    4  -16    4     -0.59      0.00
    5  -16    4      0.31      0.00
    6  -16    4      0.28      0.00
    7  -16    4     -0.80      0.00
    8  -16    4      0.37      0.00
    9  -16    4      0.24      0.00
   10  -16    4     -0.52      0.00
   -5  -15    4     -1.34      0.00
   -4  -15    4      1.49      0.00
   -3  -15    4      0.91      0.00
   -2  -15    4     -2.05      0.00
   -1  -15    4      1.72      0.00
    0  -15    4      0.57      0.00
    1  -15    4     -0.32      0.00
    2  -15    4     -0.74      0.00
    3  -15    4     -0.63      0.00
    4  -15    4      0.53      0.00
    5  -15    4     -0.94      0.00
    6  -15    4      1.67      0.00
    7  -15    4     -2.03      0.00
    8  -15    4      2.07      0.00
    9  -15    4     -1.90      0.00
   10  -15    4      1.40      0.00
   11  -15    4      0.79      0.00
   -6  -14    4     -0.83      0.00
   -5  -14    4     -0.99      0.00
   -4  -14    4      2.04      0.00
   -3  -14    4      0.19      0.00
   -2  -14    4     -1.74      0.00
   -1  -14    4      2.81      0.00
    0  -14    4     -1.48      0.00
    1  -14    4     -0.07      0.00
    2  -14    4      0.46      0.00
    3  -14    4     -1.21      0.00
    4  -14    4      0.19      0.00
    5  -14    4      0.60      0.00
    6  -14    4     -0.84      0.00
    7  -14    4      0.54      0.00
    8  -14    4     -0.16      0.00
    9  -14    4      0.73      0.00
   10  -14    4     -0.65      0.00
   11  -14    4     -0.37      0.00
   12  -14    4      1.72      0.00
   -7  -13    4      0.57      0.00
   -6  -13    4     -2.11      0.00
   -5  -13    4      1.16      0.00
   -4  -13    4      0.33      0.00
   -3  -13    4      0.56      0.00
   -2  -13    4     -0.14      0.00
   -1  -13    4      0.70      0.00
    0  -13    4     -1.02      0.00
    1  -13    4      0.10      0.00
    2  -13    4      0.40      0.00
    3  -13    4     -0.39      0.00
    4  -13    4      0.16      0.00
    5  -13    4     -0.92      0.00
    6  -13    4      0.71      0.00
    7  -13    4     -1.30      0.00
    8  -13    4      2.85      0.00
    9  -13    4     -1.52      0.00
   10  -13    4     -1.16      0.00
   11  -13    4      1.26      0.00
   12  -13    4      0.11      0.00
   13  -13    4      0.47      0.00
   -8  -12    4      0.98      0.00
   -7  -12    4     -2.77      0.00
   -6  -12    4      1.21      0.00
   -5  -12    4     -0.40      0.00
   -4  -12    4      1.05      0.00
   -3  -12    4     -0.02      0.00
   -2  -12    4      0.93      0.00
   -1  -12    4     -0.87      0.00
    0  -12    4      0.10      0.00
    1  -12    4     -0.30      0.00
    2  -12    4      0.51      0.00
    3  -12    4      0.49      0.00
    4  -12    4     -0.72      0.00
    5  -12    4     -1.61      0.00
    6  -12    4      1.01      0.00
    7  -12    4      0.24      0.00
    8  -12    4      1.06      0.00
    9  -12    4     -1.16      0.00
   10  -12    4     -0.46      0.00
   11  -12    4      0.13      0.00
   12  -12    4      1.26      0.00
   13  -12    4     -0.50      0.00
   -9  -11    4      1.71      0.00
   -8  -11    4      0.18      0.00
   -7  -11    4     -3.12      0.00
   -6  -11    4      1.61      0.00
   -5  -11    4      0.08      0.00
   -4  -11    4      0.58      0.00
   -3  -11    4      0.52      0.00
   -2  -11    4      0.12      0.00
   -1  -11    4     -0.09      0.00
    0  -11    4     -0.36      0.00
    1  -11    4      0.61      0.00
    2  -11    4     -0.07      0.00
    3  -11    4     -0.18      0.00
    4  -11    4     -0.26      0.00
    5  -11    4     -1.78      0.00
    6  -11    4      1.12      0.00
    7  -11    4      0.64      0.00
    8  -11    4     -0.09      0.00
    9  -11    4     -0.02      0.00
   10  -11    4     -1.16      0.00
   11  -11    4      0.99      0.00
   12  -11    4     -0.33      0.00
   13  -11    4      1.74      0.00
   14  -11    4     -1.85      0.00
  -10  -10    4      0.37      0.00
   -9  -10    4     -0.40      0.00
   -8  -10    4      0.27      0.00
   -7  -10    4     -1.54      0.00
   -6  -10    4      0.25      0.00
   -5  -10    4      0.21      0.00
   -4  -10    4      1.61      0.00
   -3  -10    4     -0.26      0.00
   -2  -10    4      0.52      0.00
   -1  -10    4     -0.06      0.00
    0  -10    4     -0.33      0.00
    1  -10    4      0.86      0.00
    2  -10    4     -0.41      0.00
    3  -10    4     -1.21      0.00
    4  -10    4     -0.06      0.00
    5  -10    4     -0.49      0.00
    6  -10    4      0.69      0.00
    7  -10    4     -0.55      0.00
    8  -10    4      0.91      0.00
    9  -10    4      0.18      0.00
   10  -10    4     -2.31      0.00
   11  -10    4      2.66      0.00
   12  -10    4     -1.39      0.00
   13  -10    4      2.35      0.00
   14  -10    4     -3.17      0.00
  -11   -9    4     -0.93      0.00
  -10   -9    4     -0.44      0.00
   -9   -9    4      1.17      0.00
   -8   -9    4     -0.67      0.00
   -7   -9    4     -1.25      0.00
   -6   -9    4      0.51      0.00
   -5   -9    4      0.15      0.00
   -4   -9    4      0.75      0.00
   -3   -9    4      1.86      0.00
   -2   -9    4     -0.21      0.00
   -1   -9    4     -1.45      0.00
    0   -9    4      1.86      0.00
    1   -9    4     -1.02      0.00
    2   -9    4     -0.17      0.00
    3   -9    4     -0.57      0.00
    4   -9    4     -2.30      0.00
    5   -9    4      2.31      0.00
    6   -9    4     -0.53      0.00
    7   -9    4      0.02      0.00
    8   -9    4     -0.81      0.00
    9   -9    4      1.83      0.00
   10   -9    4     -2.42      0.00
   11   -9    4      2.83      0.00
   12   -9    4     -1.68      0.00
   13   -9    4      1.33      0.00
   14   -9    4     -2.07      0.00
  -11   -8    4     -2.70      0.00
  -10   -8    4     -0.69      0.00
   -9   -8    4      1.58      0.00
   -8   -8    4      0.70      0.00
   -7   -8    4     -3.05      0.00
   -6   -8    4      0.99      0.00
   -5   -8    4      1.45      0.00
   -4   -8    4     -0.49      0.00
   -3   -8    4      3.02      0.00
   -2   -8    4     -1.52      0.00
   -1   -8    4      0.89      0.00
    0   -8    4     -2.30      0.00
    1   -8    4      2.54      0.00
    2   -8    4     -1.11      0.00
    3   -8    4     -3.26      0.00
    4   -8    4      0.62      0.00
    5   -8    4      1.12      0.00
    6   -8    4      0.30      0.00
    7   -8    4     -1.31      0.00
    8   -8    4      0.61      0.00
    9   -8    4      0.23      0.00
   10   -8    4      0.58      0.00
   11   -8    4     -0.48      0.00
   12   -8    4      1.09      0.00
   13   -8    4     -2.38      0.00
   14   -8    4      2.03      0.00
   15   -8    4     -1.41      0.00
  -12   -7    4     -2.10      0.00
  -11   -7    4     -0.43      0.00
  -10   -7    4      0.32      0.00
   -9   -7    4      0.15      0.00
   -8   -7    4      0.10      0.00
   -7   -7    4     -1.50      0.00
   -6   -7    4      1.37      0.00
   -5   -7    4     -0.17      0.00
   -4   -7    4      2.59      0.00
   -3   -7    4     -1.13      0.00
   -2   -7    4      1.67      0.00
   -1   -7    4     -1.36      0.00
    0   -7    4      0.51      0.00
    1   -7    4     -1.44      0.00
    2   -7    4      1.89      0.00
    3   -7    4     -6.80      0.00
    4   -7    4      4.36      0.00
    5   -7    4     -1.02      0.00
    6   -7    4      0.36      0.00
    7   -7    4     -0.46      0.00
    8   -7    4      0.76      0.00
    9   -7    4      0.27      0.00
   10   -7    4      0.14      0.00
   11   -7    4     -0.32      0.00
   12   -7    4      0.91      0.00
   13   -7    4     -2.33      0.00
   14   -7    4      2.03      0.00
   15   -7    4     -1.01      0.00
  -13   -6    4      2.26      0.00
  -12   -6    4     -2.56      0.00
  -11   -6    4      0.79      0.00
  -10   -6    4     -0.31      0.00
   -9   -6    4      0.46      0.00
   -8   -6    4     -1.54      0.00
   -7   -6    4      0.82      0.00
   -6   -6    4      0.94      0.00
   -5   -6    4      1.14      0.00
   -4   -6    4     -0.63      0.00
   -3   -6    4      1.48      0.00
   -2   -6    4     -2.03      0.00
   -1   -6    4      4.77      0.00
    0   -6    4     -4.31      0.00
    1   -6    4      0.06      0.00
    2   -6    4     -2.63      0.00
    3   -6    4      0.35      0.00
    4   -6    4     -1.79      0.00
    5   -6    4      2.51      0.00
    6   -6    4     -0.36      0.00
    7   -6    4     -0.06      0.00
    8   -6    4      0.70      0.00
    9   -6    4      0.42      0.00
   10   -6    4      0.05      0.00
   11   -6    4     -0.29      0.00
   12   -6    4     -0.52      0.00
   13   -6    4     -0.31      0.00
   14   -6    4      1.42      0.00
   15   -6    4     -1.06      0.00
  -13   -5    4     -0.14      0.00
  -12   -5    4      0.43      0.00
  -11   -5    4     -1.06      0.00
  -10   -5    4      0.08      0.00
   -9   -5    4      0.03      0.00
   -8   -5    4     -0.78      0.00
   -7   -5    4      0.45      0.00
   -6   -5    4      3.05      0.00
   -5   -5    4     -2.58      0.00
   -4   -5    4      3.94      0.00
   -3   -5    4     -4.85      0.00
   -2   -5    4      2.35      0.00
   -1   -5    4      6.72      0.00
    0   -5    4     -8.67      0.00
    1   -5    4     -0.82      0.00
    2   -5    4      0.50      0.00
    3   -5    4     -6.16      0.00
    4   -5    4      8.39      0.00
    5   -5    4     -4.66      0.00
    6   -5    4      3.37      0.00
    7   -5    4     -1.31      0.00
    8   -5    4      1.04      0.00
    9   -5    4      0.44      0.00
   10   -5    4      0.85      0.00
   11   -5    4     -2.75      0.00
   12   -5    4      0.61      0.00
   13   -5    4      1.65      0.00
   14   -5    4     -0.92      0.00
   15   -5    4     -0.46      0.00
  -13   -4    4      1.18      0.00
  -12   -4    4     -0.88      0.00
  -11   -4    4     -1.16      0.00
  -10   -4    4      1.25      0.00
   -9   -4    4     -1.60      0.00
   -8   -4    4      1.13      0.00
   -7   -4    4      1.27      0.00
   -6   -4    4     -2.90      0.00
   -5   -4    4      6.91      0.00
   -4   -4    4     -3.88      0.00
   -3   -4    4     -3.87      0.00
   -2   -4    4      8.53      0.00
   -1   -4    4     -3.74      0.00
    0   -4    4      3.15      0.00
    1   -4    4    -12.11      0.00
    2   -4    4     -0.71      0.00
    3   -4    4      5.84      0.00
    4   -4    4     -1.26      0.00
    5   -4    4      3.60      0.00
    6   -4    4     -3.30      0.00
    7   -4    4      2.05      0.00
    8   -4    4      0.85      0.00
    9   -4    4      0.43      0.00
   10   -4    4     -1.88      0.00
   11   -4    4      0.14      0.00
   12   -4    4      0.65      0.00
   13   -4    4      0.45      0.00
   14   -4    4     -1.68      0.00
   15   -4    4      1.48      0.00
  -14   -3    4      2.07      0.00
  -13   -3    4     -1.45      0.00
  -12   -3    4     -0.21      0.00
  -11   -3    4      0.92      0.00
  -10   -3    4     -2.44      0.00
   -9   -3    4      2.98      0.00
   -8   -3    4     -1.03      0.00
   -7   -3    4     -1.20      0.00
   -6   -3    4      1.70      0.00
   -5   -3    4      3.21      0.00
   -4   -3    4     -1.28      0.00
   -3   -3    4     -4.60      0.00
   -2   -3    4      5.70      0.00
   -1   -3    4      0.08      0.00
    0   -3    4      1.23      0.00
    1   -3    4    -18.47      0.00
    2   -3    4      5.11      0.00
    3   -3    4      8.14      0.00
    4   -3    4     -0.97      0.00
    5   -3    4      1.56      0.00
    6   -3    4     -2.58      0.00
    7   -3    4      2.96      0.00
    8   -3    4     -0.55      0.00
    9   -3    4     -0.99      0.00
   10   -3    4      0.35      0.00
   11   -3    4      0.05      0.00
   12   -3    4      0.68      0.00
   13   -3    4     -2.16      0.00
   14   -3    4      1.36      0.00
   15   -3    4      0.18      0.00
  -14   -2    4     -0.36      0.00
  -13   -2    4     -2.65      0.00
  -12   -2    4      3.64      0.00
  -11   -2    4     -3.70      0.00
  -10   -2    4      3.40      0.00
   -9   -2    4     -1.67      0.00
   -8   -2    4     -0.46      0.00
   -7   -2    4      0.97      0.00
   -6   -2    4      0.28      0.00
   -5   -2    4      2.74      0.00
   -4   -2    4     -0.21      0.00
   -3   -2    4     -3.54      0.00
   -2   -2    4     -0.95      0.00
   -1   -2    4     13.20      0.00
    0   -2    4    -24.71      0.00
    1   -2    4      9.95      0.00
    2   -2    4    -10.16      0.00
    3   -2    4     10.49      0.00
    4   -2    4     10.16      0.00
    5   -2    4    -11.91      0.00
    6   -2    4      6.09      0.00
    7   -2    4     -3.22      0.00
    8   -2    4      1.83      0.00
    9   -2    4     -0.72      0.00
   10   -2    4      0.06      0.00
   11   -2    4     -0.15      0.00
   12   -2    4      0.50      0.00
   13   -2    4     -1.12      0.00
   14   -2    4     -1.09      0.00
   15   -2    4      3.03      0.00
  -14   -1    4     -0.45      0.00
  -13   -1    4     -1.20      0.00
  -12   -1    4      1.60      0.00
  -11   -1    4      0.23      0.00
  -10   -1    4     -1.12      0.00
   -9   -1    4      0.72      0.00
   -8   -1    4     -0.16      0.00
   -7   -1    4     -0.98      0.00
   -6   -1    4      4.18      0.00
   -5   -1    4     -2.21      0.00
   -4   -1    4      4.66      0.00
   -3   -1    4    -16.21      0.00
   -2   -1    4     33.65      0.00
   -1   -1    4    -52.48      0.00
    0   -1    4     44.68      0.00
    1   -1    4    -28.44      0.00
    2   -1    4     -6.79      0.00
    3   -1    4     33.09      0.00
    4   -1    4    -13.97      0.00
    5   -1    4      3.08      0.00
    6   -1    4     -5.36      0.00
    7   -1    4      4.32      0.00
    8   -1    4     -1.95      0.00
    9   -1    4      0.85      0.00
   10   -1    4     -0.76      0.00
   11   -1    4      0.40      0.00
   12   -1    4     -0.26      0.00
   13   -1    4     -0.50      0.00
   14   -1    4     -0.26      0.00
  -15    0    4     -4.27      0.00
  -14    0    4      2.07      0.00
  -13    0    4     -0.92      0.00
  -12    0    4      1.94      0.00
  -11    0    4     -1.77      0.00
  -10    0    4      0.16      0.00
   -9    0    4      1.74      0.00
   -8    0    4     -3.45      0.00
   -7    0    4      4.24      0.00
   -6    0    4      0.74      0.00
   -5    0    4     -3.18      0.00
   -4    0    4      0.49      0.00
   -3    0    4      9.94      0.00
   -2    0    4    -28.75      0.00
   -1    0    4     29.60      0.00
    0    0    4    -25.76      0.00
    1    0    4     10.95      0.00
    2    0    4     -9.66      0.00
    3    0    4     27.52      0.00
    4    0    4    -14.97      0.00
    5    0    4      0.24      0.00
    6    0    4      2.55      0.00
    7    0    4     -3.70      0.00
    8    0    4      2.63      0.00
    9    0    4     -1.31      0.00
   10    0    4      0.66      0.00
   11    0    4     -1.06      0.00
   12    0    4      0.38      0.00
   13    0    4      0.75      0.00
   14    0    4     -1.76      0.00
  -15    1    4     -3.01      0.00
  -14    1    4      2.25      0.00
  -13    1    4     -0.75      0.00
  -12    1    4      1.17      0.00
  -11    1    4     -0.88      0.00
  -10    1    4      0.00      0.00
   -9    1    4     -0.60      0.00
   -8    1    4      2.82      0.00
   -7    1    4     -4.14      0.00
   -6    1    4      7.77      0.00
   -5    1    4     -9.06      0.00
   -4    1    4      8.31      0.00
   -3    1    4     -6.14      0.00
   -2    1    4    -15.75      0.00
   -1    1    4     34.91      0.00
    0    1    4    -44.31      0.00
    1    1    4     23.56      0.00
    2    1    4     10.89      0.00
    3    1    4    -10.80      0.00
    4    1    4      7.63      0.00
    5    1    4     -7.17      0.00
    6    1    4      5.00      0.00
    7    1    4     -4.33      0.00
    8    1    4      1.77      0.00
    9    1    4     -0.93      0.00
   10    1    4      0.74      0.00
   11    1    4     -0.50      0.00
   12    1    4     -0.10      0.00
   13    1    4      0.58      0.00
   14    1    4     -0.71      0.00
  -15    2    4     -1.06      0.00
  -14    2    4      0.08      0.00
  -13    2    4      1.53      0.00
  -12    2    4     -1.38      0.00
  -11    2    4      1.18      0.00
  -10    2    4      0.02      0.00
   -9    2    4     -1.74      0.00
   -8    2    4      1.56      0.00
   -7    2    4      0.38      0.00
   -6    2    4      0.42      0.00
   -5    2    4      3.03      0.00
   -4    2    4    -13.11      0.00
   -3    2    4     12.19      0.00
   -2    2    4    -12.73      0.00
   -1    2    4     10.53      0.00
    0    2    4    -15.52      0.00
    1    2    4     17.25      0.00
    2    2    4      3.35      0.00
    3    2    4     -8.44      0.00
    4    2    4      4.89      0.00
    5    2    4     -2.08      0.00
    6    2    4      0.01      0.00
    7    2    4     -0.24      0.00
    8    2    4     -0.80      0.00
    9    2    4     -0.58      0.00
   10    2    4      0.99      0.00
   11    2    4      0.60      0.00
   12    2    4     -1.35      0.00
   13    2    4      0.91      0.00
   14    2    4     -0.05      0.00
  -15    3    4     -2.30      0.00
  -14    3    4      2.66      0.00
  -13    3    4     -2.16      0.00
  -12    3    4      1.90      0.00
  -11    3    4      0.36      0.00
  -10    3    4     -0.65      0.00
   -9    3    4     -2.58      0.00
   -8    3    4      2.18      0.00
   -7    3    4      4.18      0.00
   -6    3    4     -6.41      0.00
   -5    3    4      1.30      0.00
   -4    3    4      0.42      0.00
   -3    3    4     -3.03      0.00
   -2    3    4     -5.80      0.00
   -1    3    4     13.79      0.00
    0    3    4    -17.66      0.00
    1    3    4     23.47      0.00
    2    3    4     -9.66      0.00
    3    3    4     -0.55      0.00
    4    3    4      1.22      0.00
    5    3    4     -0.40      0.00
    6    3    4      0.86      0.00
    7    3    4     -1.88      0.00
    8    3    4     -0.86      0.00
    9    3    4      0.81      0.00
   10    3    4      0.96      0.00
   11    3    4     -1.45      0.00
   12    3    4      1.44      0.00
   13    3    4     -0.17      0.00
  -15    4    4     -1.70      0.00
  -14    4    4      0.66      0.00
  -13    4    4      0.02      0.00
  -12    4    4      1.07      0.00
  -11    4    4      0.19      0.00
  -10    4    4     -2.38      0.00
   -9    4    4      1.03      0.00
   -8    4    4      0.06      0.00
   -7    4    4      3.75      0.00
   -6    4    4     -8.22      0.00
   -5    4    4      4.33      0.00
   -4    4    4      2.98      0.00
   -3    4    4    -12.11      0.00
   -2    4    4      8.13      0.00
   -1    4    4     -0.65      0.00
    0    4    4      2.31      0.00
    1    4    4      0.97      0.00
    2    4    4      4.90      0.00
    3    4    4    -10.07      0.00
    4    4    4      7.28      0.00
    5    4    4     -3.21      0.00
    6    4    4      1.76      0.00
    7    4    4     -1.51      0.00
    8    4    4     -1.92      0.00
    9    4    4      1.95      0.00
   10    4    4      0.20      0.00
   11    4    4     -0.60      0.00
   12    4    4      1.09      0.00
   13    4    4     -0.71      0.00
  -15    5    4     -1.64      0.00
  -14    5    4      0.67      0.00
  -13    5    4      0.23      0.00
  -12    5    4      0.08      0.00
  -11    5    4     -0.08      0.00
  -10    5    4     -0.87      0.00
   -9    5    4      0.65      0.00
   -8    5    4      1.06      0.00
   -7    5    4     -2.76      0.00
   -6    5    4      1.29      0.00
   -5    5    4      0.92      0.00
   -4    5    4     -4.51      0.00
   -3    5    4      4.94      0.00
   -2    5    4     -6.13      0.00
   -1    5    4      3.38      0.00
    0    5    4      7.19      0.00
    1    5    4     -5.06      0.00
    2    5    4      2.24      0.00
    3    5    4     -1.85      0.00
    4    5    4     -1.04      0.00
    5    5    4      2.57      0.00
    6    5    4     -0.37      0.00
    7    5    4     -2.25      0.00
    8    5    4      0.17      0.00
    9    5    4      0.25      0.00
   10    5    4      1.15      0.00
   11    5    4     -1.26      0.00
   12    5    4      2.41      0.00
  -15    6    4      0.51      0.00
  -14    6    4     -1.08      0.00
  -13    6    4      0.11      0.00
  -12    6    4      0.80      0.00
  -11    6    4     -1.40      0.00
  -10    6    4      1.40      0.00
   -9    6    4     -0.13      0.00
   -8    6    4     -0.71      0.00
   -7    6    4     -0.70      0.00
   -6    6    4      1.77      0.00
   -5    6    4     -3.53      0.00
   -4    6    4      5.36      0.00
   -3    6    4     -4.81      0.00
   -2    6    4     -1.51      0.00
   -1    6    4      3.31      0.00
    0    6    4      6.29      0.00
    1    6    4     -5.62      0.00
    2    6    4      1.37      0.00
    3    6    4     -0.35      0.00
    4    6    4     -1.91      0.00
    5    6    4      3.60      0.00
    6    6    4     -2.12      0.00
    7    6    4     -0.21      0.00
    8    6    4     -1.00      0.00
    9    6    4      0.57      0.00
   10    6    4      0.87      0.00
   11    6    4      0.14      0.00
   12    6    4     -0.34      0.00
  -15    7    4     -1.21      0.00
  -14    7    4     -0.28      0.00
  -13    7    4      0.40      0.00
  -12    7    4     -0.87      0.00
  -11    7    4      0.96      0.00
  -10    7    4     -0.05      0.00
   -9    7    4      1.25      0.00
   -8    7    4     -2.06      0.00
   -7    7    4      0.07      0.00
   -6    7    4      0.70      0.00
   -5    7    4      0.13      0.00
   -4    7    4      1.71      0.00
   -3    7    4     -4.77      0.00
   -2    7    4      0.22      0.00
   -1    7    4      2.91      0.00
    0    7    4      6.46      0.00
    1    7    4     -6.85      0.00
    2    7    4      0.08      0.00
    3    7    4      2.20      0.00
    4    7    4     -1.67      0.00
    5    7    4      0.52      0.00
    6    7    4      1.24      0.00
    7    7    4     -2.43      0.00
    8    7    4      0.12      0.00
    9    7    4      0.92      0.00
   10    7    4     -0.39      0.00
   11    7    4      1.21      0.00
  -15    8    4     -1.77      0.00
  -14    8    4      2.43      0.00
  -13    8    4     -3.29      0.00
  -12    8    4      1.94      0.00
  -11    8    4      0.23      0.00
  -10    8    4      0.48      0.00
   -9    8    4      0.32      0.00
   -8    8    4     -1.18      0.00
   -7    8    4     -1.08      0.00
   -6    8    4      3.40      0.00
   -5    8    4     -2.51      0.00
   -4    8    4      1.26      0.00
   -3    8    4     -4.50      0.00
   -2    8    4      2.64      0.00
   -1    8    4      2.90      0.00
    0    8    4      2.78      0.00
    1    8    4     -4.64      0.00
    2    8    4     -0.03      0.00
    3    8    4      0.73      0.00
    4    8    4      1.24      0.00
    5    8    4     -1.14      0.00
    6    8    4     -0.44      0.00
    7    8    4      0.67      0.00
    8    8    4     -1.35      0.00
    9    8    4      0.81      0.00
   10    8    4      0.61      0.00
   11    8    4     -0.76      0.00
  -15    9    4     -0.60      0.00
  -14    9    4      0.51      0.00
  -13    9    4     -1.65      0.00
  -12    9    4      2.18      0.00
  -11    9    4     -0.77      0.00
  -10    9    4      1.82      0.00
   -9    9    4     -1.54      0.00
   -8    9    4     -0.27      0.00
   -7    9    4      1.07      0.00
   -6    9    4     -0.64      0.00
   -5    9    4     -0.45      0.00
   -4    9    4     -0.63      0.00
   -3    9    4     -2.37      0.00
   -2    9    4      4.28      0.00
   -1    9    4      2.04      0.00
    0    9    4     -2.31      0.00
    1    9    4      1.25      0.00
    2    9    4     -3.35      0.00
    3    9    4      2.72      0.00
    4    9    4      0.15      0.00
    5    9    4     -1.06      0.00
    6    9    4     -0.51      0.00
    7    9    4      1.00      0.00
    8    9    4     -1.02      0.00
    9    9    4      0.70      0.00
   10    9    4     -0.61      0.00
  -14   10    4      0.02      0.00
  -13   10    4     -0.07      0.00
  -12   10    4      0.04      0.00
  -11   10    4      2.38      0.00
  -10   10    4     -1.72      0.00
   -9   10    4     -0.11      0.00
   -8   10    4      0.75      0.00
   -7   10    4      0.14      0.00
   -6   10    4     -2.27      0.00
   -5   10    4      0.46      0.00
   -4   10    4     -0.21      0.00
   -3   10    4     -0.61      0.00
   -2   10    4      4.21      0.00
   -1   10    4     -1.30      0.00
    0   10    4     -0.25      0.00
    1   10    4     -0.21      0.00
    2   10    4     -0.69      0.00
    3   10    4      0.78      0.00
    4   10    4      0.34      0.00
    5   10    4     -0.68      0.00
    6   10    4     -1.31      0.00
    7   10    4      2.41      0.00
    8   10    4     -1.19      0.00
    9   10    4     -0.96      0.00
  -14   11    4      0.58      0.00
  -13   11    4     -1.37      0.00
  -12   11    4      2.22      0.00
  -11   11    4      0.30      0.00
  -10   11    4     -1.25      0.00
   -9   11    4      0.42      0.00
   -8   11    4      0.35      0.00
   -7   11    4     -0.99      0.00
   -6   11    4     -1.34      0.00
   -5   11    4      0.16      0.00
   -4   11    4      0.84      0.00
   -3   11    4      1.63      0.00
   -2   11    4     -0.82      0.00
   -1   11    4      1.17      0.00
    0   11    4     -0.37      0.00
    1   11    4     -1.51      0.00
    2   11    4      2.53      0.00
    3   11    4     -2.84      0.00
    4   11    4      1.92      0.00
    5   11    4     -0.04      0.00
    6   11    4     -2.74      0.00
    7   11    4      3.53      0.00
    8   11    4     -1.40      0.00
    9   11    4     -1.18      0.00
  -14   12    4      0.88      0.00
  -13   12    4     -1.85      0.00
  -12   12    4      2.10      0.00
  -11   12    4      0.96      0.00
  -10   12    4     -2.51      0.00
   -9   12    4      1.09      0.00
   -8   12    4      0.44      0.00
   -7   12    4     -2.27      0.00
   -6   12    4     -0.03      0.00
   -5   12    4      0.83      0.00
   -4   12    4      1.40      0.00
   -3   12    4     -0.54      0.00
   -2   12    4      0.41      0.00
   -1   12    4     -0.14      0.00
    0   12    4      0.41      0.00
    1   12    4      0.69      0.00
    2   12    4     -2.51      0.00
    3   12    4      2.44      0.00
    4   12    4     -1.65      0.00
    5   12    4      1.10      0.00
    6   12    4     -1.79      0.00
    7   12    4      1.98      0.00
    8   12    4     -0.93      0.00
  -13   13    4      0.67      0.00
  -12   13    4      0.06      0.00
  -11   13    4      0.39      0.00
  -10   13    4     -0.52      0.00
   -9   13    4     -0.34      0.00
   -8   13    4     -0.33      0.00
   -7   13    4      0.25      0.00
   -6   13    4     -1.43      0.00
   -5   13    4      1.94      0.00
   -4   13    4      0.29      0.00
   -3   13    4     -0.32      0.00
   -2   13    4      0.16      0.00
   -1   13    4     -0.10      0.00
    0   13    4      1.06      0.00
    1   13    4     -0.12      0.00
    2   13    4     -1.52      0.00
    3   13    4      0.37      0.00
    4   13    4      1.13      0.00
    5   13    4     -1.43      0.00
    6   13    4      0.54      0.00
    7   13    4     -0.39      0.00
  -12   14    4     -0.01      0.00
  -11   14    4      0.10      0.00
  -10   14    4     -0.67      0.00
   -9   14    4     -0.03      0.00
   -8   14    4      0.54      0.00
   -7   14    4     -0.98      0.00
   -6   14    4      0.47      0.00
   -5   14    4      0.09      0.00
   -4   14    4      0.63      0.00
   -3   14    4     -0.01      0.00
   -2   14    4     -0.16      0.00
   -1   14    4      0.51      0.00
    0   14    4      0.51      0.00
    1   14    4     -0.48      0.00
    2   14    4     -0.74      0.00
    3   14    4      0.10      0.00
    4   14    4      0.33      0.00
    5   14    4     -0.12      0.00
  -11   15    4     -1.04      0.00
  -10   15    4     -0.13      0.00
   -9   15    4      0.61      0.00
   -8   15    4      0.11      0.00
   -7   15    4     -0.40      0.00
   -6   15    4     -0.42      0.00
   -5   15    4      0.83      0.00
   -4   15    4     -0.54      0.00
   -3   15    4      1.26      0.00
   -2   15    4     -0.67      0.00
   -1   15    4      0.63      0.00
    0   15    4      0.38      0.00
    1   15    4     -0.96      0.00
    2   15    4     -0.50      0.00
    3   15    4      0.78      0.00
    4   15    4     -0.39      0.00
  -10   16    4     -1.21      0.00
   -9   16    4     -0.03      0.00
   -8   16    4      1.90      0.00
   -7   16    4     -2.17      0.00
   -6   16    4      1.03      0.00
   -5   16    4     -0.46      0.00
   -4   16    4     -0.06      0.00
   -3   16    4      1.71      0.00
   -2   16    4     -1.21      0.00
   -1   16    4      1.46      0.00
    0   16    4     -1.36      0.00
    1   16    4     -0.03      0.00
    2   16    4      0.32      0.00
   -8   17    4      2.34      0.00
   -7   17    4     -1.64      0.00
   -6   17    4      0.65      0.00
   -5   17    4     -0.66      0.00
   -4   17    4     -0.02      0.00
   -3   17    4      2.19      0.00
   -2   17    4     -0.97      0.00
   -1   17    4     -0.30      0.00
    0   17    4      0.03      0.00
    2  -18    5      1.18      0.00
    3  -18    5     -0.14      0.00
    4  -18    5     -0.74      0.00
    5  -18    5      0.08      0.00
    6  -18    5      0.32      0.00
   -1  -17    5      0.15      0.00
    0  -17    5     -0.32      0.00
    1  -17    5      0.95      0.00
    2  -17    5      0.02      0.00
    3  -17    5     -0.36      0.00
    4  -17    5     -0.60      0.00
    5  -17    5      0.26      0.00
    6  -17    5      0.11      0.00
    7  -17    5     -0.62      0.00
    8  -17    5     -0.26      0.00
   -3  -16    5     -1.46      0.00
   -2  -16    5      1.42      0.00
   -1  -16    5     -0.65      0.00
    0  -16    5      1.37      0.00
    1  -16    5     -0.02      0.00
    2  -16    5      0.10      0.00
    3  -16    5     -1.11      0.00
    4  -16    5     -0.35      0.00
    5  -16    5      1.18      0.00
    6  -16    5     -1.24      0.00
    7  -16    5      0.18      0.00
    8  -16    5      0.40      0.00
    9  -16    5     -0.71      0.00
   10  -16    5      0.07      0.00
   -5  -15    5     -0.22      0.00
   -4  -15    5      0.26      0.00
   -3  -15    5      0.85      0.00
   -2  -15    5     -1.58      0.00
   -1  -15    5      1.51      0.00
    0  -15    5      1.16      0.00
    1  -15    5     -0.71      0.00
    2  -15    5     -0.16      0.00
    3  -15    5     -1.04      0.00
    4  -15    5      0.45      0.00
    5  -15    5     -0.56      0.00
    6  -15    5      1.36      0.00
    7  -15    5     -1.99      0.00
    8  -15    5      1.82      0.00
    9  -15    5     -1.29      0.00
   10  -15    5      0.04      0.00
   11  -15    5      2.25      0.00
   -6  -14    5      0.37      0.00
   -5  -14    5     -1.79      0.00
   -4  -14    5      2.31      0.00
   -3  -14    5     -0.69      0.00
   -2  -14    5     -1.29      0.00
   -1  -14    5      2.88      0.00
    0  -14    5     -0.46      0.00
    1  -14    5     -0.70      0.00
    2  -14    5      0.14      0.00
    3  -14    5     -0.69      0.00
    4  -14    5     -0.33      0.00
    5  -14    5      1.07      0.00
    6  -14    5     -0.76      0.00
    7  -14    5      0.13      0.00
    8  -14    5      0.18      0.00
    9  -14    5     -0.16      0.00
   10  -14    5      0.57      0.00
   11  -14    5     -1.02      0.00
   12  -14    5      1.78      0.00
   -7  -13    5      1.48      0.00
   -6  -13    5     -2.30      0.00
   -5  -13    5      0.95      0.00
   -4  -13    5      0.52      0.00
   -3  -13    5     -0.53      0.00
   -2  -13    5      0.10      0.00
   -1  -13    5      1.79      0.00
    0  -13    5     -0.65      0.00
    1  -13    5     -0.81      0.00
    2  -13    5      0.58      0.00
    3  -13    5     -0.63      0.00
    4  -13    5      0.50      0.00
    5  -13    5     -0.47      0.00
    6  -13    5      0.11      0.00
    7  -13    5     -0.43      0.00
    8  -13    5      1.26      0.00
    9  -13    5     -0.54      0.00
   10  -13    5     -0.75      0.00
   11  -13    5      0.38      0.00
   12  -13    5      0.51      0.00
   13  -13    5      0.30      0.00
   -8  -12    5      0.28      0.00
   -7  -12    5     -0.07      0.00
   -6  -12    5     -0.79      0.00
   -5  -12    5     -0.01      0.00
   -4  -12    5      0.82      0.00
   -3  -12    5     -0.51      0.00
   -2  -12    5      0.83      0.00
   -1  -12    5      0.69      0.00
    0  -12    5     -0.72      0.00
    1  -12    5      0.24      0.00
    2  -12    5     -0.56      0.00
    3  -12    5      1.04      0.00
    4  -12    5     -0.37      0.00
    5  -12    5     -1.06      0.00
    6  -12    5     -0.14      0.00
    7  -12    5      1.48      0.00
    8  -12    5     -0.85      0.00
    9  -12    5      0.75      0.00
   10  -12    5     -1.62      0.00
   11  -12    5      0.40      0.00
   12  -12    5      1.28      0.00
   13  -12    5     -0.75      0.00
   -9  -11    5      1.27      0.00
   -8  -11    5      0.14      0.00
   -7  -11    5     -2.51      0.00
   -6  -11    5      2.48      0.00
   -5  -11    5     -2.48      0.00
   -4  -11    5      2.00      0.00
   -3  -11    5     -0.11      0.00
   -2  -11    5      0.00      0.00
   -1  -11    5      1.00      0.00
    0  -11    5     -0.66      0.00
    1  -11    5      0.56      0.00
    2  -11    5     -0.33      0.00
    3  -11    5      0.27      0.00
    4  -11    5      0.34      0.00
    5  -11    5     -2.14      0.00
    6  -11    5      0.57      0.00
    7  -11    5      1.25      0.00
    8  -11    5     -0.53      0.00
    9  -11    5      0.08      0.00
   10  -11    5     -1.34      0.00
   11  -11    5      0.80      0.00
   12  -11    5      0.20      0.00
   13  -11    5      1.15      0.00
   14  -11    5     -0.98      0.00
  -10  -10    5     -1.72      0.00
   -9  -10    5      1.48      0.00
   -8  -10    5     -0.78      0.00
   -7  -10    5     -1.41      0.00
   -6  -10    5      1.12      0.00
   -5  -10    5     -1.21      0.00
   -4  -10    5      1.43      0.00
   -3  -10    5      0.10      0.00
   -2  -10    5      0.72      0.00
   -1  -10    5     -0.08      0.00
    0  -10    5      0.20      0.00
    1  -10    5      0.58      0.00
    2  -10    5     -0.19      0.00
    3  -10    5     -0.85      0.00
    4  -10    5      0.67      0.00
    5  -10    5     -1.69      0.00
    6  -10    5     -0.07      0.00
    7  -10    5      1.46      0.00
    8  -10    5     -0.12      0.00
    9  -10    5     -0.74      0.00
   10  -10    5     -1.00      0.00
   11  -10    5      1.08      0.00
   12  -10    5      0.57      0.00
   13  -10    5      0.57      0.00
   14  -10    5     -0.94      0.00
  -11   -9    5      0.29      0.00
  -10   -9    5      0.24      0.00
   -9   -9    5     -0.10      0.00
   -8   -9    5     -0.98      0.00
   -7   -9    5      0.59      0.00
   -6   -9    5     -1.12      0.00
   -5   -9    5     -0.70      0.00
   -4   -9    5      2.53      0.00
   -3   -9    5     -0.39      0.00
   -2   -9    5      1.62      0.00
   -1   -9    5     -1.12      0.00
    0   -9    5      0.44      0.00
    1   -9    5      1.25      0.00
    2   -9    5     -1.52      0.00
    3   -9    5      0.85      0.00
    4   -9    5     -2.41      0.00
    5   -9    5      0.53      0.00
    6   -9    5     -0.15      0.00
    7   -9    5      1.14      0.00
    8   -9    5     -1.00      0.00
    9   -9    5      0.35      0.00
   10   -9    5     -1.75      0.00
   11   -9    5      2.96      0.00
   12   -9    5     -1.83      0.00
   13   -9    5      2.24      0.00
   14   -9    5     -2.29      0.00
  -11   -8    5     -2.24      0.00
  -10   -8    5     -0.45      0.00
   -9   -8    5      0.86      0.00
   -8   -8    5      1.09      0.00
   -7   -8    5     -2.91      0.00
   -6   -8    5      0.15      0.00
   -5   -8    5      1.10      0.00
   -4   -8    5     -0.30      0.00
   -3   -8    5      3.06      0.00
   -2   -8    5     -0.14      0.00
   -1   -8    5     -0.95      0.00
    0   -8    5     -0.37      0.00
    1   -8    5      2.09      0.00
    2   -8    5     -0.81      0.00
    3   -8    5     -1.48      0.00
    4   -8    5     -1.82      0.00
    5   -8    5      1.02      0.00
    6   -8    5      0.03      0.00
    7   -8    5      0.77      0.00
    8   -8    5     -1.41      0.00
    9   -8    5      0.76      0.00
   10   -8    5     -0.14      0.00
   11   -8    5      0.09      0.00
   12   -8    5      1.25      0.00
   13   -8    5     -0.92      0.00
   14   -8    5      0.18      0.00
  -12   -7    5     -0.75      0.00
  -11   -7    5     -0.04      0.00
  -10   -7    5     -0.85      0.00
   -9   -7    5      0.28      0.00
   -8   -7    5      1.94      0.00
   -7   -7    5     -3.82      0.00
   -6   -7    5      1.54      0.00
   -5   -7    5     -0.82      0.00
   -4   -7    5      3.36      0.00
   -3   -7    5     -0.01      0.00
   -2   -7    5      0.31      0.00
   -1   -7    5      0.37      0.00
    0   -7    5     -1.56      0.00
    1   -7    5      1.16      0.00
    2   -7    5      2.60      0.00
    3   -7    5     -7.59      0.00
    4   -7    5      3.31      0.00
    5   -7    5     -2.46      0.00
    6   -7    5      2.38      0.00
    7   -7    5     -0.27      0.00
    8   -7    5     -0.83      0.00
    9   -7    5      0.78      0.00
   10   -7    5     -0.05      0.00
   11   -7    5     -0.26      0.00
   12   -7    5      2.01      0.00
   13   -7    5     -2.35      0.00
   14   -7    5      0.61      0.00
   15   -7    5     -0.18      0.00
  -13   -6    5      3.95      0.00
  -12   -6    5     -3.00      0.00
  -11   -6    5      1.04      0.00
  -10   -6    5     -0.62      0.00
   -9   -6    5      0.49      0.00
   -8   -6    5     -0.51      0.00
   -7   -6    5     -0.60      0.00
   -6   -6    5     -0.11      0.00
   -5   -6    5      2.33      0.00
   -4   -6    5     -1.52      0.00
   -3   -6    5      4.45      0.00
   -2   -6    5     -3.88      0.00
    0   -6    5     -1.45      0.00
    1   -6    5     -0.80      0.00
    2   -6    5      0.73      0.00
    3   -6    5     -2.33      0.00
    4   -6    5     -5.21      0.00
    5   -6    5      5.72      0.00
    6   -6    5     -0.89      0.00
    7   -6    5     -0.52      0.00
    8   -6    5      0.74      0.00
    9   -6    5     -0.10      0.00
   10   -6    5      0.45      0.00
   11   -6    5      0.20      0.00
   12   -6    5     -0.03      0.00
   13   -6    5     -1.80      0.00
   14   -6    5      2.69      0.00
   15   -6    5     -1.88      0.00
  -13   -5    5      1.07      0.00
  -12   -5    5      1.08      0.00
  -11   -5    5     -2.02      0.00
  -10   -5    5      0.01      0.00
   -9   -5    5      0.99      0.00
   -8   -5    5     -1.12      0.00
   -7   -5    5     -1.17      0.00
   -6   -5    5      4.24      0.00
   -5   -5    5     -3.23      0.00
   -4   -5    5      4.18      0.00
   -3   -5    5     -3.27      0.00
   -2   -5    5      2.37      0.00
   -1   -5    5      2.79      0.00
    0   -5    5     -3.07      0.00
    1   -5    5      0.00      0.00
    2   -5    5     -1.92      0.00
    3   -5    5     -3.79      0.00
    4   -5    5      0.30      0.00
    5   -5    5      2.46      0.00
    6   -5    5      0.80      0.00
    7   -5    5     -1.55      0.00
    8   -5    5      1.49      0.00
    9   -5    5      0.02      0.00
   10   -5    5      1.31      0.00
   11   -5    5     -1.91      0.00
   12   -5    5     -0.58      0.00
   13   -5    5      1.25      0.00
   14   -5    5      1.14      0.00
   15   -5    5     -2.36      0.00
  -13   -4    5      1.82      0.00
  -12   -4    5      0.11      0.00
  -11   -4    5     -2.18      0.00
  -10   -4    5      0.95      0.00
   -9   -4    5     -0.46      0.00
   -8   -4    5     -0.21      0.00
   -7   -4    5      1.16      0.00
   -6   -4    5     -1.31      0.00
   -5   -4    5      4.99      0.00
   -4   -4    5     -4.04      0.00
   -3   -4    5      0.46      0.00
   -2   -4    5      2.58      0.00
   -1   -4    5      1.27      0.00
    0   -4    5      2.72      0.00
    1   -4    5    -11.69      0.00
    2   -4    5      3.37      0.00
    3   -4    5     -4.40      0.00
    4   -4    5      3.56      0.00
    5   -4    5      1.45      0.00
    6   -4    5     -0.74      0.00
    7   -4    5      0.24      0.00
    8   -4    5      1.39      0.00
    9   -4    5      0.24      0.00
   10   -4    5     -0.58      0.00
   11   -4    5     -0.86      0.00
   12   -4    5      0.07      0.00
   13   -4    5      1.07      0.00
   14   -4    5     -0.60      0.00
   15   -4    5      0.04      0.00
  -14   -3    5      2.71      0.00
  -13   -3    5     -1.23      0.00
  -12   -3    5      0.90      0.00
  -11   -3    5     -0.98      0.00
  -10   -3    5     -1.73      0.00
   -9   -3    5      3.14      0.00
   -8   -3    5     -2.41      0.00
   -7   -3    5      1.37      0.00
   -6   -3    5     -0.25      0.00
   -5   -3    5      3.35      0.00
   -4   -3    5     -1.34      0.00
   -3   -3    5     -3.78      0.00
   -2   -3    5      6.09      0.00
   -1   -3    5      2.33      0.00
    0   -3    5     -1.66      0.00
    1   -3    5    -14.10      0.00
    2   -3    5      4.68      0.00
    3   -3    5      1.94      0.00
    4   -3    5     -3.07      0.00
    5   -3    5      8.51      0.00
    6   -3    5     -5.87      0.00
    7   -3    5      2.95      0.00
    8   -3    5     -0.03      0.00
    9   -3    5      0.04      0.00
   10   -3    5     -0.17      0.00
   11   -3    5     -1.00      0.00
   12   -3    5      1.14      0.00
   13   -3    5     -0.98      0.00
   14   -3    5      0.41      0.00
   15   -3    5      0.37      0.00
  -14   -2    5      1.27      0.00
  -13   -2    5     -1.70      0.00
  -12   -2    5      1.40      0.00
  -11   -2    5     -1.49      0.00
  -10   -2    5      0.77      0.00
   -9   -2    5     -0.38      0.00
   -8   -2    5      0.15      0.00
   -7   -2    5      0.37      0.00
   -6   -2    5      1.21      0.00
   -5   -2    5     -1.04      0.00
   -4   -2    5      5.59      0.00
   -3   -2    5    -10.06      0.00
   -2   -2    5      9.09      0.00
   -1   -2    5      7.47      0.00
    0   -2    5    -25.36      0.00
    1   -2    5     15.13      0.00
    2   -2    5    -11.99      0.00
    3   -2    5      0.54      0.00
    4   -2    5     15.49      0.00
    5   -2    5     -9.09      0.00
    6   -2    5      3.20      0.00
    7   -2    5     -2.18      0.00
    8   -2    5      2.36      0.00
    9   -2    5     -0.20      0.00
   10   -2    5     -1.01      0.00
   11   -2    5     -0.57      0.00
   12   -2    5      1.60      0.00
   13   -2    5     -1.16      0.00
   14   -2    5     -1.32      0.00
  -14   -1    5     -0.30      0.00
  -13   -1    5     -0.98      0.00
  -12   -1    5      1.22      0.00
  -11   -1    5     -0.12      0.00
  -10   -1    5     -1.15      0.00
   -9   -1    5      0.75      0.00
   -8   -1    5      0.77      0.00
   -7   -1    5     -1.60      0.00
   -6   -1    5      3.27      0.00
   -5   -1    5     -0.98      0.00
   -4   -1    5      2.36      0.00
   -3   -1    5     -8.33      0.00
   -2   -1    5     21.67      0.00
   -1   -1    5    -31.58      0.00
    0   -1    5     18.95      0.00
    1   -1    5     -7.89      0.00
    2   -1    5    -15.41      0.00
    3   -1    5     19.34      0.00
    4   -1    5      7.09      0.00
    5   -1    5    -11.35      0.00
    6   -1    5      2.47      0.00
    7   -1    5      2.05      0.00
    8   -1    5     -1.22      0.00
    9   -1    5      0.58      0.00
   10   -1    5     -0.45      0.00
   11   -1    5     -0.96      0.00
   12   -1    5      1.32      0.00
   13   -1    5     -0.77      0.00
   14   -1    5     -0.88      0.00
  -15    0    5     -1.65      0.00
  -14    0    5     -0.61      0.00
  -13    0    5      1.71      0.00
  -12    0    5     -0.80      0.00
  -11    0    5     -0.32      0.00
  -10    0    5      0.28      0.00
   -9    0    5      0.19      0.00
   -8    0    5     -0.60      0.00
   -7    0    5      1.74      0.00
   -6    0    5     -1.03      0.00
   -5    0    5      3.92      0.00
   -4    0    5     -4.53      0.00
   -3    0    5      4.98      0.00
   -2    0    5     -5.83      0.00
   -1    0    5     -3.60      0.00
    0    0    5      8.42      0.00
    1    0    5    -18.00      0.00
    2    0    5      1.12      0.00
    3    0    5     24.94      0.00
    4    0    5    -13.60      0.00
    5    0    5      1.33      0.00
    6    0    5      0.94      0.00
    7    0    5     -1.24      0.00
    8    0    5      1.11      0.00
    9    0    5      0.01      0.00
   10    0    5     -1.15      0.00
   11    0    5      0.35      0.00
   12    0    5     -0.49      0.00
   13    0    5      1.27      0.00
   14    0    5     -1.78      0.00
  -15    1    5     -4.26      0.00
  -14    1    5      3.21      0.00
  -13    1    5     -1.14      0.00
  -12    1    5      1.25      0.00
  -11    1    5     -1.69      0.00
  -10    1    5      0.83      0.00
   -9    1    5      0.20      0.00
   -8    1    5      0.38      0.00
   -7    1    5     -2.31      0.00
   -6    1    5      6.74      0.00
   -5    1    5     -5.29      0.00
   -4    1    5      5.00      0.00
   -3    1    5     -7.32      0.00
   -2    1    5     -7.83      0.00
   -1    1    5     27.74      0.00
    0    1    5    -40.08      0.00
    1    1    5     16.17      0.00
    2    1    5      7.43      0.00
    3    1    5      1.25      0.00
    4    1    5     -0.37      0.00
    5    1    5     -4.18      0.00
    6    1    5      5.16      0.00
    7    1    5     -4.99      0.00
    8    1    5      3.25      0.00
    9    1    5     -1.87      0.00
   10    1    5      0.77      0.00
   11    1    5     -0.99      0.00
   12    1    5      0.28      0.00
   13    1    5      0.95      0.00
   14    1    5     -1.25      0.00
  -15    2    5     -2.79      0.00
  -14    2    5      1.29      0.00
  -13    2    5      1.63      0.00
  -12    2    5     -2.37      0.00
  -11    2    5      1.73      0.00
  -10    2    5     -0.20      0.00
   -9    2    5     -0.76      0.00
   -8    2    5     -0.73      0.00
   -7    2    5      2.07      0.00
   -6    2    5      2.89      0.00
   -5    2    5     -1.62      0.00
   -4    2    5     -7.48      0.00
   -3    2    5      8.94      0.00
   -2    2    5    -16.52      0.00
   -1    2    5     23.95      0.00
    0    2    5    -27.26      0.00
    1    2    5      6.58      0.00
    2    2    5     20.48      0.00
    3    2    5    -14.54      0.00
    4    2    5      5.89      0.00
    5    2    5     -3.44      0.00
    6    2    5      2.67      0.00
    7    2    5     -1.97      0.00
    8    2    5     -0.06      0.00
    9    2    5      0.13      0.00
   10    2    5     -0.56      0.00
   11    2    5      1.14      0.00
   12    2    5     -1.31      0.00
   13    2    5      0.88      0.00
  -15    3    5     -1.20      0.00
  -14    3    5      1.94      0.00
  -13    3    5     -1.30      0.00
  -12    3    5      0.78      0.00
  -11    3    5      0.68      0.00
  -10    3    5      0.06      0.00
   -9    3    5     -3.96      0.00
   -8    3    5      4.05      0.00
   -7    3    5      1.63      0.00
   -6    3    5     -1.81      0.00
   -5    3    5     -1.24      0.00
   -4    3    5     -1.10      0.00
   -3    3    5     -0.26      0.00
   -2    3    5     -8.79      0.00
   -1    3    5     20.50      0.00
    0    3    5    -26.13      0.00
    1    3    5     16.08      0.00
    2    3    5      6.16      0.00
    3    3    5     -7.10      0.00
    4    3    5      0.07      0.00
    5    3    5      3.54      0.00
    6    3    5     -2.98      0.00
    7    3    5      0.79      0.00
    8    3    5     -0.94      0.00
    9    3    5     -0.38      0.00
   10    3    5      1.38      0.00
   11    3    5     -1.31      0.00
   12    3    5      1.15      0.00
   13    3    5     -0.19      0.00
  -15    4    5     -1.66      0.00
  -14    4    5      1.59      0.00
  -13    4    5     -1.15      0.00
  -12    4    5      1.80      0.00
  -11    4    5     -0.19      0.00
  -10    4    5     -2.43      0.00
   -9    4    5      1.56      0.00
   -8    4    5     -1.25      0.00
   -7    4    5      6.10      0.00
   -6    4    5     -8.82      0.00
   -5    4    5      4.77      0.00
   -4    4    5      0.12      0.00
   -3    4    5    -10.64      0.00
   -2    4    5     10.25      0.00
   -1    4    5     -0.28      0.00
    0    4    5     -7.72      0.00
    1    4    5      8.41      0.00
    2    4    5      4.67      0.00
    3    4    5     -9.69      0.00
    4    4    5      7.08      0.00
    5    4    5     -3.22      0.00
    6    4    5      1.30      0.00
    7    4    5     -0.62      0.00
    8    4    5     -1.74      0.00
    9    4    5      0.81      0.00
   10    4    5      1.48      0.00
   11    4    5     -1.85      0.00
   12    4    5      1.50      0.00
   13    4    5     -0.55      0.00
  -15    5    5     -1.59      0.00
  -14    5    5      0.88      0.00
  -13    5    5      0.16      0.00
  -12    5    5      0.04      0.00
  -11    5    5      0.14      0.00
  -10    5    5     -1.45      0.00
   -9    5    5      0.41      0.00
   -8    5    5      1.31      0.00
   -7    5    5     -0.50      0.00
   -6    5    5     -0.30      0.00
   -5    5    5     -0.47      0.00
   -4    5    5     -3.68      0.00
   -3    5    5      5.21      0.00
   -2    5    5     -5.84      0.00
   -1    5    5      4.10      0.00
    0    5    5     -0.14      0.00
    1    5    5      2.09      0.00
    2    5    5     -0.03      0.00
    3    5    5     -0.33      0.00
    4    5    5     -1.06      0.00
    5    5    5      1.58      0.00
    6    5    5     -0.32      0.00
    7    5    5     -1.23      0.00
    8    5    5      0.20      0.00
    9    5    5     -0.65      0.00
   10    5    5      1.66      0.00
   11    5    5     -1.27      0.00
   12    5    5      1.50      0.00
  -15    6    5     -0.12      0.00
  -14    6    5      0.27      0.00
  -13    6    5     -0.57      0.00
  -12    6    5      0.43      0.00
  -11    6    5     -0.18      0.00
  -10    6    5     -0.91      0.00
   -9    6    5      0.57      0.00
   -8    6    5      1.12      0.00
   -7    6    5     -1.15      0.00
   -6    6    5      0.79      0.00
   -5    6    5     -3.44      0.00
   -4    6    5      4.16      0.00
   -3    6    5     -2.61      0.00
   -2    6    5     -0.75      0.00
   -1    6    5     -1.18      0.00
    0    6    5      6.58      0.00
    1    6    5     -2.44      0.00
    2    6    5     -0.19      0.00
    3    6    5      0.54      0.00
    4    6    5     -1.16      0.00
    5    6    5      1.64      0.00
    6    6    5     -1.27      0.00
    7    6    5      0.58      0.00
    8    6    5     -1.02      0.00
    9    6    5      0.24      0.00
   10    6    5      0.04      0.00
   11    6    5      0.94      0.00
   12    6    5     -0.29      0.00
  -15    7    5      0.29      0.00
  -14    7    5     -0.38      0.00
  -13    7    5     -0.05      0.00
  -12    7    5     -0.51      0.00
  -11    7    5     -0.22      0.00
  -10    7    5      0.80      0.00
   -9    7    5      0.19      0.00
   -8    7    5     -0.22      0.00
   -7    7    5      0.69      0.00
   -6    7    5     -2.85      0.00
   -5    7    5      3.33      0.00
   -4    7    5     -1.00      0.00
   -3    7    5     -0.95      0.00
   -2    7    5     -2.40      0.00
   -1    7    5      0.77      0.00
    0    7    5      6.53      0.00
    1    7    5     -2.37      0.00
    2    7    5     -3.04      0.00
    3    7    5      3.25      0.00
    4    7    5     -1.63      0.00
    5    7    5     -0.16      0.00
    6    7    5      1.60      0.00
    7    7    5     -1.37      0.00
    8    7    5     -0.38      0.00
    9    7    5      0.50      0.00
   10    7    5     -0.81      0.00
   11    7    5      2.19      0.00
  -15    8    5     -1.13      0.00
  -14    8    5      2.55      0.00
  -13    8    5     -3.35      0.00
  -12    8    5      0.66      0.00
  -11    8    5      1.07      0.00
  -10    8    5     -0.18      0.00
   -9    8    5      1.06      0.00
   -8    8    5     -0.88      0.00
   -7    8    5     -0.95      0.00
   -6    8    5      1.65      0.00
   -5    8    5     -0.78      0.00
   -4    8    5      1.22      0.00
   -3    8    5     -3.77      0.00
   -2    8    5     -0.44      0.00
   -1    8    5      2.50      0.00
    0    8    5      4.69      0.00
    1    8    5     -3.26      0.00
    2    8    5     -1.25      0.00
    3    8    5      0.45      0.00
    4    8    5      1.32      0.00
    5    8    5     -1.11      0.00
    6    8    5      0.35      0.00
    7    8    5      1.10      0.00
    8    8    5     -2.85      0.00
    9    8    5      1.80      0.00
   10    8    5     -0.01      0.00
   11    8    5     -0.18      0.00
  -15    9    5     -0.92      0.00
  -14    9    5      1.85      0.00
  -13    9    5     -2.95      0.00
  -12    9    5      1.66      0.00
  -11    9    5     -0.48      0.00
  -10    9    5      2.58      0.00
   -9    9    5     -2.32      0.00
   -8    9    5      1.26      0.00
   -7    9    5     -1.27      0.00
   -6    9    5      1.72      0.00
   -5    9    5     -1.68      0.00
   -4    9    5      0.95      0.00
   -3    9    5     -4.45      0.00
   -2    9    5      3.03      0.00
   -1    9    5      2.06      0.00
    0    9    5      1.39      0.00
    1    9    5     -1.70      0.00
    2    9    5     -0.83      0.00
    3    9    5     -0.09      0.00
    4    9    5      1.13      0.00
    5    9    5     -0.04      0.00
    6    9    5     -0.50      0.00
    7    9    5      0.75      0.00
    8    9    5     -1.95      0.00
    9    9    5      1.85      0.00
   10    9    5     -1.11      0.00
  -14   10    5      0.66      0.00
  -13   10    5     -1.44      0.00
  -12   10    5      0.47      0.00
  -11   10    5      2.33      0.00
  -10   10    5     -1.29      0.00
   -9   10    5     -0.27      0.00
   -8   10    5      1.20      0.00
   -7   10    5     -0.64      0.00
   -6   10    5     -1.24      0.00
   -5   10    5      0.90      0.00
   -4   10    5     -1.74      0.00
   -3   10    5     -1.03      0.00
   -2   10    5      3.41      0.00
   -1   10    5      0.00      0.00
    0   10    5      1.08      0.00
    1   10    5     -1.37      0.00
    2   10    5     -1.13      0.00
    3   10    5      2.09      0.00
    4   10    5     -1.81      0.00
    5   10    5      1.63      0.00
    6   10    5     -0.67      0.00
    7   10    5     -0.51      0.00
    8   10    5      0.96      0.00
    9   10    5     -1.40      0.00
  -14   11    5     -1.28      0.00
  -13   11    5      0.33      0.00
  -12   11    5      0.97      0.00
  -11   11    5      0.66      0.00
  -10   11    5     -0.68      0.00
   -9   11    5      0.32      0.00
   -8   11    5     -0.21      0.00
   -7   11    5      0.50      0.00
   -6   11    5     -2.37      0.00
   -5   11    5      0.25      0.00
   -4   11    5      0.45      0.00
   -3   11    5     -0.01      0.00
   -2   11    5      1.27      0.00
   -1   11    5      0.26      0.00
    0   11    5      0.78      0.00
    1   11    5     -1.72      0.00
    2   11    5      1.07      0.00
    3   11    5     -1.05      0.00
    4   11    5      1.21      0.00
    5   11    5      0.51      0.00
    6   11    5     -3.55      0.00
    7   11    5      4.86      0.00
    8   11    5     -2.78      0.00
  -14   12    5      1.02      0.00
  -13   12    5     -1.61      0.00
  -12   12    5      1.97      0.00
  -11   12    5      0.54      0.00
  -10   12    5     -1.46      0.00
   -9   12    5      0.75      0.00
   -8   12    5      0.42      0.00
   -7   12    5     -2.39      0.00
   -6   12    5      0.79      0.00
   -5   12    5     -0.60      0.00
   -4   12    5      1.01      0.00
   -3   12    5      0.20      0.00
   -2   12    5      0.21      0.00
   -1   12    5      0.45      0.00
    0   12    5      0.29      0.00
    1   12    5     -0.16      0.00
    2   12    5     -1.10      0.00
    3   12    5      1.78      0.00
    4   12    5     -1.43      0.00
    5   12    5      1.21      0.00
    6   12    5     -2.58      0.00
    7   12    5      3.84      0.00
  -13   13    5      0.31      0.00
  -12   13    5     -0.08      0.00
  -11   13    5      1.17      0.00
  -10   13    5     -0.75      0.00
   -9   13    5     -0.45      0.00
   -8   13    5     -0.12      0.00
   -7   13    5     -0.32      0.00
   -6   13    5     -0.58      0.00
   -5   13    5      0.84      0.00
   -4   13    5      0.08      0.00
   -3   13    5      0.58      0.00
   -2   13    5     -0.89      0.00
   -1   13    5      1.59      0.00
    0   13    5     -0.40      0.00
    1   13    5      0.12      0.00
    2   13    5     -0.64      0.00
    3   13    5      0.50      0.00
    4   13    5      0.40      0.00
    5   13    5     -2.02      0.00
    6   13    5      2.27      0.00
  -12   14    5     -0.36      0.00
  -11   14    5      0.87      0.00
  -10   14    5     -0.46      0.00
   -9   14    5     -1.21      0.00
   -8   14    5      1.47      0.00
   -7   14    5     -1.43      0.00
   -6   14    5      0.63      0.00
   -5   14    5     -0.19      0.00
   -4   14    5      0.83      0.00
   -3   14    5     -0.79      0.00
   -2   14    5      0.73      0.00
   -1   14    5      0.58      0.00
    0   14    5     -0.23      0.00
    1   14    5      0.27      0.00
    2   14    5     -0.32      0.00
    3   14    5     -0.48      0.00
    4   14    5      0.41      0.00
    5   14    5     -0.16      0.00
  -11   15    5     -0.71      0.00
  -10   15    5     -0.69      0.00
   -9   15    5      1.56      0.00
   -8   15    5     -1.17      0.00
   -7   15    5      0.66      0.00
   -6   15    5     -1.26      0.00
   -5   15    5      1.54      0.00
   -4   15    5     -0.91      0.00
   -3   15    5      0.36      0.00
   -2   15    5      0.79      0.00
   -1   15    5     -0.40      0.00
    0   15    5      1.16      0.00
    1   15    5     -1.04      0.00
    2   15    5     -0.26      0.00
    3   15    5      0.46      0.00
    4   15    5     -0.29      0.00
  -10   16    5      0.69      0.00
   -9   16    5     -1.10      0.00
   -8   16    5      1.88      0.00
   -7   16    5     -1.79      0.00
   -6   16    5      0.50      0.00
   -5   16    5     -0.16      0.00
   -4   16    5      0.33      0.00
   -3   16    5      0.45      0.00
   -2   16    5     -0.42      0.00
   -1   16    5      1.57      0.00
    0   16    5     -1.37      0.00
    1   16    5      0.57      0.00
    2   16    5     -0.40      0.00
   -8   17    5      1.37      0.00
   -7   17    5     -1.33      0.00
   -6   17    5      0.94      0.00
   -5   17    5     -1.55      0.00
   -4   17    5      1.38      0.00
   -3   17    5      0.97      0.00
   -2   17    5     -1.51      0.00
   -1   17    5      1.68      0.00
    0   17    5     -1.11      0.00
    2  -18    6      0.60      0.00
    3  -18    6      0.39      0.00
    4  -18    6     -0.21      0.00
    5  -18    6     -0.69      0.00
   -1  -17    6      0.46      0.00
    0  -17    6     -0.38      0.00
    1  -17    6      0.68      0.00
    2  -17    6      0.07      0.00
    3  -17    6      0.54      0.00
    4  -17    6     -0.46      0.00
    5  -17    6     -1.36      0.00
    6  -17    6      2.11      0.00
    7  -17    6     -1.83      0.00
    8  -17    6     -0.02      0.00
   -3  -16    6     -3.15      0.00
   -2  -16    6      2.54      0.00
   -1  -16    6     -0.58      0.00
    0  -16    6      0.51      0.00
    1  -16    6      0.19      0.00
    2  -16    6      0.97      0.00
    3  -16    6     -1.18      0.00
    4  -16    6     -0.48      0.00
    5  -16    6      1.01      0.00
    6  -16    6     -1.22      0.00
    7  -16    6      0.20      0.00
    8  -16    6      0.72      0.00
    9  -16    6     -1.54      0.00
   10  -16    6      0.93      0.00
   -5  -15    6      0.94      0.00
   -4  -15    6     -0.39      0.00
   -3  -15    6     -0.30      0.00
   -2  -15    6      0.23      0.00
   -1  -15    6      0.45      0.00
    0  -15    6      1.16      0.00
    1  -15    6     -0.61      0.00
    2  -15    6      0.74      0.00
    3  -15    6     -1.17      0.00
    4  -15    6     -0.51      0.00
    5  -15    6      0.76      0.00
    6  -15    6      0.04      0.00
    7  -15    6     -1.23      0.00
    8  -15    6      1.38      0.00
    9  -15    6     -0.33      0.00
   10  -15    6     -1.55      0.00
   11  -15    6      3.05      0.00
   -6  -14    6      0.38      0.00
   -5  -14    6     -0.77      0.00
   -4  -14    6      1.12      0.00
   -3  -14    6     -0.87      0.00
   -2  -14    6     -0.53      0.00
   -1  -14    6      2.23      0.00
    0  -14    6     -0.10      0.00
    1  -14    6     -0.23      0.00
    2  -14    6     -0.19      0.00
    3  -14    6     -0.52      0.00
    4  -14    6     -0.32      0.00
    5  -14    6      0.52      0.00
    6  -14    6      0.03      0.00
    7  -14    6     -0.61      0.00
    8  -14    6      0.86      0.00
    9  -14    6     -0.67      0.00
   10  -14    6      0.65      0.00
   11  -14    6     -0.78      0.00
   12  -14    6      1.39      0.00
   -7  -13    6      0.76      0.00
   -6  -13    6     -0.38      0.00
   -5  -13    6     -0.82      0.00
   -4  -13    6      1.80      0.00
   -3  -13    6     -2.27      0.00
   -2  -13    6      1.00      0.00
   -1  -13    6      1.70      0.00
    0  -13    6     -0.07      0.00
    1  -13    6     -1.07      0.00
    2  -13    6      0.56      0.00
    3  -13    6     -0.72      0.00
    4  -13    6      0.48      0.00
    5  -13    6     -0.30      0.00
    6  -13    6      0.00      0.00
    7  -13    6      0.35      0.00
    8  -13    6      0.07      0.00
    9  -13    6     -0.47      0.00
   10  -13    6      0.72      0.00
   11  -13    6     -1.20      0.00
   12  -13    6      1.13      0.00
   -8  -12    6     -1.09      0.00
   -7  -12    6      1.97      0.00
   -6  -12    6     -1.96      0.00
   -5  -12    6      0.68      0.00
   -4  -12    6     -0.05      0.00
   -3  -12    6     -0.52      0.00
   -2  -12    6      0.09      0.00
   -1  -12    6      2.29      0.00
    0  -12    6     -1.19      0.00
    1  -12    6      0.14      0.00
    2  -12    6     -0.35      0.00
    3  -12    6      0.64      0.00
    4  -12    6     -0.58      0.00
    5  -12    6      0.46      0.00
    6  -12    6     -1.38      0.00
    7  -12    6      2.52      0.00
    8  -12    6     -2.29      0.00
    9  -12    6      1.52      0.00
   10  -12    6     -0.94      0.00
   11  -12    6     -0.72      0.00
   12  -12    6      1.49      0.00
   13  -12    6     -0.70      0.00
   -9  -11    6     -0.43      0.00
   -8  -11    6      0.42      0.00
   -7  -11    6     -1.03      0.00
   -6  -11    6      1.49      0.00
   -5  -11    6     -2.39      0.00
   -4  -11    6      1.69      0.00
   -3  -11    6     -0.71      0.00
   -2  -11    6     -0.10      0.00
   -1  -11    6      1.99      0.00
    0  -11    6     -0.69      0.00
    1  -11    6      0.21      0.00
    2  -11    6     -0.05      0.00
    3  -11    6      0.01      0.00
    4  -11    6      0.53      0.00
    5  -11    6     -1.24      0.00
    6  -11    6      0.15      0.00
    7  -11    6      0.76      0.00
    8  -11    6     -0.39      0.00
    9  -11    6      0.52      0.00
   10  -11    6     -2.03      0.00
   11  -11    6      1.14      0.00
   12  -11    6      0.17      0.00
   13  -11    6      0.38      0.00
  -10  -10    6     -2.70      0.00
   -9  -10    6      2.87      0.00
   -8  -10    6     -1.65      0.00
   -7  -10    6     -1.72      0.00
   -6  -10    6      2.90      0.00
   -5  -10    6     -2.69      0.00
   -4  -10    6      0.78      0.00
   -3  -10    6      0.51      0.00
   -2  -10    6      0.02      0.00
   -1  -10    6      0.81      0.00
    0  -10    6      0.71      0.00
    1  -10    6     -0.19      0.00
    2  -10    6      0.34      0.00
    3  -10    6     -0.85      0.00
    4  -10    6      1.10      0.00
    5  -10    6     -1.18      0.00
    6  -10    6     -1.56      0.00
    7  -10    6      2.91      0.00
    8  -10    6     -1.15      0.00
    9  -10    6     -0.52      0.00
   10  -10    6     -0.84      0.00
   11  -10    6      0.15      0.00
   12  -10    6      2.02      0.00
   13  -10    6     -1.23      0.00
   14  -10    6      0.78      0.00
  -11   -9    6      2.02      0.00
  -10   -9    6     -1.06      0.00
   -9   -9    6      1.30      0.00
   -8   -9    6     -2.61      0.00
   -7   -9    6      1.87      0.00
   -6   -9    6     -1.53      0.00
   -5   -9    6     -0.76      0.00
   -4   -9    6      2.16      0.00
   -3   -9    6     -1.72      0.00
   -2   -9    6      2.36      0.00
   -1   -9    6      0.31      0.00
    0   -9    6     -1.06      0.00
    1   -9    6      2.76      0.00
    2   -9    6     -2.32      0.00
    3   -9    6      1.56      0.00
    4   -9    6     -1.46      0.00
    5   -9    6     -0.85      0.00
    6   -9    6     -0.05      0.00
    7   -9    6      1.28      0.00
    8   -9    6     -0.29      0.00
    9   -9    6     -1.28      0.00
   10   -9    6     -0.57      0.00
   11   -9    6      1.87      0.00
   12   -9    6     -0.60      0.00
   13   -9    6      0.80      0.00
   14   -9    6     -0.15      0.00
  -11   -8    6     -1.33      0.00
  -10   -8    6      0.75      0.00
   -9   -8    6     -0.29      0.00
   -8   -8    6      0.07      0.00
   -7   -8    6     -0.77      0.00
   -6   -8    6     -0.83      0.00
   -5   -8    6     -0.20      0.00
   -4   -8    6      1.15      0.00
   -3   -8    6      0.38      0.00
   -2   -8    6      2.66      0.00
   -1   -8    6     -2.34      0.00
    0   -8    6      1.30      0.00
    1   -8    6      0.77      0.00
    2   -8    6      0.40      0.00
    3   -8    6     -0.91      0.00
    4   -8    6     -1.55      0.00
    5   -8    6     -0.26      0.00
    6   -8    6     -0.89      0.00
    7   -8    6      2.85      0.00
    8   -8    6     -2.06      0.00
    9   -8    6     -0.52      0.00
   10   -8    6      0.63      0.00
   11   -8    6      0.26      0.00
   12   -8    6      0.15      0.00
   13   -8    6      1.25      0.00
   14   -8    6     -0.92      0.00
  -12   -7    6      1.06      0.00
  -11   -7    6      0.19      0.00
  -10   -7    6     -1.63      0.00
   -9   -7    6      0.68      0.00
   -8   -7    6      2.17      0.00
   -7   -7    6     -4.26      0.00
   -6   -7    6      1.62      0.00
   -5   -7    6     -1.56      0.00
   -4   -7    6      2.37      0.00
   -3   -7    6      1.83      0.00
   -2   -7    6     -0.61      0.00
   -1   -7    6      1.66      0.00
    0   -7    6     -3.27      0.00
    1   -7    6      3.44      0.00
    2   -7    6      1.61      0.00
    3   -7    6     -4.42      0.00
    4   -7    6      0.24      0.00
    5   -7    6     -2.58      0.00
    6   -7    6      1.89      0.00
    7   -7    6      1.77      0.00
    8   -7    6     -2.30      0.00
    9   -7    6      0.43      0.00
   10   -7    6      0.05      0.00
   11   -7    6      0.13      0.00
   12   -7    6      1.49      0.00
   13   -7    6     -0.39      0.00
   14   -7    6     -1.27      0.00
  -13   -6    6      3.28      0.00
  -12   -6    6     -2.31      0.00
  -11   -6    6      1.61      0.00
  -10   -6    6     -1.40      0.00
   -9   -6    6      0.52      0.00
   -8   -6    6      0.59      0.00
   -7   -6    6     -1.35      0.00
   -6   -6    6     -1.23      0.00
   -5   -6    6      1.73      0.00
   -4   -6    6     -0.26      0.00
   -3   -6    6      4.54      0.00
   -2   -6    6     -3.38      0.00
   -1   -6    6      3.00      0.00
    0   -6    6     -2.79      0.00
    1   -6    6      2.31      0.00
    2   -6    6      1.98      0.00
    3   -6    6     -3.35      0.00
    4   -6    6     -5.97      0.00
    5   -6    6      3.46      0.00
    6   -6    6      1.34      0.00
    7   -6    6     -0.31      0.00
    8   -6    6     -0.49      0.00
    9   -6    6     -0.22      0.00
   10   -6    6      0.67      0.00
   11   -6    6      0.33      0.00
   12   -6    6      0.49      0.00
   13   -6    6     -1.32      0.00
   14   -6    6      1.20      0.00
  -13   -5    6      2.25      0.00
  -12   -5    6      0.78      0.00
  -11   -5    6     -2.26      0.00
  -10   -5    6      0.88      0.00
   -9   -5    6      0.21      0.00
   -8   -5    6      0.00      0.00
   -7   -5    6     -2.09      0.00
   -6   -5    6      1.95      0.00
   -5   -5    6     -0.44      0.00
   -4   -5    6      2.11      0.00
   -3   -5    6     -1.06      0.00
   -2   -5    6      4.11      0.00
   -1   -5    6     -4.36      0.00
    0   -5    6      3.59      0.00
    1   -5    6      0.78      0.00
    2   -5    6     -3.21      0.00
    3   -5    6      0.29      0.00
    4   -5    6     -9.28      0.00
    5   -5    6      8.32      0.00
    6   -5    6     -0.52      0.00
    7   -5    6     -1.43      0.00
    8   -5    6      1.09      0.00
    9   -5    6      0.00      0.00
   10   -5    6      0.57      0.00
   11   -5    6     -0.19      0.00
   12   -5    6     -0.55      0.00
   13   -5    6     -0.44      0.00
   14   -5    6      2.66      0.00
  -13   -4    6      2.63      0.00
  -12   -4    6      0.03      0.00
  -11   -4    6     -1.31      0.00
  -10   -4    6     -0.30      0.00
   -9   -4    6      0.92      0.00
   -8   -4    6     -0.73      0.00
   -7   -4    6     -0.88      0.00
   -6   -4    6      1.44      0.00
   -5   -4    6      1.53      0.00
   -4   -4    6     -0.98      0.00
   -3   -4    6      1.31      0.00
   -2   -4    6     -0.17      0.00
   -1   -4    6      1.41      0.00
    0   -4    6      4.63      0.00
    1   -4    6     -8.23      0.00
    2   -4    6      2.91      0.00
    3   -4    6     -7.24      0.00
    4   -4    6      1.53      0.00
    5   -4    6      1.65      0.00
    6   -4    6      2.02      0.00
    7   -4    6     -1.67      0.00
    8   -4    6      1.46      0.00
    9   -4    6     -0.33      0.00
   10   -4    6      0.82      0.00
   11   -4    6     -1.07      0.00
   12   -4    6     -0.15      0.00
   13   -4    6      0.07      0.00
   14   -4    6      1.48      0.00
  -14   -3    6      0.76      0.00
  -13   -3    6      0.37      0.00
  -12   -3    6      1.32      0.00
  -11   -3    6     -2.27      0.00
  -10   -3    6     -0.07      0.00
   -9   -3    6      1.98      0.00
   -8   -3    6     -3.19      0.00
   -7   -3    6      2.62      0.00
   -6   -3    6     -0.72      0.00
   -5   -3    6      2.86      0.00
   -4   -3    6     -2.32      0.00
   -3   -3    6      2.07      0.00
   -2   -3    6     -3.87      0.00
   -1   -3    6     13.26      0.00
    0   -3    6     -9.83      0.00
    1   -3    6     -3.06      0.00
    2   -3    6     -0.83      0.00
    3   -3    6     -1.23      0.00
    4   -3    6     -4.16      0.00
    5   -3    6      9.86      0.00
    6   -3    6     -3.91      0.00
    7   -3    6      0.53      0.00
    8   -3    6      0.75      0.00
    9   -3    6      0.13      0.00
   10   -3    6      0.68      0.00
   11   -3    6     -1.70      0.00
   12   -3    6      0.29      0.00
   13   -3    6      0.58      0.00
   14   -3    6     -0.08      0.00
  -14   -2    6      1.34      0.00
  -13   -2    6      0.27      0.00
  -12   -2    6     -0.85      0.00
  -11   -2    6      0.75      0.00
  -10   -2    6     -1.54      0.00
   -9   -2    6      0.82      0.00
   -8   -2    6     -0.22      0.00
   -7   -2    6      0.19      0.00
   -6   -2    6      2.47      0.00
   -5   -2    6     -3.57      0.00
   -4   -2    6      7.47      0.00
   -3   -2    6    -10.92      0.00
   -2   -2    6     13.08      0.00
   -1   -2    6     -1.55      0.00
    0   -2    6     -7.12      0.00
    1   -2    6     -3.09      0.00
    2   -2    6      3.10      0.00
    4   -2    6     12.27      0.00
    5   -2    6      1.07      0.00
    6   -2    6     -2.73      0.00
    7   -2    6     -0.81      0.00
    8   -2    6      2.58      0.00
    9   -2    6      0.52      0.00
   10   -2    6     -1.49      0.00
   11   -2    6     -1.17      0.00
   12   -2    6      2.02      0.00
   13   -2    6     -0.87      0.00
   14   -2    6     -0.88      0.00
  -14   -1    6      1.88      0.00
  -13   -1    6     -1.55      0.00
  -12   -1    6      0.83      0.00
  -11   -1    6      0.06      0.00
  -10   -1    6     -1.72      0.00
   -9   -1    6      1.15      0.00
   -8   -1    6      0.59      0.00
   -7   -1    6     -0.80      0.00
   -6   -1    6      2.53      0.00
   -5   -1    6     -2.11      0.00
   -4   -1    6      2.43      0.00
   -3   -1    6     -0.70      0.00
   -2   -1    6      3.87      0.00
   -1   -1    6     -1.16      0.00
    0   -1    6    -10.98      0.00
    1   -1    6     11.20      0.00
    2   -1    6    -19.04      0.00
    3   -1    6      6.67      0.00
    4   -1    6     16.79      0.00
    5   -1    6    -14.12      0.00
    6   -1    6      4.28      0.00
    7   -1    6      0.40      0.00
    8   -1    6      0.47      0.00
    9   -1    6      0.09      0.00
   10   -1    6     -0.26      0.00
   11   -1    6     -1.95      0.00
   12   -1    6      2.09      0.00
   13   -1    6     -0.35      0.00
   14   -1    6     -1.51      0.00
  -15    0    6      0.70      0.00
  -14    0    6     -2.17      0.00
  -13    0    6      3.26      0.00
  -12    0    6     -2.56      0.00
  -11    0    6      0.62      0.00
  -10    0    6      0.08      0.00
   -9    0    6     -1.08      0.00
   -8    0    6      2.40      0.00
   -7    0    6     -0.82      0.00
   -6    0    6     -1.55      0.00
   -5    0    6      6.32      0.00
   -4    0    6     -5.05      0.00
   -3    0    6      1.30      0.00
   -2    0    6      5.43      0.00
   -1    0    6    -13.13      0.00
    0    0    6     13.66      0.00
    1    0    6    -22.93      0.00
    2    0    6      8.24      0.00
    3    0    6      8.11      0.00
    4    0    6      1.51      0.00
    5    0    6     -4.70      0.00
    6    0    6      1.30      0.00
    7    0    6      1.01      0.00
    8    0    6     -0.42      0.00
    9    0    6      1.58      0.00
   10    0    6     -2.72      0.00
   11    0    6      0.85      0.00
   12    0    6     -0.47      0.00
   13    0    6      1.36      0.00
   14    0    6     -1.68      0.00
  -15    1    6     -2.23      0.00
  -14    1    6      1.01      0.00
  -13    1    6      0.77      0.00
  -12    1    6     -0.03      0.00
  -11    1    6     -1.95      0.00
  -10    1    6      1.81      0.00
   -9    1    6     -0.60      0.00
   -8    1    6      0.46      0.00
   -7    1    6     -0.66      0.00
   -6    1    6      1.77      0.00
   -5    1    6      3.13      0.00
   -4    1    6     -2.42      0.00
   -3    1    6     -7.13      0.00
   -2    1    6     10.77      0.00
   -1    1    6     -4.28      0.00
    0    1    6     -9.61      0.00
    1    1    6     -1.82      0.00
    2    1    6      5.58      0.00
    3    1    6      8.24      0.00
    4    1    6     -4.01      0.00
    5    1    6     -2.18      0.00
    6    1    6      3.27      0.00
    7    1    6     -2.51      0.00
    8    1    6      2.49      0.00
    9    1    6     -1.26      0.00
   10    1    6     -0.40      0.00
   11    1    6     -0.53      0.00
   12    1    6      0.00      0.00
   13    1    6      1.57      0.00
   14    1    6     -1.67      0.00
  -15    2    6     -4.32      0.00
  -14    2    6      2.62      0.00
  -13    2    6      1.23      0.00
  -12    2    6     -2.38      0.00
  -11    2    6      1.19      0.00
  -10    2    6     -0.28      0.00
   -9    2    6      0.65      0.00
   -8    2    6     -2.74      0.00
   -7    2    6      3.97      0.00
   -6    2    6      2.37      0.00
   -5    2    6     -3.89      0.00
   -4    2    6     -0.41      0.00
   -3    2    6      0.18      0.00
   -2    2    6     -4.30      0.00
   -1    2    6      9.80      0.00
    0    2    6    -15.17      0.00
    1    2    6     -3.62      0.00
    2    2    6     19.00      0.00
    3    2    6     -5.75      0.00
    4    2    6      0.21      0.00
    5    2    6     -3.01      0.00
    6    2    6      4.70      0.00
    7    2    6     -2.71      0.00
    8    2    6      0.35      0.00
    9    2    6      0.57      0.00
   10    2    6     -1.46      0.00
   11    2    6      0.76      0.00
   12    2    6     -0.56      0.00
   13    2    6      0.84      0.00
  -15    3    6     -0.95      0.00
  -14    3    6      1.22      0.00
  -13    3    6      0.50      0.00
  -12    3    6     -1.18      0.00
  -11    3    6      1.13      0.00
  -10    3    6     -0.11      0.00
   -9    3    6     -2.87      0.00
   -8    3    6      3.64      0.00
   -7    3    6      0.02      0.00
   -6    3    6      2.08      0.00
   -5    3    6     -5.73      0.00
   -4    3    6      3.93      0.00
   -3    3    6     -2.96      0.00
   -2    3    6     -7.54      0.00
   -1    3    6     18.53      0.00
    0    3    6    -22.15      0.00
    1    3    6      4.01      0.00
    2    3    6     16.40      0.00
    3    3    6     -8.64      0.00
    4    3    6     -2.02      0.00
    5    3    6      4.70      0.00
    6    3    6     -2.57      0.00
    7    3    6      1.09      0.00
    8    3    6     -1.03      0.00
    9    3    6     -0.19      0.00
   10    3    6      0.30      0.00
   11    3    6     -0.15      0.00
   12    3    6      0.14      0.00
   13    3    6      0.42      0.00
  -15    4    6     -1.31      0.00
  -14    4    6      2.32      0.00
  -13    4    6     -1.67      0.00
  -12    4    6      1.41      0.00
  -11    4    6     -0.36      0.00
  -10    4    6     -1.63      0.00
   -9    4    6      0.98      0.00
   -8    4    6      0.22      0.00
   -7    4    6      2.89      0.00
   -6    4    6     -4.90      0.00
   -5    4    6      4.52      0.00
   -4    4    6     -4.36      0.00
   -3    4    6     -3.54      0.00
   -2    4    6      4.47      0.00
   -1    4    6      2.59      0.00
    0    4    6    -10.31      0.00
    1    4    6      6.13      0.00
    2    4    6      7.60      0.00
    3    4    6     -8.01      0.00
    4    4    6      3.40      0.00
    5    4    6      0.09      0.00
    6    4    6     -0.59      0.00
    7    4    6      0.45      0.00
    8    4    6     -1.43      0.00
    9    4    6     -0.07      0.00
   10    4    6      1.87      0.00
   11    4    6     -2.08      0.00
   12    4    6      1.69      0.00
   13    4    6     -0.87      0.00
  -15    5    6     -0.74      0.00
  -14    5    6      0.68      0.00
  -13    5    6     -0.22      0.00
  -12    5    6      0.44      0.00
  -11    5    6     -0.49      0.00
  -10    5    6     -0.61      0.00
   -9    5    6      0.00      0.00
   -8    5    6      0.61      0.00
   -7    5    6      1.24      0.00
   -6    5    6     -0.84      0.00
   -5    5    6     -1.20      0.00
   -4    5    6     -2.28      0.00
   -3    5    6      3.09      0.00
   -2    5    6     -4.62      0.00
   -1    5    6      6.36      0.00
    0    5    6     -7.19      0.00
    1    5    6      6.09      0.00
    2    5    6     -0.25      0.00
    3    5    6     -0.20      0.00
    4    5    6     -0.30      0.00
    5    5    6      0.86      0.00
    6    5    6     -0.53      0.00
    7    5    6     -0.44      0.00
    8    5    6      0.17      0.00
    9    5    6     -1.03      0.00
   10    5    6      1.87      0.00
   11    5    6     -1.27      0.00
   12    5    6      0.87      0.00
  -15    6    6     -0.23      0.00
  -14    6    6      0.70      0.00
  -13    6    6     -0.81      0.00
  -12    6    6     -0.18      0.00
  -11    6    6      1.50      0.00
  -10    6    6     -3.01      0.00
   -9    6    6      1.06      0.00
   -8    6    6      1.95      0.00
   -7    6    6     -1.46      0.00
   -6    6    6      1.62      0.00
   -5    6    6     -4.31      0.00
   -4    6    6      3.07      0.00
   -3    6    6     -1.51      0.00
   -2    6    6      0.27      0.00
   -1    6    6     -1.61      0.00
    0    6    6      2.28      0.00
    1    6    6      0.88      0.00
    2    6    6     -0.54      0.00
    3    6    6      0.40      0.00
    4    6    6      0.69      0.00
    5    6    6     -0.55      0.00
    6    6    6     -0.86      0.00
    7    6    6      0.90      0.00
    8    6    6      0.02      0.00
    9    6    6     -0.90      0.00
   10    6    6      0.26      0.00
   11    6    6      0.90      0.00
   12    6    6     -0.19      0.00
  -15    7    6      0.17      0.00
  -14    7    6      0.68      0.00
  -13    7    6     -1.18      0.00
  -12    7    6      0.40      0.00
  -11    7    6     -1.02      0.00
  -10    7    6      0.93      0.00
   -9    7    6     -0.99      0.00
   -8    7    6      1.67      0.00
   -7    7    6      0.52      0.00
   -6    7    6     -2.72      0.00
   -5    7    6      2.31      0.00
   -4    7    6     -2.45      0.00
   -3    7    6      2.92      0.00
   -2    7    6     -3.90      0.00
   -1    7    6     -0.16      0.00
    0    7    6      3.45      0.00
    1    7    6      1.39      0.00
    2    7    6     -3.24      0.00
    3    7    6      2.12      0.00
    4    7    6      0.07      0.00
    5    7    6     -0.98      0.00
    6    7    6     -0.10      0.00
    7    7    6      1.06      0.00
    8    7    6     -0.44      0.00
    9    7    6     -0.38      0.00
   10    7    6     -0.80      0.00
   11    7    6      2.47      0.00
  -15    8    6     -0.55      0.00
  -14    8    6      2.18      0.00
  -13    8    6     -2.50      0.00
  -12    8    6     -0.24      0.00
  -11    8    6      0.75      0.00
  -10    8    6     -0.19      0.00
   -9    8    6      1.10      0.00
   -8    8    6     -0.96      0.00
   -7    8    6      1.95      0.00
   -6    8    6     -2.98      0.00
   -5    8    6      2.45      0.00
   -4    8    6     -0.93      0.00
   -3    8    6     -0.83      0.00
   -2    8    6     -1.78      0.00
   -1    8    6     -0.06      0.00
    0    8    6      4.37      0.00
    1    8    6      0.46      0.00
    2    8    6     -3.39      0.00
    3    8    6      1.53      0.00
    4    8    6      0.73      0.00
    5    8    6     -1.59      0.00
    6    8    6      0.88      0.00
    7    8    6      1.36      0.00
    8    8    6     -2.45      0.00
    9    8    6      1.38      0.00
   10    8    6     -0.58      0.00
  -15    9    6     -1.05      0.00
  -14    9    6      2.31      0.00
  -13    9    6     -2.28      0.00
  -12    9    6     -0.37      0.00
  -11    9    6      0.35      0.00
  -10    9    6      2.35      0.00
   -9    9    6     -2.31      0.00
   -8    9    6      2.24      0.00
   -7    9    6     -1.55      0.00
   -6    9    6      0.89      0.00
   -5    9    6     -0.92      0.00
   -4    9    6      1.32      0.00
   -3    9    6     -4.30      0.00
   -2    9    6      1.87      0.00
   -1    9    6     -0.42      0.00
    0    9    6      4.54      0.00
    1    9    6     -2.36      0.00
    2    9    6      0.38      0.00
    3    9    6     -1.65      0.00
    4    9    6      1.35      0.00
    5    9    6      0.22      0.00
    6    9    6     -0.67      0.00
    7    9    6      2.11      0.00
    8    9    6     -3.44      0.00
    9    9    6      2.40      0.00
   10    9    6     -0.78      0.00
  -14   10    6      2.09      0.00
  -13   10    6     -2.84      0.00
  -12   10    6      0.74      0.00
  -11   10    6      1.45      0.00
  -10   10    6     -0.22      0.00
   -9   10    6     -0.52      0.00
   -8   10    6      1.76      0.00
   -7   10    6     -1.41      0.00
   -6   10    6     -0.13      0.00
   -5   10    6      0.15      0.00
   -4   10    6     -0.90      0.00
   -3   10    6     -2.02      0.00
   -2   10    6      2.15      0.00
   -1   10    6      0.23      0.00
    0   10    6      2.11      0.00
    1   10    6     -0.99      0.00
    2   10    6     -0.94      0.00
    3   10    6      0.94      0.00
    4   10    6     -1.80      0.00
    5   10    6      2.12      0.00
    6   10    6      0.77      0.00
    7   10    6     -2.61      0.00
    8   10    6      1.88      0.00
    9   10    6     -0.88      0.00
  -14   11    6     -1.74      0.00
  -13   11    6      0.43      0.00
  -12   11    6      0.21      0.00
  -11   11    6      1.04      0.00
  -10   11    6     -0.44      0.00
   -9   11    6      0.19      0.00
   -8   11    6      0.20      0.00
   -7   11    6      0.74      0.00
   -6   11    6     -2.80      0.00
   -5   11    6      0.73      0.00
   -4   11    6      0.05      0.00
   -3   11    6     -1.24      0.00
   -2   11    6      1.93      0.00
   -1   11    6     -0.43      0.00
    0   11    6      1.99      0.00
    1   11    6     -1.00      0.00
    2   11    6     -1.19      0.00
    3   11    6      1.36      0.00
    4   11    6     -1.10      0.00
    5   11    6      1.99      0.00
    6   11    6     -2.51      0.00
    7   11    6      2.55      0.00
    8   11    6     -1.28      0.00
  -13   12    6     -1.26      0.00
  -12   12    6      1.45      0.00
  -11   12    6      0.19      0.00
  -10   12    6     -0.25      0.00
   -9   12    6      0.46      0.00
   -8   12    6     -0.19      0.00
   -7   12    6     -1.16      0.00
   -6   12    6      0.23      0.00
   -5   12    6     -0.98      0.00
   -4   12    6      0.55      0.00
   -3   12    6      0.37      0.00
   -2   12    6      0.04      0.00
   -1   12    6      0.65      0.00
    0   12    6      0.43      0.00
    1   12    6      0.03      0.00
    2   12    6     -1.13      0.00
    3   12    6      1.07      0.00
    4   12    6     -0.07      0.00
    5   12    6      0.23      0.00
    6   12    6     -2.14      0.00
    7   12    6      4.00      0.00
  -13   13    6     -0.62      0.00
  -12   13    6     -0.03      0.00
  -11   13    6      1.65      0.00
  -10   13    6     -0.80      0.00
   -9   13    6     -0.13      0.00
   -8   13    6     -0.33      0.00
   -7   13    6     -1.15      0.00
   -6   13    6      1.27      0.00
   -5   13    6     -0.86      0.00
   -4   13    6     -0.30      0.00
   -3   13    6      1.55      0.00
   -2   13    6     -1.48      0.00
   -1   13    6      1.96      0.00
    0   13    6     -0.42      0.00
    1   13    6     -0.51      0.00
    2   13    6      0.50      0.00
    3   13    6      0.45      0.00
    4   13    6     -0.38      0.00
    5   13    6     -1.41      0.00
    6   13    6      2.15      0.00
  -12   14    6     -1.07      0.00
  -11   14    6      1.84      0.00
  -10   14    6      0.20      0.00
   -9   14    6     -2.82      0.00
   -8   14    6      2.12      0.00
   -7   14    6     -1.31      0.00
   -6   14    6      0.75      0.00
   -5   14    6     -0.46      0.00
   -4   14    6      0.30      0.00
   -3   14    6     -0.40      0.00
   -2   14    6      0.68      0.00
   -1   14    6      0.67      0.00
    0   14    6     -0.41      0.00
    1   14    6      0.24      0.00
    2   14    6      0.27      0.00
    3   14    6     -0.50      0.00
    4   14    6      0.52      0.00
    5   14    6     -1.26      0.00
  -11   15    6      0.02      0.00
  -10   15    6     -0.77      0.00
   -9   15    6      0.80      0.00
   -8   15    6     -0.96      0.00
   -7   15    6      1.10      0.00
   -6   15    6     -1.49      0.00
   -5   15    6      1.77      0.00
   -4   15    6     -1.68      0.00
   -3   15    6      0.41      0.00
   -2   15    6      1.43      0.00
   -1   15    6     -0.96      0.00
    0   15    6      1.25      0.00
    1   15    6     -0.83      0.00
    2   15    6      0.44      0.00
    3   15    6     -0.46      0.00
    4   15    6      0.32      0.00
  -10   16    6      1.10      0.00
   -9   16    6     -0.83      0.00
   -8   16    6      1.07      0.00
   -7   16    6     -0.84      0.00
   -6   16    6     -0.04      0.00
   -5   16    6     -0.13      0.00
   -4   16    6      0.57      0.00
   -3   16    6     -0.73      0.00
   -2   16    6      1.19      0.00
   -1   16    6      0.12      0.00
    0   16    6     -0.24      0.00
    1   16    6      0.35      0.00
    2   16    6     -0.36      0.00
   -8   17    6      0.37      0.00
   -7   17    6     -1.02      0.00
   -6   17    6      1.34      0.00
   -5   17    6     -2.66      0.00
   -4   17    6      3.10      0.00
   -3   17    6     -1.01      0.00
   -2   17    6     -0.76      0.00
   -1   17    6      2.39      0.00
    3  -18    7      0.23      0.00
    4  -18    7      0.33      0.00
   -1  -17    7      0.58      0.00
    0  -17    7     -0.14      0.00
    1  -17    7      0.33      0.00
    2  -17    7      0.06      0.00
    3  -17    7      0.71      0.00
    4  -17    7      0.46      0.00
    5  -17    7     -2.40      0.00
    6  -17    7      2.55      0.00
    7  -17    7     -1.62      0.00
    8  -17    7     -0.30      0.00
   -3  -16    7     -2.59      0.00
   -2  -16    7      1.77      0.00
   -1  -16    7     -0.17      0.00
    0  -16    7      0.23      0.00
    1  -16    7     -0.01      0.00
    2  -16    7      1.11      0.00
    3  -16    7     -0.43      0.00
    4  -16    7     -0.06      0.00
    5  -16    7     -0.70      0.00
    6  -16    7      0.34      0.00
    7  -16    7     -0.44      0.00
    8  -16    7      0.61      0.00
    9  -16    7     -1.50      0.00
   -5  -15    7      0.10      0.00
   -4  -15    7      0.48      0.00
   -3  -15    7     -1.51      0.00
   -2  -15    7      1.46      0.00
   -1  -15    7     -0.15      0.00
    0  -15    7      0.51      0.00
    1  -15    7     -0.18      0.00
    2  -15    7      1.31      0.00
    3  -15    7     -0.78      0.00
    4  -15    7     -1.36      0.00
    5  -15    7      1.54      0.00
    6  -15    7     -1.01      0.00
    7  -15    7     -0.47      0.00
    8  -15    7      0.95      0.00
    9  -15    7      0.02      0.00
   10  -15    7     -1.53      0.00
   11  -15    7      2.23      0.00
   -6  -14    7     -0.87      0.00
   -5  -14    7      1.16      0.00
   -4  -14    7     -0.81      0.00
   -3  -14    7     -0.31      0.00
   -2  -14    7      0.27      0.00
   -1  -14    7      1.13      0.00
    0  -14    7     -0.23      0.00
    1  -14    7      0.49      0.00
    2  -14    7      0.00      0.00
    3  -14    7     -0.46      0.00
    4  -14    7     -0.51      0.00
    5  -14    7      0.26      0.00
    6  -14    7      0.35      0.00
    7  -14    7     -1.07      0.00
    8  -14    7      1.03      0.00
    9  -14    7      0.22      0.00
   10  -14    7     -0.68      0.00
   11  -14    7      0.07      0.00
   12  -14    7      0.92      0.00
   -7  -13    7     -0.66      0.00
   -6  -13    7      1.14      0.00
   -5  -13    7     -1.93      0.00
   -4  -13    7      2.29      0.00
   -3  -13    7     -2.78      0.00
   -2  -13    7      1.44      0.00
   -1  -13    7      1.15      0.00
    0  -13    7     -0.09      0.00
    1  -13    7     -0.36      0.00
    2  -13    7      0.38      0.00
    3  -13    7     -0.90      0.00
    4  -13    7      0.87      0.00
    5  -13    7     -1.13      0.00
    6  -13    7      0.75      0.00
    7  -13    7      0.30      0.00
    8  -13    7     -0.28      0.00
    9  -13    7     -0.46      0.00
   10  -13    7      1.79      0.00
   11  -13    7     -2.41      0.00
   12  -13    7      1.42      0.00
   -8  -12    7     -2.36      0.00
   -7  -12    7      2.08      0.00
   -6  -12    7     -0.89      0.00
   -5  -12    7     -0.45      0.00
   -4  -12    7      0.39      0.00
   -3  -12    7     -0.84      0.00
   -2  -12    7     -0.19      0.00
   -1  -12    7      2.40      0.00
    0  -12    7     -0.92      0.00
    1  -12    7     -0.12      0.00
    2  -12    7      0.24      0.00
    3  -12    7      0.14      0.00
    4  -12    7     -1.02      0.00
    5  -12    7      1.58      0.00
    6  -12    7     -1.93      0.00
    7  -12    7      2.83      0.00
    8  -12    7     -2.48      0.00
    9  -12    7      0.77      0.00
   10  -12    7      1.37      0.00
   11  -12    7     -2.87      0.00
   12  -12    7      1.75      0.00
   13  -12    7     -0.41      0.00
   -9  -11    7     -1.23      0.00
   -8  -11    7      0.38      0.00
   -7  -11    7      0.12      0.00
   -6  -11    7     -0.07      0.00
   -5  -11    7     -0.66      0.00
   -4  -11    7      0.21      0.00
   -3  -11    7     -0.66      0.00
   -2  -11    7     -0.29      0.00
   -1  -11    7      2.10      0.00
    0  -11    7     -0.20      0.00
    1  -11    7     -0.53      0.00
    2  -11    7      0.91      0.00
    3  -11    7     -0.63      0.00
    4  -11    7      0.08      0.00
    5  -11    7      0.21      0.00
    6  -11    7      0.12      0.00
    7  -11    7     -0.24      0.00
    8  -11    7      0.02      0.00
    9  -11    7      0.80      0.00
   10  -11    7     -2.03      0.00
   11  -11    7      0.90      0.00
   12  -11    7     -0.16      0.00
   13  -11    7      0.14      0.00
  -10  -10    7     -1.18      0.00
   -9  -10    7      1.73      0.00
   -8  -10    7     -0.92      0.00
   -7  -10    7     -1.96      0.00
   -6  -10    7      3.11      0.00
   -5  -10    7     -2.62      0.00
   -4  -10    7      0.37      0.00
   -3  -10    7     -0.01      0.00
   -2  -10    7     -0.62      0.00
   -1  -10    7      1.86      0.00
    0  -10    7      0.34      0.00
    1  -10    7      0.22      0.00
    2  -10    7     -0.06      0.00
    3  -10    7     -0.32      0.00
    4  -10    7      0.52      0.00
    5  -10    7      0.22      0.00
    6  -10    7     -1.94      0.00
    7  -10    7      2.25      0.00
    8  -10    7     -0.85      0.00
    9  -10    7     -0.36      0.00
   10  -10    7     -0.95      0.00
   11  -10    7     -0.12      0.00
   12  -10    7      1.98      0.00
   13  -10    7     -1.37      0.00
   14  -10    7      0.70      0.00
  -11   -9    7      2.75      0.00
  -10   -9    7     -2.83      0.00
   -9   -9    7      3.76      0.00
   -8   -9    7     -3.65      0.00
   -7   -9    7      0.95      0.00
   -6   -9    7     -0.29      0.00
   -5   -9    7     -0.21      0.00
   -4   -9    7      0.23      0.00
   -3   -9    7     -1.44      0.00
   -2   -9    7      1.36      0.00
   -1   -9    7      1.62      0.00
    0   -9    7     -0.99      0.00
    1   -9    7      2.37      0.00
    2   -9    7     -1.51      0.00
    3   -9    7      0.80      0.00
    4   -9    7     -0.50      0.00
    5   -9    7     -0.29      0.00
    6   -9    7     -0.82      0.00
    7   -9    7      1.13      0.00
    8   -9    7     -0.34      0.00
    9   -9    7     -0.71      0.00
   10   -9    7     -1.16      0.00
   11   -9    7      1.13      0.00
   12   -9    7      1.32      0.00
   13   -9    7     -1.88      0.00
   14   -9    7      2.10      0.00
  -11   -8    7      0.13      0.00
  -10   -8    7      1.06      0.00
   -9   -8    7     -0.40      0.00
   -8   -8    7     -1.01      0.00
   -7   -8    7      0.50      0.00
   -6   -8    7     -1.28      0.00
   -5   -8    7     -0.25      0.00
   -4   -8    7      1.45      0.00
   -3   -8    7     -2.30      0.00
   -2   -8    7      3.88      0.00
   -1   -8    7     -1.61      0.00
    0   -8    7      1.69      0.00
    1   -8    7     -0.12      0.00
    2   -8    7      1.63      0.00
    3   -8    7     -1.82      0.00
    4   -8    7      0.65      0.00
    5   -8    7     -1.51      0.00
    6   -8    7     -1.10      0.00
    7   -8    7      2.38      0.00
    8   -8    7     -0.78      0.00
    9   -8    7     -2.18      0.00
   10   -8    7      1.59      0.00
   11   -8    7     -0.12      0.00
   12   -8    7      0.08      0.00
   13   -8    7      1.06      0.00
   14   -8    7     -0.09      0.00
  -12   -7    7      1.39      0.00
  -11   -7    7      0.15      0.00
  -10   -7    7     -0.84      0.00
   -9   -7    7      0.37      0.00
   -8   -7    7      1.07      0.00
   -7   -7    7     -2.90      0.00
   -6   -7    7      1.27      0.00
   -5   -7    7     -1.38      0.00
   -4   -7    7      0.07      0.00
   -3   -7    7      2.98      0.00
   -2   -7    7     -0.91      0.00
   -1   -7    7      1.98      0.00
    0   -7    7     -2.09      0.00
    1   -7    7      2.19      0.00
    2   -7    7      1.96      0.00
    3   -7    7     -1.88      0.00
    4   -7    7     -1.36      0.00
    5   -7    7     -1.51      0.00
    6   -7    7     -0.79      0.00
    7   -7    7      3.71      0.00
    8   -7    7     -2.34      0.00
    9   -7    7     -0.87      0.00
   10   -7    7      0.45      0.00
   11   -7    7      1.09      0.00
   12   -7    7     -0.23      0.00
   13   -7    7      1.10      0.00
   14   -7    7     -1.27      0.00
  -12   -6    7     -0.44      0.00
  -11   -6    7      1.67      0.00
  -10   -6    7     -2.26      0.00
   -9   -6    7      1.12      0.00
   -8   -6    7      0.58      0.00
   -7   -6    7     -1.41      0.00
   -6   -6    7     -0.77      0.00
   -5   -6    7     -0.72      0.00
   -4   -6    7      1.66      0.00
   -3   -6    7      2.33      0.00
   -2   -6    7     -1.09      0.00
   -1   -6    7      3.51      0.00
    0   -6    7     -6.16      0.00
    1   -6    7      6.26      0.00
    2   -6    7      0.99      0.00
    3   -6    7     -1.55      0.00
    4   -6    7     -5.70      0.00
    5   -6    7      0.29      0.00
    6   -6    7      2.16      0.00
    7   -6    7      0.86      0.00
    8   -6    7     -1.40      0.00
    9   -6    7     -0.74      0.00
   10   -6    7      1.19      0.00
   11   -6    7      0.22      0.00
   12   -6    7      0.00      0.00
   13   -6    7      0.85      0.00
   14   -6    7     -1.32      0.00
  -13   -5    7      1.77      0.00
  -12   -5    7      0.80      0.00
  -11   -5    7     -2.34      0.00
  -10   -5    7      1.82      0.00
   -9   -5    7     -0.84      0.00
   -8   -5    7      0.68      0.00
   -7   -5    7     -1.09      0.00
   -6   -5    7     -1.65      0.00
   -5   -5    7      2.25      0.00
   -4   -5    7     -0.45      0.00
   -3   -5    7      1.16      0.00
   -2   -5    7      5.09      0.00
   -1   -5    7     -7.23      0.00
    0   -5    7      4.17      0.00
    1   -5    7      2.94      0.00
    2   -5    7     -2.21      0.00
    3   -5    7      2.04      0.00
    4   -5    7    -12.67      0.00
    5   -5    7      7.43      0.00
    6   -5    7      0.47      0.00
    7   -5    7     -0.78      0.00
    8   -5    7      0.18      0.00
    9   -5    7      0.09      0.00
   10   -5    7     -0.28      0.00
   11   -5    7      0.85      0.00
   12   -5    7      0.09      0.00
   13   -5    7     -0.89      0.00
   14   -5    7      1.67      0.00
  -13   -4    7      2.84      0.00
  -12   -4    7     -0.26      0.00
  -11   -4    7     -0.78      0.00
  -10   -4    7     -0.34      0.00
   -9   -4    7      1.22      0.00
   -8   -4    7     -0.40      0.00
   -7   -4    7     -2.45      0.00
   -6   -4    7      2.32      0.00
   -5   -4    7     -0.81      0.00
   -4   -4    7      2.11      0.00
   -3   -4    7     -0.61      0.00
   -2   -4    7      3.31      0.00
   -1   -4    7     -4.54      0.00
    0   -4    7      7.57      0.00
    1   -4    7     -4.59      0.00
    2   -4    7      2.80      0.00
    3   -4    7     -5.89      0.00
    4   -4    7     -4.68      0.00
    5   -4    7      3.86      0.00
    6   -4    7      2.37      0.00
    7   -4    7     -1.25      0.00
    8   -4    7      0.54      0.00
    9   -4    7     -0.49      0.00
   10   -4    7      0.57      0.00
   11   -4    7      0.22      0.00
   12   -4    7      0.06      0.00
   13   -4    7     -1.49      0.00
   14   -4    7      2.55      0.00
  -14   -3    7     -2.00      0.00
  -13   -3    7      2.37      0.00
  -12   -3    7      0.08      0.00
  -11   -3    7     -1.42      0.00
  -10   -3    7      0.88      0.00
   -9   -3    7      0.49      0.00
   -8   -3    7     -2.56      0.00
   -7   -3    7      1.93      0.00
   -6   -3    7     -0.39      0.00
   -4   -3    7     -1.51      0.00
   -3   -3    7      5.93      0.00
   -2   -3    7    -10.48      0.00
   -1   -3    7     18.32      0.00
    1   -3    7     10.73      0.00
    2   -3    7     -8.66      0.00
    3   -3    7     -1.50      0.00
    4   -3    7     -4.51      0.00
    5   -3    7      6.25      0.00
    6   -3    7      1.37      0.00
    7   -3    7     -1.95      0.00
    8   -3    7      0.91      0.00
    9   -3    7     -0.78      0.00
   10   -3    7      2.29      0.00
   11   -3    7     -1.91      0.00
   12   -3    7     -0.31      0.00
   13   -3    7      0.99      0.00
   14   -3    7     -0.13      0.00
  -14   -2    7     -0.79      0.00
  -13   -2    7      2.78      0.00
  -12   -2    7     -2.47      0.00
  -11   -2    7      1.66      0.00
  -10   -2    7     -1.21      0.00
   -9   -2    7     -0.01      0.00
   -8   -2    7     -0.04      0.00
   -7   -2    7     -0.42      0.00
   -6   -2    7      3.05      0.00
   -5   -2    7     -3.56      0.00
   -4   -2    7      4.92      0.00
   -3   -2    7     -4.43      0.00
   -2   -2    7      7.71      0.00
   -1   -2    7     -5.58      0.00
    0   -2    7      7.96      0.00
    1   -2    7    -13.41      0.00
    3   -2    7    -14.95      0.00
    4   -2    7      6.14      0.00
    5   -2    7      6.81      0.00
    6   -2    7     -3.44      0.00
    7   -2    7     -1.54      0.00
    8   -2    7      2.63      0.00
    9   -2    7      0.50      0.00
   10   -2    7     -0.97      0.00
   11   -2    7     -1.08      0.00
   12   -2    7      1.40      0.00
   13   -2    7     -0.76      0.00
   14   -2    7      0.27      0.00
  -14   -1    7      3.20      0.00
  -13   -1    7     -1.05      0.00
  -12   -1    7     -0.55      0.00
  -11   -1    7      1.29      0.00
  -10   -1    7     -2.39      0.00
   -9   -1    7      1.39      0.00
   -8   -1    7     -0.04      0.00
   -7   -1    7     -0.11      0.00
   -6   -1    7      1.94      0.00
   -5   -1    7     -2.41      0.00
   -4   -1    7      2.10      0.00
   -3   -1    7      4.49      0.00
   -2   -1    7     -6.59      0.00
   -1   -1    7      8.63      0.00
    0   -1    7     -7.40      0.00
    1   -1    7      0.91      0.00
    2   -1    7     -8.53      0.00
    3   -1    7     -0.39      0.00
    4   -1    7      9.87      0.00
    5   -1    7     -3.86      0.00
    6   -1    7      0.83      0.00
    7   -1    7     -0.69      0.00
    8   -1    7      1.79      0.00
    9   -1    7     -0.04      0.00
   10   -1    7     -0.11      0.00
   11   -1    7     -2.02      0.00
   12   -1    7      1.70      0.00
   13   -1    7      0.02      0.00
   14   -1    7     -1.13      0.00
  -15    0    7     -0.19      0.00
  -14    0    7      0.14      0.00
  -13    0    7      1.83      0.00
  -12    0    7     -2.49      0.00
  -11    0    7      1.12      0.00
  -10    0    7     -0.72      0.00
   -9    0    7     -0.70      0.00
   -8    0    7      2.76      0.00
   -7    0    7     -1.97      0.00
   -6    0    7      0.02      0.00
   -5    0    7      3.23      0.00
   -4    0    7     -0.42      0.00
   -3    0    7     -0.67      0.00
   -2    0    7      0.43      0.00
    0    0    7     -4.47      0.00
    1    0    7    -10.74      0.00
    2    0    7      7.03      0.00
    3    0    7     -4.68      0.00
    4    0    7     11.51      0.00
    5    0    7     -7.02      0.00
    6    0    7      1.14      0.00
    7    0    7      1.24      0.00
    8    0    7     -0.27      0.00
    9    0    7      1.96      0.00
   10    0    7     -2.53      0.00
   11    0    7     -0.12      0.00
   12    0    7      0.44      0.00
   13    0    7      0.59      0.00
   14    0    7     -0.86      0.00
  -15    1    7      0.39      0.00
  -14    1    7     -1.37      0.00
  -13    1    7      2.59      0.00
  -12    1    7     -1.18      0.00
  -11    1    7     -1.79      0.00
  -10    1    7      2.16      0.00
   -9    1    7     -1.55      0.00
   -8    1    7      1.45      0.00
   -7    1    7     -0.27      0.00
   -6    1    7     -1.34      0.00
   -5    1    7      8.15      0.00
   -4    1    7     -6.84      0.00
   -3    1    7     -5.69      0.00
   -2    1    7     18.82      0.00
   -1    1    7    -17.80      0.00
    0    1    7      4.58      0.00
    1    1    7    -10.68      0.00
    2    1    7      6.95      0.00
    3    1    7      3.27      0.00
    4    1    7      1.29      0.00
    5    1    7     -2.78      0.00
    6    1    7      0.38      0.00
    7    1    7      0.83      0.00
    8    1    7      0.86      0.00
    9    1    7      0.70      0.00
   10    1    7     -2.45      0.00
   11    1    7      0.54      0.00
   12    1    7     -0.62      0.00
   13    1    7      1.97      0.00
  -15    2    7     -3.42      0.00
  -14    2    7      2.14      0.00
  -13    2    7      1.18      0.00
  -12    2    7     -1.57      0.00
  -11    2    7     -0.22      0.00
  -10    2    7      0.48      0.00
   -9    2    7      0.02      0.00
   -8    2    7     -1.67      0.00
   -7    2    7      3.65      0.00
   -6    2    7      1.23      0.00
   -5    2    7     -3.25      0.00
   -4    2    7      2.81      0.00
   -3    2    7     -6.96      0.00
   -2    2    7     11.78      0.00
   -1    2    7    -11.04      0.00
    0    2    7      1.14      0.00
    1    2    7     -9.15      0.00
    2    2    7     10.33      0.00
    3    2    7      4.30      0.00
    4    2    7     -4.30      0.00
    5    2    7     -1.86      0.00
    6    2    7      3.22      0.00
    7    2    7     -0.35      0.00
    8    2    7     -0.37      0.00
    9    2    7      0.98      0.00
   10    2    7     -1.67      0.00
   11    2    7     -0.17      0.00
   12    2    7      0.25      0.00
   13    2    7      0.87      0.00
  -15    3    7     -1.77      0.00
  -14    3    7      1.24      0.00
  -13    3    7      1.71      0.00
  -12    3    7     -2.17      0.00
  -11    3    7      0.96      0.00
  -10    3    7     -1.04      0.00
   -9    3    7     -0.09      0.00
   -8    3    7      0.82      0.00
   -7    3    7      2.31      0.00
   -6    3    7      0.56      0.00
   -5    3    7     -6.60      0.00
   -4    3    7      9.33      0.00
   -3    3    7    -10.22      0.00
   -2    3    7      4.17      0.00
   -1    3    7      3.67      0.00
    0    3    7    -10.77      0.00
    1    3    7     -2.53      0.00
    2    3    7     14.33      0.00
    3    3    7     -3.12      0.00
    4    3    7     -4.25      0.00
    5    3    7      2.33      0.00
    6    3    7      0.67      0.00
    7    3    7      0.27      0.00
    8    3    7     -0.89      0.00
    9    3    7      0.35      0.00
   10    3    7     -0.81      0.00
   11    3    7      0.47      0.00
   12    3    7     -0.46      0.00
   13    3    7      1.06      0.00
  -15    4    7     -0.89      0.00
  -14    4    7      2.41      0.00
  -13    4    7     -0.97      0.00
  -12    4    7      0.12      0.00
  -11    4    7     -0.42      0.00
  -10    4    7     -0.87      0.00
   -9    4    7      0.27      0.00
   -8    4    7      2.95      0.00
   -7    4    7     -2.26      0.00
   -6    4    7      0.38      0.00
   -5    4    7      1.96      0.00
   -4    4    7     -5.47      0.00
   -3    4    7      2.99      0.00
   -2    4    7     -1.50      0.00
   -1    4    7      1.91      0.00
    0    4    7     -6.16      0.00
    1    4    7      0.54      0.00
    2    4    7      8.74      0.00
    3    4    7     -3.97      0.00
    4    4    7     -1.43      0.00
    5    4    7      2.37      0.00
    6    4    7     -0.91      0.00
    7    4    7      1.11      0.00
    8    4    7     -1.49      0.00
    9    4    7     -0.14      0.00
   10    4    7      1.09      0.00
   11    4    7     -1.15      0.00
   12    4    7      1.05      0.00
  -15    5    7     -0.21      0.00
  -14    5    7      1.26      0.00
  -13    5    7     -0.91      0.00
  -12    5    7      0.49      0.00
  -11    5    7     -1.15      0.00
  -10    5    7      0.51      0.00
   -9    5    7     -0.14      0.00
   -8    5    7      0.33      0.00
   -7    5    7      1.29      0.00
   -6    5    7     -1.42      0.00
   -5    5    7      0.17      0.00
   -4    5    7     -2.19      0.00
   -3    5    7      2.60      0.00
   -2    5    7     -4.39      0.00
   -1    5    7      5.21      0.00
    0    5    7     -6.28      0.00
    1    5    7      3.40      0.00
    2    5    7      1.68      0.00
    3    5    7      0.07      0.00
    4    5    7     -1.09      0.00
    5    5    7      1.08      0.00
    6    5    7     -0.35      0.00
    7    5    7      0.00      0.00
    8    5    7     -0.29      0.00
    9    5    7     -0.47      0.00
   10    5    7      0.95      0.00
   11    5    7     -0.38      0.00
   12    5    7      0.26      0.00
  -15    6    7      1.13      0.00
  -14    6    7     -0.49      0.00
  -13    6    7     -0.19      0.00
  -12    6    7     -0.87      0.00
  -11    6    7      2.26      0.00
  -10    6    7     -3.49      0.00
   -9    6    7      1.33      0.00
   -8    6    7      1.76      0.00
   -7    6    7     -1.77      0.00
   -6    6    7      1.96      0.00
   -5    6    7     -3.06      0.00
   -4    6    7      1.64      0.00
   -3    6    7     -1.59      0.00
   -2    6    7      1.03      0.00
   -1    6    7     -1.12      0.00
    0    6    7     -0.03      0.00
    1    6    7      0.58      0.00
    3    6    7     -0.10      0.00
    4    6    7      1.54      0.00
    5    6    7     -1.60      0.00
    6    6    7     -0.06      0.00
    7    6    7      0.19      0.00
    8    6    7      0.98      0.00
    9    6    7     -1.70      0.00
   10    6    7      1.04      0.00
   11    6    7      0.20      0.00
  -15    7    7     -0.23      0.00
  -14    7    7      1.65      0.00
  -13    7    7     -2.42      0.00
  -12    7    7      1.22      0.00
  -11    7    7     -0.93      0.00
  -10    7    7      0.36      0.00
   -9    7    7     -1.45      0.00
   -8    7    7      2.83      0.00
   -7    7    7     -1.58      0.00
   -6    7    7      1.67      0.00
   -5    7    7     -1.96      0.00
   -4    7    7     -1.18      0.00
   -3    7    7      3.54      0.00
   -2    7    7     -3.97      0.00
   -1    7    7      0.76      0.00
    0    7    7     -0.12      0.00
    1    7    7      2.26      0.00
    2    7    7     -1.34      0.00
    3    7    7      0.43      0.00
    4    7    7      1.57      0.00
    5    7    7     -1.08      0.00
    6    7    7     -1.96      0.00
    7    7    7      2.67      0.00
    8    7    7     -0.45      0.00
    9    7    7     -0.62      0.00
   10    7    7     -0.38      0.00
   11    7    7      1.67      0.00
  -15    8    7     -0.71      0.00
  -14    8    7      2.00      0.00
  -13    8    7     -1.83      0.00
  -12    8    7     -0.44      0.00
  -11    8    7      0.02      0.00
  -10    8    7      0.36      0.00
   -9    8    7      0.10      0.00
   -8    8    7     -0.73      0.00
   -7    8    7      3.88      0.00
   -6    8    7     -4.59      0.00
   -5    8    7      2.92      0.00
   -4    8    7     -2.24      0.00
   -3    8    7      1.40      0.00
   -2    8    7     -1.74      0.00
   -1    8    7     -1.64      0.00
    0    8    7      2.51      0.00
    1    8    7      2.39      0.00
    2    8    7     -3.37      0.00
    3    8    7      1.86      0.00
    4    8    7      0.45      0.00
    5    8    7     -1.41      0.00
    6    8    7      0.12      0.00
    7    8    7      1.05      0.00
    8    8    7     -0.16      0.00
    9    8    7     -0.21      0.00
   10    8    7     -0.60      0.00
  -14    9    7      1.73      0.00
  -13    9    7     -0.82      0.00
  -12    9    7     -1.83      0.00
  -11    9    7      0.84      0.00
  -10    9    7      1.27      0.00
   -9    9    7     -1.27      0.00
   -8    9    7      1.49      0.00
   -7    9    7      0.74      0.00
   -6    9    7     -1.98      0.00
   -5    9    7      1.36      0.00
   -4    9    7     -0.66      0.00
   -3    9    7     -1.73      0.00
   -2    9    7      0.69      0.00
   -1    9    7     -2.25      0.00
    0    9    7      4.34      0.00
    1    9    7     -0.46      0.00
    2    9    7     -0.71      0.00
    3    9    7     -0.18      0.00
    4    9    7      0.03      0.00
    5    9    7      0.45      0.00
    6    9    7     -1.12      0.00
    7    9    7      2.86      0.00
    8    9    7     -2.95      0.00
    9    9    7      1.44      0.00
   10    9    7     -0.08      0.00
  -14   10    7      1.97      0.00
  -13   10    7     -1.97      0.00
  -12   10    7     -0.02      0.00
  -11   10    7      0.46      0.00
  -10   10    7      0.65      0.00
   -9   10    7     -0.36      0.00
   -8   10    7      1.26      0.00
   -7   10    7     -0.39      0.00
   -6   10    7     -0.12      0.00
   -5   10    7     -1.13      0.00
   -4   10    7      1.01      0.00
   -3   10    7     -2.99      0.00
   -2   10    7      1.66      0.00
   -1   10    7     -0.68      0.00
    0   10    7      2.15      0.00
    1   10    7      0.24      0.00
    2   10    7     -0.34      0.00
    3   10    7     -1.06      0.00
    4   10    7      0.01      0.00
    5   10    7      0.72      0.00
    6   10    7      1.24      0.00
    7   10    7     -1.80      0.00
    8   10    7      0.85      0.00
    9   10    7      0.06      0.00
  -14   11    7     -0.62      0.00
  -13   11    7     -0.23      0.00
  -12   11    7     -0.20      0.00
  -11   11    7      1.12      0.00
  -10   11    7     -0.44      0.00
   -9   11    7      0.08      0.00
   -8   11    7      1.21      0.00
   -7   11    7     -0.08      0.00
   -6   11    7     -1.81      0.00
   -5   11    7      0.20      0.00
   -4   11    7     -0.20      0.00
   -3   11    7     -0.90      0.00
   -2   11    7      0.71      0.00
   -1   11    7     -0.30      0.00
    0   11    7      2.09      0.00
    1   11    7     -0.12      0.00
    2   11    7     -1.54      0.00
    3   11    7      1.58      0.00
    4   11    7     -2.43      0.00
    5   11    7      3.06      0.00
    6   11    7     -1.29      0.00
    7   11    7      0.02      0.00
    8   11    7      0.46      0.00
  -13   12    7     -1.55      0.00
  -12   12    7      1.27      0.00
  -11   12    7     -0.17      0.00
  -10   12    7      0.52      0.00
   -9   12    7      0.14      0.00
   -8   12    7     -0.43      0.00
   -7   12    7      0.62      0.00
   -6   12    7     -1.58      0.00
   -5   12    7     -0.20      0.00
   -4   12    7     -0.11      0.00
   -3   12    7      0.62      0.00
   -2   12    7     -0.59      0.00
   -1   12    7      0.74      0.00
    0   12    7      0.52      0.00
    1   12    7      0.69      0.00
    2   12    7     -1.50      0.00
    3   12    7      0.61      0.00
    4   12    7      0.74      0.00
    5   12    7     -0.97      0.00
    6   12    7      0.25      0.00
    7   12    7      1.30      0.00
  -13   13    7     -1.17      0.00
  -12   13    7     -0.24      0.00
  -11   13    7      1.75      0.00
  -10   13    7     -0.56      0.00
   -9   13    7      0.12      0.00
   -8   13    7     -0.27      0.00
   -7   13    7     -1.72      0.00
   -6   13    7      2.37      0.00
   -5   13    7     -1.99      0.00
   -4   13    7     -0.40      0.00
   -3   13    7      1.69      0.00
   -2   13    7     -1.06      0.00
   -1   13    7      0.86      0.00
    0   13    7      0.21      0.00
    1   13    7     -0.32      0.00
    2   13    7      0.64      0.00
    3   13    7     -0.11      0.00
    4   13    7     -0.16      0.00
    5   13    7     -0.53      0.00
    6   13    7      0.99      0.00
  -12   14    7     -1.61      0.00
  -11   14    7      2.57      0.00
  -10   14    7      0.30      0.00
   -9   14    7     -2.56      0.00
   -8   14    7      1.03      0.00
   -7   14    7     -0.59      0.00
   -6   14    7      0.98      0.00
   -5   14    7     -1.01      0.00
   -4   14    7      0.23      0.00
   -3   14    7     -0.55      0.00
   -2   14    7      1.26      0.00
   -1   14    7     -0.42      0.00
    0   14    7      0.47      0.00
    1   14    7     -0.12      0.00
    2   14    7      0.36      0.00
    3   14    7     -0.06      0.00
    4   14    7      0.47      0.00
    5   14    7     -1.93      0.00
  -11   15    7      0.60      0.00
  -10   15    7      0.84      0.00
   -9   15    7     -2.08      0.00
   -8   15    7      0.42      0.00
   -7   15    7      0.93      0.00
   -6   15    7     -0.94      0.00
   -5   15    7      1.37      0.00
   -4   15    7     -2.51      0.00
   -3   15    7      1.59      0.00
   -2   15    7      0.35      0.00
   -1   15    7     -0.33      0.00
    0   15    7      0.67      0.00
    1   15    7     -0.24      0.00
    2   15    7      0.43      0.00
    3   15    7     -0.55      0.00
   -9   16    7     -0.39      0.00
   -8   16    7      0.12      0.00
   -7   16    7      0.53      0.00
   -6   16    7     -0.52      0.00
   -5   16    7     -0.08      0.00
   -4   16    7     -0.06      0.00
   -3   16    7     -0.54      0.00
   -2   16    7      1.79      0.00
   -1   16    7     -1.03      0.00
    0   16    7      0.69      0.00
    1   16    7     -0.03      0.00
   -7   17    7     -0.80      0.00
   -6   17    7      1.41      0.00
   -5   17    7     -3.10      0.00
   -4   17    7      3.60      0.00
   -3   17    7     -2.13      0.00
   -2   17    7      0.62      0.00
   -1   17    7      1.21      0.00
   -1  -17    8      0.78      0.00
    0  -17    8     -0.17      0.00
    1  -17    8      0.39      0.00
    2  -17    8      0.02      0.00
    3  -17    8      0.22      0.00
    4  -17    8      1.08      0.00
    5  -17    8     -1.70      0.00
    6  -17    8      1.33      0.00
    7  -17    8     -0.64      0.00
   -3  -16    8     -0.75      0.00
   -2  -16    8      0.29      0.00
   -1  -16    8     -0.02      0.00
    0  -16    8      0.65      0.00
    1  -16    8     -0.32      0.00
    2  -16    8      0.72      0.00
    3  -16    8      0.11      0.00
    4  -16    8      0.88      0.00
    5  -16    8     -2.21      0.00
    6  -16    8      1.50      0.00
    7  -16    8     -0.62      0.00
    8  -16    8     -0.22      0.00
    9  -16    8     -0.56      0.00
   -5  -15    8     -2.02      0.00
   -4  -15    8      1.70      0.00
   -3  -15    8     -1.87      0.00
   -2  -15    8      1.28      0.00
   -1  -15    8      0.11      0.00
    0  -15    8     -0.29      0.00
    1  -15    8      0.35      0.00
    2  -15    8      1.18      0.00
    3  -15    8     -0.44      0.00
    4  -15    8     -0.65      0.00
    5  -15    8      0.47      0.00
    6  -15    8     -0.74      0.00
    7  -15    8     -0.14      0.00
    8  -15    8      0.51      0.00
    9  -15    8     -0.38      0.00
   10  -15    8     -0.08      0.00
   -6  -14    8     -1.03      0.00
   -5  -14    8      1.01      0.00
   -4  -14    8     -1.69      0.00
   -3  -14    8      0.54      0.00
   -2  -14    8      0.48      0.00
   -1  -14    8      0.33      0.00
    0  -14    8     -0.48      0.00
    1  -14    8      0.81      0.00
    2  -14    8      0.42      0.00
    3  -14    8     -0.13      0.00
    4  -14    8     -1.12      0.00
    5  -14    8      0.76      0.00
    6  -14    8     -0.28      0.00
    7  -14    8     -0.81      0.00
    8  -14    8      0.51      0.00
    9  -14    8      1.45      0.00
   10  -14    8     -1.87      0.00
   11  -14    8      0.91      0.00
   -7  -13    8     -1.22      0.00
   -6  -13    8      0.83      0.00
   -5  -13    8     -1.21      0.00
   -4  -13    8      0.61      0.00
   -3  -13    8     -1.03      0.00
   -2  -13    8      0.85      0.00
   -1  -13    8      0.74      0.00
    0  -13    8     -0.63      0.00
    1  -13    8      0.52      0.00
    2  -13    8      0.47      0.00
    3  -13    8     -0.98      0.00
    4  -13    8      0.91      0.00
    5  -13    8     -1.64      0.00
    6  -13    8      1.45      0.00
    7  -13    8     -0.49      0.00
    8  -13    8     -0.18      0.00
    9  -13    8      0.31      0.00
   10  -13    8      1.58      0.00
   11  -13    8     -2.66      0.00
   12  -13    8      1.50      0.00
   -8  -12    8     -1.98      0.00
   -7  -12    8      0.99      0.00
   -6  -12    8      0.51      0.00
   -5  -12    8     -2.00      0.00
   -4  -12    8      1.17      0.00
   -3  -12    8     -0.96      0.00
   -2  -12    8      0.29      0.00
   -1  -12    8      0.84      0.00
    0  -12    8     -0.07      0.00
    1  -12    8     -0.03      0.00
    2  -12    8      0.22      0.00
    3  -12    8      0.09      0.00
    4  -12    8     -0.95      0.00
    5  -12    8      1.22      0.00
    6  -12    8     -1.13      0.00
    7  -12    8      1.86      0.00
    8  -12    8     -1.56      0.00
    9  -12    8     -0.34      0.00
   10  -12    8      3.60      0.00
   11  -12    8     -4.53      0.00
   12  -12    8      1.59      0.00
   13  -12    8      0.02      0.00
   -9  -11    8      0.38      0.00
   -8  -11    8     -0.63      0.00
   -7  -11    8      0.35      0.00
   -6  -11    8     -0.12      0.00
   -5  -11    8     -0.32      0.00
   -4  -11    8     -0.55      0.00
   -3  -11    8     -0.02      0.00
   -2  -11    8     -0.72      0.00
   -1  -11    8      1.47      0.00
    0  -11    8      0.41      0.00
    1  -11    8     -1.14      0.00
    2  -11    8      1.80      0.00
    3  -11    8     -1.18      0.00
    4  -11    8     -0.26      0.00
    5  -11    8      1.21      0.00
    6  -11    8     -0.08      0.00
    7  -11    8     -0.45      0.00
    8  -11    8     -0.07      0.00
    9  -11    8      1.02      0.00
   10  -11    8     -1.15      0.00
   11  -11    8      0.08      0.00
   12  -11    8     -0.76      0.00
   13  -11    8      0.37      0.00
  -10  -10    8      1.21      0.00
   -9  -10    8     -0.42      0.00
   -8  -10    8      0.73      0.00
   -7  -10    8     -1.81      0.00
   -6  -10    8      1.52      0.00
   -5  -10    8     -1.20      0.00
   -4  -10    8      0.22      0.00
   -3  -10    8     -0.99      0.00
   -2  -10    8     -0.68      0.00
   -1  -10    8      2.30      0.00
    0  -10    8     -0.81      0.00
    1  -10    8      1.72      0.00
    2  -10    8     -1.42      0.00
    3  -10    8      1.10      0.00
    4  -10    8     -0.65      0.00
    5  -10    8      0.89      0.00
    6  -10    8     -0.27      0.00
    7  -10    8     -0.49      0.00
    8  -10    8      1.06      0.00
    9  -10    8     -1.22      0.00
   10  -10    8     -0.09      0.00
   11  -10    8     -0.40      0.00
   12  -10    8      0.27      0.00
   13  -10    8      0.54      0.00
  -11   -9    8      1.72      0.00
  -10   -9    8     -2.72      0.00
   -9   -9    8      4.27      0.00
   -8   -9    8     -2.62      0.00
   -7   -9    8     -0.92      0.00
   -6   -9    8      0.76      0.00
   -5   -9    8      0.18      0.00
   -4   -9    8     -0.84      0.00
   -3   -9    8     -0.88      0.00
   -2   -9    8     -0.23      0.00
   -1   -9    8      1.91      0.00
    0   -9    8      0.09      0.00
    1   -9    8      1.11      0.00
    2   -9    8     -0.10      0.00
    3   -9    8     -0.20      0.00
    4   -9    8     -0.24      0.00
    5   -9    8      1.34      0.00
    6   -9    8     -1.67      0.00
    7   -9    8      1.02      0.00
    8   -9    8     -1.10      0.00
    9   -9    8      1.03      0.00
   10   -9    8     -2.53      0.00
   11   -9    8      1.09      0.00
   12   -9    8      1.77      0.00
   13   -9    8     -2.54      0.00
   14   -9    8      2.28      0.00
  -11   -8    8      1.01      0.00
  -10   -8    8      0.03      0.00
   -9   -8    8      0.91      0.00
   -8   -8    8     -1.02      0.00
   -7   -8    8     -0.50      0.00
   -6   -8    8     -1.02      0.00
   -5   -8    8      1.11      0.00
   -4   -8    8     -0.06      0.00
   -3   -8    8     -2.49      0.00
   -2   -8    8      2.20      0.00
   -1   -8    8      0.20      0.00
    0   -8    8      1.30      0.00
    1   -8    8      0.14      0.00
    2   -8    8      1.84      0.00
    3   -8    8     -2.47      0.00
    4   -8    8      1.92      0.00
    5   -8    8     -1.10      0.00
    6   -8    8     -0.58      0.00
    7   -8    8     -0.04      0.00
    8   -8    8      0.78      0.00
    9   -8    8     -2.18      0.00
   10   -8    8      1.09      0.00
   11   -8    8     -0.81      0.00
   12   -8    8      1.97      0.00
   13   -8    8     -1.40      0.00
   14   -8    8      1.40      0.00
  -12   -7    8     -0.15      0.00
  -11   -7    8      0.33      0.00
  -10   -7    8      0.75      0.00
   -9   -7    8     -0.80      0.00
   -8   -7    8      0.58      0.00
   -7   -7    8     -1.61      0.00
   -6   -7    8      0.12      0.00
   -5   -7    8      0.34      0.00
   -4   -7    8     -2.08      0.00
   -3   -7    8      2.71      0.00
   -2   -7    8     -1.16      0.00
   -1   -7    8      1.38      0.00
    0   -7    8      1.43      0.00
    1   -7    8     -1.33      0.00
    2   -7    8      3.91      0.00
    3   -7    8     -2.23      0.00
    4   -7    8     -0.13      0.00
    5   -7    8     -0.73      0.00
    6   -7    8     -2.28      0.00
    7   -7    8      2.99      0.00
    8   -7    8     -1.03      0.00
    9   -7    8     -1.79      0.00
   10   -7    8      0.35      0.00
   11   -7    8      2.04      0.00
   12   -7    8     -1.01      0.00
   13   -7    8      0.27      0.00
   14   -7    8      0.50      0.00
  -12   -6    8      0.76      0.00
  -11   -6    8      1.15      0.00
  -10   -6    8     -1.93      0.00
   -9   -6    8      1.10      0.00
   -8   -6    8      0.05      0.00
   -7   -6    8     -1.18      0.00
   -6   -6    8      0.30      0.00
   -5   -6    8     -2.11      0.00
   -4   -6    8      2.00      0.00
   -3   -6    8     -0.32      0.00
   -2   -6    8      1.36      0.00
   -1   -6    8      2.94      0.00
    0   -6    8     -5.76      0.00
    1   -6    8      6.26      0.00
    2   -6    8      0.47      0.00
    3   -6    8      0.36      0.00
    4   -6    8     -4.71      0.00
    5   -6    8     -0.22      0.00
    6   -6    8     -0.16      0.00
    7   -6    8      2.28      0.00
    8   -6    8     -1.52      0.00
    9   -6    8     -1.43      0.00
   10   -6    8      1.66      0.00
   11   -6    8      0.43      0.00
   12   -6    8     -0.78      0.00
   13   -6    8      1.68      0.00
   14   -6    8     -1.69      0.00
  -13   -5    8     -0.20      0.00
  -12   -5    8      1.52      0.00
  -11   -5    8     -2.00      0.00
  -10   -5    8      1.46      0.00
   -9   -5    8     -0.78      0.00
   -8   -5    8      0.30      0.00
   -7   -5    8      0.18      0.00
   -6   -5    8     -2.64      0.00
   -5   -5    8      1.81      0.00
   -4   -5    8     -1.15      0.00
   -3   -5    8      1.63      0.00
   -2   -5    8      3.85      0.00
   -1   -5    8     -3.32      0.00
    0   -5    8     -0.52      0.00
    1   -5    8      5.09      0.00
    2   -5    8     -0.48      0.00
    3   -5    8      2.04      0.00
    4   -5    8    -10.02      0.00
    5   -5    8      2.41      0.00
    6   -5    8      2.14      0.00
    7   -5    8     -0.78      0.00
    8   -5    8      0.24      0.00
    9   -5    8     -0.54      0.00
   10   -5    8      0.12      0.00
   11   -5    8      0.51      0.00
   12   -5    8      0.45      0.00
   13   -5    8      0.22      0.00
   14   -5    8     -0.77      0.00
  -13   -4    8      1.47      0.00
  -12   -4    8      0.92      0.00
  -11   -4    8     -2.20      0.00
  -10   -4    8      1.26      0.00
   -9   -4    8      0.52      0.00
   -8   -4    8     -0.40      0.00
   -7   -4    8     -1.98      0.00
   -6   -4    8      1.53      0.00
   -5   -4    8     -1.55      0.00
   -4   -4    8      2.38      0.00
   -3   -4    8     -1.62      0.00
   -2   -4    8      6.82      0.00
   -1   -4    8     -7.64      0.00
    0   -4    8      6.70      0.00
    1   -4    8     -2.29      0.00
    2   -4    8      5.08      0.00
    3   -4    8     -4.21      0.00
    4   -4    8     -8.89      0.00
    5   -4    8      4.96      0.00
    6   -4    8      0.67      0.00
    7   -4    8      0.64      0.00
    8   -4    8     -0.29      0.00
    9   -4    8     -0.35      0.00
   10   -4    8     -0.94      0.00
   11   -4    8      2.37      0.00
   12   -4    8     -0.38      0.00
   13   -4    8     -1.51      0.00
   14   -4    8      1.46      0.00
  -14   -3    8     -3.65      0.00
  -13   -3    8      3.61      0.00
  -12   -3    8     -1.62      0.00
  -11   -3    8      0.20      0.00
  -10   -3    8      0.79      0.00
   -9   -3    8     -0.14      0.00
   -8   -3    8     -1.64      0.00
   -7   -3    8      1.04      0.00
   -6   -3    8     -0.44      0.00
   -5   -3    8     -0.07      0.00
   -4   -3    8      0.39      0.00
   -3   -3    8      4.30      0.00
   -2   -3    8     -6.20      0.00
   -1   -3    8     11.90      0.00
    0   -3    8    -14.06      0.00
    1   -3    8     15.48      0.00
    2   -3    8     -7.74      0.00
    3   -3    8     -3.66      0.00
    4   -3    8     -4.39      0.00
    5   -3    8      2.73      0.00
    6   -3    8      3.74      0.00
    7   -3    8     -1.46      0.00
    8   -3    8      0.05      0.00
    9   -3    8     -1.41      0.00
   10   -3    8      2.59      0.00
   11   -3    8     -1.17      0.00
   12   -3    8     -0.08      0.00
   13   -3    8      0.34      0.00
   14   -3    8     -0.44      0.00
  -14   -2    8     -2.89      0.00
  -13   -2    8      4.17      0.00
  -12   -2    8     -3.28      0.00
  -11   -2    8      1.71      0.00
  -10   -2    8      0.65      0.00
   -9   -2    8     -2.09      0.00
   -8   -2    8      0.91      0.00
   -7   -2    8     -0.84      0.00
   -6   -2    8      2.13      0.00
   -5   -2    8     -2.49      0.00
   -4   -2    8      1.81      0.00
   -3   -2    8      2.84      0.00
   -2   -2    8      0.26      0.00
   -1   -2    8     -2.43      0.00
    0   -2    8      4.21      0.00
    1   -2    8      0.27      0.00
    2   -2    8     -2.41      0.00
    3   -2    8     -9.09      0.00
    4   -2    8      2.40      0.00
    5   -2    8      3.21      0.00
    6   -2    8      1.88      0.00
    7   -2    8     -3.15      0.00
    8   -2    8      2.31      0.00
    9   -2    8     -0.46      0.00
   10   -2    8      0.00      0.00
   11   -2    8     -0.23      0.00
   12   -2    8      0.62      0.00
   13   -2    8     -0.98      0.00
   14   -2    8      0.88      0.00
  -14   -1    8      1.27      0.00
  -13   -1    8      1.59      0.00
  -12   -1    8     -2.76      0.00
  -11   -1    8      2.19      0.00
  -10   -1    8     -1.36      0.00
   -9   -1    8      0.06      0.00
   -8   -1    8      0.37      0.00
   -7   -1    8     -0.51      0.00
   -6   -1    8      1.25      0.00
   -5   -1    8     -1.25      0.00
   -4   -1    8      0.49      0.00
   -3   -1    8      7.47      0.00
   -2   -1    8     -6.80      0.00
   -1   -1    8     -2.17      0.00
    0   -1    8     16.27      0.00
    1   -1    8    -19.02      0.00
    2   -1    8      3.92      0.00
    3   -1    8     -3.06      0.00
    4   -1    8     -1.06      0.00
    5   -1    8      5.85      0.00
    6   -1    8     -1.27      0.00
    7   -1    8     -1.29      0.00
    8   -1    8      1.49      0.00
    9   -1    8      0.34      0.00
   10   -1    8     -0.36      0.00
   11   -1    8     -0.73      0.00
   12   -1    8      0.62      0.00
   13   -1    8     -0.22      0.00
   14   -1    8     -0.03      0.00
  -15    0    8     -2.74      0.00
  -14    0    8      3.57      0.00
  -13    0    8     -0.15      0.00
  -12    0    8     -2.31      0.00
  -11    0    8      1.95      0.00
  -10    0    8     -1.56      0.00
   -9    0    8      0.23      0.00
   -8    0    8      1.66      0.00
   -7    0    8     -2.28      0.00
   -6    0    8      1.71      0.00
   -5    0    8     -0.59      0.00
   -4    0    8      4.35      0.00
   -3    0    8     -0.54      0.00
   -2    0    8     -7.66      0.00
   -1    0    8     15.86      0.00
    0    0    8    -11.31      0.00
    1    0    8     -4.16      0.00
    2    0    8      2.30      0.00
    3    0    8     -4.87      0.00
    4    0    8      6.78      0.00
    5    0    8     -1.56      0.00
    6    0    8      0.51      0.00
    7    0    8     -0.69      0.00
    8    0    8      0.95      0.00
    9    0    8      1.06      0.00
   10    0    8     -0.73      0.00
   11    0    8     -1.49      0.00
   12    0    8      1.26      0.00
   13    0    8     -0.51      0.00
  -15    1    8     -0.05      0.00
  -14    1    8     -0.23      0.00
  -13    1    8      1.78      0.00
  -12    1    8     -1.10      0.00
  -11    1    8     -1.22      0.00
  -10    1    8      1.30      0.00
   -9    1    8     -0.86      0.00
   -8    1    8      0.91      0.00
   -7    1    8     -0.46      0.00
   -6    1    8     -1.04      0.00
   -5    1    8      7.33      0.00
   -4    1    8     -5.90      0.00
   -3    1    8     -1.95      0.00
   -2    1    8      9.39      0.00
   -1    1    8     -5.86      0.00
    0    1    8     -0.83      0.00
    1    1    8     -8.03      0.00
    2    1    8      5.73      0.00
    3    1    8     -3.17      0.00
    4    1    8      6.06      0.00
    5    1    8     -2.01      0.00
    6    1    8     -2.02      0.00
    7    1    8      2.06      0.00
    8    1    8      0.19      0.00
    9    1    8      1.98      0.00
   10    1    8     -3.21      0.00
   11    1    8      0.81      0.00
   12    1    8     -0.52      0.00
   13    1    8      1.16      0.00
  -15    2    8     -0.99      0.00
  -14    2    8      0.44      0.00
  -13    2    8      1.27      0.00
  -12    2    8     -0.14      0.00
  -11    2    8     -2.02      0.00
  -10    2    8      1.90      0.00
   -9    2    8     -2.22      0.00
   -8    2    8      1.98      0.00
   -7    2    8     -0.43      0.00
   -6    2    8      3.31      0.00
   -5    2    8     -3.40      0.00
   -4    2    8      4.03      0.00
   -3    2    8     -8.64      0.00
   -2    2    8     14.70      0.00
   -1    2    8    -13.50      0.00
    0    2    8      4.67      0.00
    1    2    8     -9.82      0.00
    2    2    8      5.41      0.00
    3    2    8      5.35      0.00
    4    2    8     -3.08      0.00
    5    2    8     -0.50      0.00
    6    2    8     -0.58      0.00
    7    2    8      2.58      0.00
    8    2    8     -1.17      0.00
    9    2    8      1.57      0.00
   10    2    8     -1.71      0.00
   11    2    8     -0.69      0.00
   12    2    8      0.33      0.00
   13    2    8      1.08      0.00
  -15    3    8     -2.97      0.00
  -14    3    8      2.19      0.00
  -13    3    8      1.29      0.00
  -12    3    8     -1.33      0.00
  -11    3    8     -0.07      0.00
  -10    3    8     -1.66      0.00
   -9    3    8      2.14      0.00
   -8    3    8     -2.09      0.00
   -7    3    8      6.00      0.00
   -6    3    8     -4.53      0.00
   -5    3    8     -1.36      0.00
   -4    3    8      8.41      0.00
   -3    3    8    -15.05      0.00
   -2    3    8     16.31      0.00
   -1    3    8     -9.66      0.00
    0    3    8     -2.86      0.00
    1    3    8     -2.48      0.00
    2    3    8      6.15      0.00
    3    3    8      3.12      0.00
    4    3    8     -4.53      0.00
    5    3    8     -0.21      0.00
    6    3    8      1.85      0.00
    7    3    8      0.60      0.00
    8    3    8     -0.88      0.00
    9    3    8      0.79      0.00
   10    3    8     -0.99      0.00
   11    3    8     -0.22      0.00
   12    3    8     -0.12      0.00
   13    3    8      1.11      0.00
  -15    4    8     -0.95      0.00
  -14    4    8      2.11      0.00
  -13    4    8      0.25      0.00
  -12    4    8     -0.74      0.00
  -11    4    8     -1.07      0.00
  -10    4    8     -0.03      0.00
   -9    4    8     -0.22      0.00
   -8    4    8      4.25      0.00
   -7    4    8     -4.66      0.00
   -6    4    8      3.58      0.00
   -5    4    8     -1.61      0.00
   -4    4    8     -2.03      0.00
   -3    4    8      2.25      0.00
   -2    4    8      0.41      0.00
   -1    4    8     -2.62      0.00
    0    4    8     -2.70      0.00
    1    4    8     -0.46      0.00
    2    4    8      4.78      0.00
    3    4    8      1.24      0.00
    4    4    8     -3.76      0.00
    5    4    8      1.24      0.00
    6    4    8      0.35      0.00
    7    4    8      1.26      0.00
    8    4    8     -1.36      0.00
    9    4    8      0.14      0.00
   10    4    8      0.04      0.00
   11    4    8     -0.33      0.00
   12    4    8      0.41      0.00
  -15    5    8     -0.49      0.00
  -14    5    8      2.77      0.00
  -13    5    8     -1.60      0.00
  -12    5    8     -0.24      0.00
  -11    5    8     -0.64      0.00
  -10    5    8      0.40      0.00
   -9    5    8      0.21      0.00
   -8    5    8      0.59      0.00
   -7    5    8      0.63      0.00
   -6    5    8     -1.80      0.00
   -5    5    8      1.12      0.00
   -4    5    8     -1.83      0.00
   -3    5    8      2.79      0.00
   -2    5    8     -3.32      0.00
   -1    5    8      0.92      0.00
    0    5    8     -1.63      0.00
    1    5    8     -0.66      0.00
    2    5    8      2.63      0.00
    3    5    8      1.61      0.00
    4    5    8     -2.62      0.00
    5    5    8      0.74      0.00
    6    5    8      0.45      0.00
    7    5    8      0.29      0.00
    8    5    8     -0.60      0.00
    9    5    8      0.10      0.00
   10    5    8     -0.64      0.00
   11    5    8      1.34      0.00
   12    5    8     -0.65      0.00
  -15    6    8      2.29      0.00
  -14    6    8     -1.25      0.00
  -13    6    8      0.20      0.00
  -12    6    8     -1.16      0.00
  -11    6    8      1.83      0.00
  -10    6    8     -2.64      0.00
   -9    6    8      1.52      0.00
   -8    6    8      0.85      0.00
   -7    6    8     -1.07      0.00
   -6    6    8     -0.13      0.00
   -5    6    8      0.93      0.00
   -4    6    8     -0.97      0.00
   -3    6    8     -0.59      0.00
   -2    6    8      1.22      0.00
   -1    6    8     -2.54      0.00
    0    6    8      1.73      0.00
    1    6    8     -2.57      0.00
    2    6    8      2.95      0.00
    3    6    8     -0.08      0.00
    4    6    8      0.70      0.00
    5    6    8     -1.64      0.00
    6    6    8      0.75      0.00
    7    6    8     -0.03      0.00
    8    6    8      0.64      0.00
    9    6    8     -1.60      0.00
   10    6    8      1.44      0.00
   11    6    8     -0.13      0.00
  -15    7    8      0.83      0.00
  -14    7    8      0.74      0.00
  -13    7    8     -2.20      0.00
  -12    7    8      1.24      0.00
  -11    7    8     -0.60      0.00
  -10    7    8     -0.21      0.00
   -9    7    8     -0.88      0.00
   -8    7    8      2.61      0.00
   -7    7    8     -3.44      0.00
   -6    7    8      5.05      0.00
   -5    7    8     -4.29      0.00
   -4    7    8      0.71      0.00
   -3    7    8      1.44      0.00
   -2    7    8     -2.03      0.00
   -1    7    8      0.19      0.00
    0    7    8     -0.66      0.00
    1    7    8      0.60      0.00
    2    7    8      0.31      0.00
    3    7    8      0.55      0.00
    4    7    8      0.96      0.00
    5    7    8     -1.05      0.00
    6    7    8     -1.29      0.00
    7    7    8      1.99      0.00
    8    7    8     -0.82      0.00
    9    7    8      0.26      0.00
   10    7    8     -0.07      0.00
   11    7    8      0.51      0.00
  -15    8    8     -1.09      0.00
  -14    8    8      2.03      0.00
  -13    8    8     -1.45      0.00
  -12    8    8     -0.72      0.00
  -11    8    8      0.03      0.00
  -10    8    8      0.70      0.00
   -9    8    8     -1.16      0.00
   -8    8    8      0.34      0.00
   -7    8    8      2.50      0.00
   -6    8    8     -1.67      0.00
   -5    8    8      0.22      0.00
   -4    8    8     -0.83      0.00
   -3    8    8      0.94      0.00
   -2    8    8     -0.99      0.00
   -1    8    8     -1.65      0.00
    0    8    8      1.18      0.00
    1    8    8      0.90      0.00
    2    8    8     -0.64      0.00
    3    8    8      0.75      0.00
    4    8    8      0.46      0.00
    5    8    8     -0.63      0.00
    6    8    8     -0.89      0.00
    7    8    8      0.58      0.00
    8    8    8      1.29      0.00
    9    8    8     -0.98      0.00
   10    8    8     -0.11      0.00
  -14    9    8      1.32      0.00
  -13    9    8     -0.38      0.00
  -12    9    8     -1.76      0.00
  -11    9    8      0.68      0.00
  -10    9    8      0.35      0.00
   -9    9    8     -0.37      0.00
   -8    9    8      0.35      0.00
   -7    9    8      2.53      0.00
   -6    9    8     -3.18      0.00
   -5    9    8      2.69      0.00
   -4    9    8     -2.78      0.00
   -3    9    8      1.13      0.00
   -2    9    8     -1.04      0.00
   -1    9    8     -1.37      0.00
    0    9    8      1.50      0.00
    1    9    8      1.76      0.00
    2    9    8     -2.31      0.00
    3    9    8      2.25      0.00
    4    9    8     -1.66      0.00
    5    9    8      1.00      0.00
    6    9    8     -1.29      0.00
    7    9    8      1.41      0.00
    8    9    8     -0.05      0.00
    9    9    8     -0.45      0.00
  -14   10    8      0.08      0.00
  -13   10    8     -0.02      0.00
  -12   10    8     -0.66      0.00
  -11   10    8     -0.32      0.00
  -10   10    8      0.65      0.00
   -9   10    8      0.60      0.00
   -8   10    8     -0.45      0.00
   -7   10    8      1.84      0.00
   -6   10    8     -0.96      0.00
   -5   10    8     -1.39      0.00
   -4   10    8      1.68      0.00
   -3   10    8     -2.98      0.00
   -2   10    8      1.30      0.00
   -1   10    8     -1.18      0.00
    0   10    8      1.36      0.00
    1   10    8      1.07      0.00
    2   10    8     -0.33      0.00
    3   10    8     -1.23      0.00
    4   10    8      1.02      0.00
    5   10    8     -0.41      0.00
    6   10    8      0.49      0.00
    7   10    8     -0.21      0.00
    8   10    8      0.24      0.00
  -14   11    8     -0.04      0.00
  -13   11    8      0.24      0.00
  -12   11    8     -1.10      0.00
  -11   11    8      1.28      0.00
  -10   11    8     -0.53      0.00
   -9   11    8     -0.02      0.00
   -8   11    8      1.82      0.00
   -7   11    8     -1.00      0.00
   -6   11    8      0.25      0.00
   -5   11    8     -1.17      0.00
   -4   11    8     -0.37      0.00
   -3   11    8      0.11      0.00
   -2   11    8     -0.82      0.00
   -1   11    8      0.34      0.00
    0   11    8      1.22      0.00
    1   11    8      0.16      0.00
    2   11    8     -0.27      0.00
    3   11    8      0.04      0.00
    4   11    8     -1.47      0.00
    5   11    8      2.54      0.00
    6   11    8     -1.14      0.00
    7   11    8     -0.18      0.00
    8   11    8      0.66      0.00
  -13   12    8     -2.32      0.00
  -12   12    8      1.51      0.00
  -11   12    8     -0.33      0.00
  -10   12    8      0.45      0.00
   -9   12    8      0.08      0.00
   -8   12    8     -0.42      0.00
   -7   12    8      1.81      0.00
   -6   12    8     -2.40      0.00
   -5   12    8      0.26      0.00
   -4   12    8     -1.09      0.00
   -3   12    8      1.50      0.00
   -2   12    8     -1.66      0.00
   -1   12    8      1.10      0.00
    0   12    8      0.48      0.00
    1   12    8      0.14      0.00
    2   12    8     -0.26      0.00
    3   12    8      0.09      0.00
    4   12    8      0.08      0.00
    5   12    8     -0.82      0.00
    6   12    8      2.16      0.00
    7   12    8     -1.68      0.00
  -12   13    8     -0.60      0.00
  -11   13    8      1.57      0.00
  -10   13    8     -0.09      0.00
   -9   13    8     -0.56      0.00
   -8   13    8      0.61      0.00
   -7   13    8     -1.34      0.00
   -6   13    8      1.57      0.00
   -5   13    8     -1.86      0.00
   -4   13    8     -0.48      0.00
   -3   13    8      1.32      0.00
   -2   13    8     -0.24      0.00
   -1   13    8     -0.45      0.00
    0   13    8      0.54      0.00
    1   13    8      0.36      0.00
    2   13    8      0.47      0.00
    3   13    8     -0.98      0.00
    4   13    8      0.71      0.00
    5   13    8     -0.47      0.00
    6   13    8      0.76      0.00
  -12   14    8     -1.44      0.00
  -11   14    8      2.56      0.00
  -10   14    8     -0.75      0.00
   -9   14    8     -0.12      0.00
   -8   14    8     -0.97      0.00
   -7   14    8      0.11      0.00
   -6   14    8      1.19      0.00
   -5   14    8     -1.71      0.00
   -4   14    8      0.88      0.00
   -3   14    8     -1.59      0.00
   -2   14    8      2.74      0.00
   -1   14    8     -2.29      0.00
    0   14    8      1.27      0.00
    1   14    8      0.28      0.00
    2   14    8     -0.07      0.00
    3   14    8     -0.12      0.00
    4   14    8      0.72      0.00
  -11   15    8      0.64      0.00
  -10   15    8      2.57      0.00
   -9   15    8     -4.01      0.00
   -8   15    8      1.13      0.00
   -7   15    8      0.44      0.00
   -6   15    8      0.18      0.00
   -5   15    8      0.21      0.00
   -4   15    8     -2.21      0.00
   -3   15    8      2.14      0.00
   -2   15    8     -0.82      0.00
   -1   15    8      0.35      0.00
    0   15    8      0.18      0.00
    1   15    8      0.39      0.00
    2   15    8     -0.24      0.00
    3   15    8      0.20      0.00
   -9   16    8     -0.87      0.00
   -8   16    8     -0.62      0.00
   -7   16    8      1.67      0.00
   -6   16    8     -0.53      0.00
   -5   16    8     -0.19      0.00
   -4   16    8     -1.05      0.00
   -3   16    8      0.87      0.00
   -2   16    8      0.58      0.00
   -1   16    8     -0.61      0.00
    0   16    8      0.40      0.00
    1   16    8      0.39      0.00
   -7   17    8     -0.31      0.00
   -6   17    8      0.78      0.00
   -5   17    8     -2.18      0.00
   -4   17    8      2.20      0.00
   -3   17    8     -1.59      0.00
   -2   17    8      1.35      0.00
    0  -17    9     -0.50      0.00
    1  -17    9      0.84      0.00
    2  -17    9     -0.16      0.00
    3  -17    9     -0.10      0.00
    4  -17    9      0.73      0.00
    5  -17    9     -0.27      0.00
    6  -17    9      0.37      0.00
    7  -17    9     -0.33      0.00
   -3  -16    9      0.47      0.00
   -2  -16    9     -0.89      0.00
   -1  -16    9      0.02      0.00
    0  -16    9      0.85      0.00
    1  -16    9     -0.11      0.00
    2  -16    9      0.26      0.00
    3  -16    9      0.03      0.00
    4  -16    9      1.23      0.00
    5  -16    9     -1.80      0.00
    6  -16    9      1.12      0.00
    7  -16    9     -0.08      0.00
    8  -16    9     -1.23      0.00
    9  -16    9      0.46      0.00
   -4  -15    9      1.64      0.00
   -3  -15    9     -1.65      0.00
   -2  -15    9      0.72      0.00
   -1  -15    9      0.13      0.00
    0  -15    9     -0.32      0.00
    1  -15    9      0.58      0.00
    2  -15    9      0.87      0.00
    3  -15    9     -0.82      0.00
    4  -15    9      1.23      0.00
    5  -15    9     -1.37      0.00
    6  -15    9      0.25      0.00
    7  -15    9     -0.12      0.00
    8  -15    9     -0.10      0.00
    9  -15    9     -0.71      0.00
   10  -15    9      1.09      0.00
   -6  -14    9      0.78      0.00
   -5  -14    9     -1.29      0.00
   -4  -14    9     -1.21      0.00
   -3  -14    9      1.15      0.00
   -2  -14    9     -0.21      0.00
   -1  -14    9      0.42      0.00
    0  -14    9     -0.69      0.00
    1  -14    9      0.78      0.00
    2  -14    9      0.63      0.00
    3  -14    9      0.08      0.00
    4  -14    9     -1.01      0.00
    5  -14    9      0.78      0.00
    6  -14    9     -0.85      0.00
    7  -14    9     -0.15      0.00
    8  -14    9     -0.35      0.00
    9  -14    9      1.86      0.00
   10  -14    9     -1.85      0.00
   11  -14    9      1.47      0.00
   -7  -13    9     -0.61      0.00
   -6  -13    9      0.50      0.00
   -5  -13    9     -0.71      0.00
   -4  -13    9     -1.56      0.00
   -3  -13    9      1.41      0.00
   -2  -13    9     -0.13      0.00
   -1  -13    9      0.52      0.00
    0  -13    9     -1.11      0.00
    1  -13    9      0.98      0.00
    2  -13    9      0.65      0.00
    3  -13    9     -0.50      0.00
    4  -13    9     -0.28      0.00
    5  -13    9     -0.45      0.00
    6  -13    9      0.98      0.00
    7  -13    9     -1.18      0.00
    8  -13    9      0.09      0.00
    9  -13    9      1.19      0.00
   10  -13    9      0.69      0.00
   11  -13    9     -1.97      0.00
   12  -13    9      1.46      0.00
   -8  -12    9      0.14      0.00
   -7  -12    9      0.15      0.00
   -6  -12    9      0.23      0.00
   -5  -12    9     -1.47      0.00
   -4  -12    9     -0.05      0.00
   -3  -12    9      0.25      0.00
   -2  -12    9      0.72      0.00
   -1  -12    9     -1.15      0.00
    0  -12    9      0.79      0.00
    1  -12    9      0.26      0.00
    2  -12    9     -0.17      0.00
    3  -12    9      0.29      0.00
    4  -12    9     -0.69      0.00
    5  -12    9      0.23      0.00
    6  -12    9      0.51      0.00
    7  -12    9     -0.23      0.00
    8  -12    9     -0.18      0.00
    9  -12    9     -0.59      0.00
   10  -12    9      4.10      0.00
   11  -12    9     -4.68      0.00
   12  -12    9      1.35      0.00
   -9  -11    9      2.64      0.00
   -8  -11    9     -1.70      0.00
   -7  -11    9      0.30      0.00
   -6  -11    9      0.77      0.00
   -5  -11    9     -1.61      0.00
   -4  -11    9     -0.02      0.00
   -3  -11    9      0.41      0.00
   -2  -11    9     -0.86      0.00
   -1  -11    9      0.48      0.00
    0  -11    9      0.59      0.00
    1  -11    9     -0.74      0.00
    2  -11    9      1.39      0.00
    3  -11    9     -1.20      0.00
    4  -11    9     -0.02      0.00
    5  -11    9      1.38      0.00
    6  -11    9     -0.57      0.00
    7  -11    9      0.20      0.00
    8  -11    9     -0.65      0.00
    9  -11    9      1.23      0.00
   10  -11    9     -0.01      0.00
   11  -11    9     -0.59      0.00
   12  -11    9     -1.35      0.00
   13  -11    9      0.44      0.00
  -10  -10    9      1.92      0.00
   -9  -10    9     -0.70      0.00
   -8  -10    9      1.42      0.00
   -7  -10    9     -1.53      0.00
   -6  -10    9      0.20      0.00
   -5  -10    9     -0.03      0.00
   -4  -10    9     -0.20      0.00
   -3  -10    9     -1.04      0.00
   -2  -10    9     -0.69      0.00
   -1  -10    9      1.95      0.00
    0  -10    9     -1.53      0.00
    1  -10    9      2.55      0.00
    2  -10    9     -2.36      0.00
    3  -10    9      2.06      0.00
    4  -10    9     -1.01      0.00
    5  -10    9      0.49      0.00
    6  -10    9      1.74      0.00
    7  -10    9     -2.84      0.00
    8  -10    9      2.62      0.00
    9  -10    9     -1.90      0.00
   10  -10    9      0.90      0.00
   11  -10    9     -0.27      0.00
   12  -10    9     -2.19      0.00
   13  -10    9      2.51      0.00
  -10   -9    9     -1.06      0.00
   -9   -9    9      2.41      0.00
   -8   -9    9     -0.10      0.00
   -7   -9    9     -1.91      0.00
   -6   -9    9      0.39      0.00
   -5   -9    9      0.20      0.00
   -4   -9    9     -0.29      0.00
   -3   -9    9     -1.11      0.00
   -2   -9    9     -0.96      0.00
   -1   -9    9      1.42      0.00
    0   -9    9      0.67      0.00
    1   -9    9      0.39      0.00
    2   -9    9      0.29      0.00
    3   -9    9     -0.12      0.00
    4   -9    9     -0.17      0.00
    5   -9    9      1.73      0.00
    6   -9    9     -1.01      0.00
    7   -9    9      0.27      0.00
    8   -9    9     -1.17      0.00
    9   -9    9      1.57      0.00
   10   -9    9     -2.45      0.00
   11   -9    9      1.17      0.00
   12   -9    9     -0.29      0.00
   13   -9    9     -0.18      0.00
  -11   -8    9      0.47      0.00
  -10   -8    9     -1.01      0.00
   -9   -8    9      2.24      0.00
   -8   -8    9     -0.11      0.00
   -7   -8    9     -1.97      0.00
   -6   -8    9     -0.84      0.00
   -5   -8    9      2.18      0.00
   -4   -8    9     -1.75      0.00
   -3   -8    9     -0.64      0.00
   -2   -8    9     -0.63      0.00
   -1   -8    9      1.08      0.00
    0   -8    9      0.98      0.00
    1   -8    9      1.13      0.00
    2   -8    9      0.49      0.00
    3   -8    9     -1.19      0.00
    4   -8    9      1.08      0.00
    5   -8    9      0.64      0.00
    6   -8    9     -0.21      0.00
    7   -8    9     -1.83      0.00
    8   -8    9      1.06      0.00
    9   -8    9     -0.68      0.00
   10   -8    9     -0.28      0.00
   11   -8    9     -1.42      0.00
   12   -8    9      3.72      0.00
   13   -8    9     -3.19      0.00
   14   -8    9      1.94      0.00
  -12   -7    9     -1.43      0.00
  -11   -7    9      0.27      0.00
  -10   -7    9      1.63      0.00
   -9   -7    9     -1.51      0.00
   -8   -7    9      1.22      0.00
   -7   -7    9     -1.47      0.00
   -6   -7    9     -1.07      0.00
   -5   -7    9      1.78      0.00
   -4   -7    9     -2.44      0.00
   -3   -7    9      1.62      0.00
   -2   -7    9     -1.81      0.00
   -1   -7    9      0.55      0.00
    0   -7    9      4.11      0.00
    1   -7    9     -3.39      0.00
    2   -7    9      4.97      0.00
    3   -7    9     -3.20      0.00
    4   -7    9      1.57      0.00
    5   -7    9     -0.32      0.00
    6   -7    9     -1.25      0.00
    7   -7    9     -0.20      0.00
    8   -7    9      0.61      0.00
    9   -7    9     -1.53      0.00
   10   -7    9     -0.47      0.00
   11   -7    9      2.09      0.00
   12   -7    9     -0.02      0.00
   13   -7    9     -1.55      0.00
   14   -7    9      1.69      0.00
  -12   -6    9      0.22      0.00
  -11   -6    9      0.47      0.00
  -10   -6    9     -0.07      0.00
   -9   -6    9     -0.38      0.00
   -8   -6    9      0.22      0.00
   -7   -6    9     -0.79      0.00
   -6   -6    9     -0.08      0.00
   -5   -6    9     -0.81      0.00
   -4   -6    9      0.48      0.00
   -3   -6    9     -1.45      0.00
   -2   -6    9      2.28      0.00
   -1   -6    9      0.20      0.00
    0   -6    9     -0.49      0.00
    1   -6    9      2.29      0.00
    2   -6    9      1.63      0.00
    3   -6    9      0.06      0.00
    4   -6    9     -2.34      0.00
    5   -6    9      0.72      0.00
    6   -6    9     -2.81      0.00
    7   -6    9      2.67      0.00
    8   -6    9     -1.48      0.00
    9   -6    9     -1.38      0.00
   10   -6    9      1.46      0.00
   11   -6    9      0.84      0.00
   12   -6    9     -0.61      0.00
   13   -6    9      0.01      0.00
   14   -6    9      0.31      0.00
  -13   -5    9     -1.31      0.00
  -12   -5    9      1.24      0.00
  -11   -5    9     -0.54      0.00
  -10   -5    9      0.16      0.00
   -9   -5    9     -0.44      0.00
   -8   -5    9      0.13      0.00
   -7   -5    9     -0.17      0.00
   -6   -5    9     -0.67      0.00
   -5   -5    9     -0.55      0.00
   -4   -5    9      0.05      0.00
   -3   -5    9     -0.15      0.00
   -1   -5    9      1.12      0.00
    0   -5    9     -2.82      0.00
    1   -5    9      4.34      0.00
    2   -5    9      0.98      0.00
    3   -5    9      1.65      0.00
    4   -5    9     -5.77      0.00
    5   -5    9     -0.82      0.00
    6   -5    9      1.98      0.00
    7   -5    9     -1.24      0.00
    8   -5    9      0.90      0.00
    9   -5    9     -1.37      0.00
   10   -5    9      1.18      0.00
   11   -5    9     -0.27      0.00
   12   -5    9      0.64      0.00
   13   -5    9      0.72      0.00
   14   -5    9     -1.92      0.00
  -13   -4    9     -1.09      0.00
  -12   -4    9      3.14      0.00
  -11   -4    9     -3.93      0.00
  -10   -4    9      2.58      0.00
   -9   -4    9     -0.32      0.00
   -8   -4    9     -0.79      0.00
   -7   -4    9     -0.73      0.00
   -6   -4    9      1.19      0.00
   -5   -4    9     -1.84      0.00
   -4   -4    9      0.66      0.00
   -3   -4    9     -0.33      0.00
   -2   -4    9      4.47      0.00
   -1   -4    9     -2.63      0.00
    0   -4    9      1.62      0.00
    1   -4    9     -0.76      0.00
    2   -4    9      6.71      0.00
    3   -4    9     -2.54      0.00
    4   -4    9     -8.62      0.00
    5   -4    9      3.37      0.00
    6   -4    9     -0.31      0.00
    7   -4    9      0.87      0.00
    8   -4    9      0.42      0.00
    9   -4    9     -0.89      0.00
   10   -4    9     -1.46      0.00
   11   -4    9      3.51      0.00
   12   -4    9     -1.31      0.00
   13   -4    9     -0.18      0.00
   14   -4    9     -0.45      0.00
  -14   -3    9     -3.73      0.00
  -13   -3    9      3.38      0.00
  -12   -3    9     -1.69      0.00
  -11   -3    9      0.22      0.00
  -10   -3    9      0.91      0.00
   -9   -3    9     -0.22      0.00
   -8   -3    9     -1.47      0.00
   -7   -3    9      1.07      0.00
   -6   -3    9     -0.64      0.00
   -5   -3    9     -0.69      0.00
   -4   -3    9      0.77      0.00
   -3   -3    9      0.40      0.00
   -2   -3    9      2.79      0.00
   -1   -3    9      1.47      0.00
    0   -3    9     -5.84      0.00
    1   -3    9      7.61      0.00
    2   -3    9      3.22      0.00
    3   -3    9     -8.51      0.00
    4   -3    9     -3.34      0.00
    5   -3    9      1.78      0.00
    6   -3    9      1.35      0.00
    7   -3    9      1.11      0.00
    8   -3    9     -0.78      0.00
    9   -3    9     -1.19      0.00
   10   -3    9      1.01      0.00
   11   -3    9      0.71      0.00
   12   -3    9     -0.12      0.00
   13   -3    9     -0.09      0.00
   14   -3    9     -0.97      0.00
  -14   -2    9     -2.72      0.00
  -13   -2    9      3.13      0.00
  -12   -2    9     -2.75      0.00
  -11   -2    9      1.65      0.00
  -10   -2    9      1.24      0.00
   -9   -2    9     -2.65      0.00
   -8   -2    9      0.99      0.00
   -7   -2    9      0.02      0.00
   -6   -2    9      0.00      0.00
   -5   -2    9     -1.27      0.00
   -3   -2    9      4.74      0.00
   -2   -2    9     -1.63      0.00
   -1   -2    9      2.76      0.00
    0   -2    9     -9.53      0.00
    1   -2    9     20.70      0.00
    2   -2    9    -15.82      0.00
    3   -2    9     -1.32      0.00
    4   -2    9      0.60      0.00
    5   -2    9     -2.79      0.00
    6   -2    9      6.09      0.00
    7   -2    9     -2.94      0.00
    8   -2    9      1.46      0.00
    9   -2    9     -1.34      0.00
   10   -2    9      0.24      0.00
   11   -2    9      0.96      0.00
   12   -2    9      0.33      0.00
   13   -2    9     -1.15      0.00
   14   -2    9      0.25      0.00
  -14   -1    9     -1.95      0.00
  -13   -1    9      4.14      0.00
  -12   -1    9     -4.05      0.00
  -11   -1    9      1.81      0.00
  -10   -1    9      0.93      0.00
   -9   -1    9     -1.97      0.00
   -8   -1    9      1.18      0.00
   -7   -1    9     -0.99      0.00
   -6   -1    9      0.75      0.00
   -5   -1    9     -1.07      0.00
   -4   -1    9      0.21      0.00
   -3   -1    9      6.79      0.00
   -2   -1    9     -1.41      0.00
   -1   -1    9    -12.77      0.00
    0   -1    9     25.92      0.00
    1   -1    9    -20.52      0.00
    2   -1    9      6.16      0.00
    3   -1    9     -4.40      0.00
    4   -1    9     -3.65      0.00
    5   -1    9      4.83      0.00
    6   -1    9      1.00      0.00
    7   -1    9     -1.06      0.00
    8   -1    9     -0.06      0.00
    9   -1    9      0.66      0.00
   10   -1    9     -0.92      0.00
   11   -1    9      1.16      0.00
   12   -1    9     -0.07      0.00
   13   -1    9     -1.02      0.00
  -14    0    9      3.53      0.00
  -13    0    9      0.51      0.00
  -12    0    9     -3.23      0.00
  -11    0    9      2.62      0.00
  -10    0    9     -1.06      0.00
   -9    0    9     -0.34      0.00
   -8    0    9      1.57      0.00
   -7    0    9     -2.76      0.00
   -6    0    9      2.12      0.00
   -5    0    9     -1.84      0.00
   -4    0    9      5.31      0.00
   -3    0    9      0.66      0.00
   -2    0    9     -7.40      0.00
   -1    0    9      9.22      0.00
    0    0    9     -0.76      0.00
    1    0    9     -5.55      0.00
    2    0    9     -1.27      0.00
    3    0    9      0.38      0.00
    4    0    9     -3.32      0.00
    5    0    9      4.56      0.00
    6    0    9      0.90      0.00
    7    0    9     -2.51      0.00
    8    0    9      1.20      0.00
    9    0    9      0.54      0.00
   10    0    9      0.14      0.00
   11    0    9     -1.10      0.00
   12    0    9      0.85      0.00
   13    0    9     -0.81      0.00
  -15    1    9     -2.81      0.00
  -14    1    9      3.23      0.00
  -13    1    9     -0.62      0.00
  -12    1    9     -0.59      0.00
  -11    1    9      0.00      0.00
  -10    1    9     -0.24      0.00
   -9    1    9      0.61      0.00
   -8    1    9     -0.55      0.00
   -7    1    9     -0.45      0.00
   -6    1    9      0.09      0.00
   -5    1    9      4.16      0.00
   -4    1    9     -3.15      0.00
   -3    1    9      3.79      0.00
   -2    1    9     -5.20      0.00
   -1    1    9      7.95      0.00
    0    1    9     -5.79      0.00
    1    1    9     -2.13      0.00
    2    1    9     -0.81      0.00
    3    1    9     -1.56      0.00
    4    1    9      2.78      0.00
    5    1    9      1.51      0.00
    6    1    9     -2.39      0.00
    7    1    9      0.78      0.00
    8    1    9      0.62      0.00
    9    1    9      1.39      0.00
   10    1    9     -1.79      0.00
   11    1    9      0.04      0.00
   12    1    9      0.39      0.00
   13    1    9     -0.63      0.00
  -15    2    9      0.29      0.00
  -14    2    9     -0.35      0.00
  -13    2    9      0.70      0.00
  -12    2    9      1.55      0.00
  -11    2    9     -3.50      0.00
  -10    2    9      2.98      0.00
   -9    2    9     -3.77      0.00
   -8    2    9      4.84      0.00
   -7    2    9     -5.19      0.00
   -6    2    9      7.16      0.00
   -5    2    9     -5.68      0.00
   -4    2    9      6.18      0.00
   -3    2    9     -5.60      0.00
   -2    2    9      3.58      0.00
   -1    2    9      0.01      0.00
    0    2    9     -0.72      0.00
    1    2    9     -7.78      0.00
    2    2    9      4.17      0.00
    3    2    9      0.74      0.00
    4    2    9      0.16      0.00
    5    2    9      0.97      0.00
    6    2    9     -2.75      0.00
    7    2    9      2.65      0.00
    8    2    9     -0.71      0.00
    9    2    9      1.43      0.00
   10    2    9     -1.14      0.00
   11    2    9     -0.72      0.00
   12    2    9     -0.05      0.00
   13    2    9      0.91      0.00
  -15    3    9     -3.66      0.00
  -14    3    9      3.36      0.00
  -13    3    9     -0.49      0.00
  -12    3    9      1.02      0.00
  -11    3    9     -1.71      0.00
  -10    3    9     -1.49      0.00
   -9    3    9      2.75      0.00
   -8    3    9     -2.73      0.00
   -7    3    9      6.30      0.00
   -6    3    9     -7.50      0.00
   -5    3    9      5.98      0.00
   -4    3    9      1.68      0.00
   -3    3    9    -11.41      0.00
   -2    3    9     15.07      0.00
   -1    3    9     -8.41      0.00
    0    3    9     -2.38      0.00
    1    3    9     -0.99      0.00
    2    3    9      1.10      0.00
    3    3    9      3.81      0.00
    4    3    9     -2.70      0.00
    5    3    9      0.18      0.00
    6    3    9     -0.32      0.00
    7    3    9      1.64      0.00
    8    3    9     -1.06      0.00
    9    3    9      1.24      0.00
   10    3    9     -0.49      0.00
   11    3    9     -1.33      0.00
   12    3    9      0.31      0.00
  -15    4    9     -2.10      0.00
  -14    4    9      2.30      0.00
  -13    4    9      0.81      0.00
  -12    4    9     -0.32      0.00
  -11    4    9     -2.56      0.00
  -10    4    9      1.14      0.00
   -9    4    9     -0.30      0.00
   -8    4    9      3.06      0.00
   -7    4    9     -3.50      0.00
   -6    4    9      3.53      0.00
   -5    4    9     -2.65      0.00
   -4    4    9      1.79      0.00
   -3    4    9     -3.63      0.00
   -2    4    9      6.85      0.00
   -1    4    9     -5.83      0.00
    0    4    9     -2.69      0.00
    1    4    9      2.14      0.00
    2    4    9     -0.77      0.00
    3    4    9      3.90      0.00
    4    4    9     -2.45      0.00
    5    4    9     -0.81      0.00
    6    4    9      0.80      0.00
    7    4    9      1.22      0.00
    8    4    9     -1.04      0.00
    9    4    9      0.66      0.00
   10    4    9     -0.49      0.00
   11    4    9     -0.70      0.00
   12    4    9      0.77      0.00
  -15    5    9     -1.15      0.00
  -14    5    9      3.87      0.00
  -13    5    9     -1.47      0.00
  -12    5    9     -1.59      0.00
  -11    5    9      0.89      0.00
  -10    5    9     -0.69      0.00
   -9    5    9      0.62      0.00
   -8    5    9      0.82      0.00
   -7    5    9     -0.02      0.00
   -6    5    9     -0.83      0.00
   -5    5    9     -0.18      0.00
   -4    5    9      0.62      0.00
   -3    5    9      0.03      0.00
   -2    5    9      0.58      0.00
   -1    5    9     -2.47      0.00
    0    5    9     -0.24      0.00
    1    5    9     -0.88      0.00
    2    5    9      0.77      0.00
    3    5    9      3.41      0.00
    4    5    9     -2.84      0.00
    5    5    9     -0.33      0.00
    6    5    9      1.00      0.00
    7    5    9      0.04      0.00
    8    5    9      0.40      0.00
    9    5    9     -0.35      0.00
   10    5    9     -1.61      0.00
   11    5    9      2.54      0.00
  -15    6    9      1.59      0.00
  -14    6    9      0.30      0.00
  -13    6    9     -0.77      0.00
  -12    6    9     -1.00      0.00
  -11    6    9      1.51      0.00
  -10    6    9     -1.98      0.00
   -9    6    9      1.73      0.00
   -8    6    9     -0.50      0.00
   -7    6    9      0.72      0.00
   -6    6    9     -2.74      0.00
   -5    6    9      4.15      0.00
   -4    6    9     -3.22      0.00
   -3    6    9      1.18      0.00
   -2    6    9      1.07      0.00
   -1    6    9     -3.65      0.00
    0    6    9      2.57      0.00
    1    6    9     -3.75      0.00
    2    6    9      3.22      0.00
    3    6    9      0.55      0.00
    4    6    9     -0.13      0.00
    5    6    9     -1.58      0.00
    6    6    9      0.52      0.00
    7    6    9      1.18      0.00
    8    6    9     -0.55      0.00
    9    6    9     -1.19      0.00
   10    6    9      1.24      0.00
   11    6    9      0.22      0.00
  -15    7    9      2.38      0.00
  -14    7    9     -1.21      0.00
  -13    7    9     -0.73      0.00
  -12    7    9      0.78      0.00
  -11    7    9     -0.79      0.00
  -10    7    9     -0.05      0.00
   -9    7    9      0.02      0.00
   -8    7    9      0.80      0.00
   -7    7    9     -2.31      0.00
   -6    7    9      3.76      0.00
   -5    7    9     -2.45      0.00
   -4    7    9      0.88      0.00
   -3    7    9     -0.69      0.00
   -2    7    9      1.39      0.00
   -1    7    9     -2.94      0.00
    0    7    9      1.29      0.00
    1    7    9     -1.37      0.00
    2    7    9      0.49      0.00
    3    7    9      2.44      0.00
    4    7    9     -1.02      0.00
    5    7    9     -1.44      0.00
    6    7    9      1.10      0.00
    7    7    9      0.25      0.00
    8    7    9     -1.14      0.00
    9    7    9      1.02      0.00
   10    7    9      0.12      0.00
  -14    8    9      1.04      0.00
  -13    8    9     -0.29      0.00
  -12    8    9     -1.52      0.00
  -11    8    9      0.70      0.00
  -10    8    9      0.25      0.00
   -9    8    9     -1.33      0.00
   -8    8    9      1.01      0.00
   -7    8    9      0.13      0.00
   -6    8    9      1.51      0.00
   -5    8    9     -1.89      0.00
   -4    8    9      1.21      0.00
   -3    8    9     -0.91      0.00
   -2    8    9      0.44      0.00
   -1    8    9     -1.85      0.00
    0    8    9      1.10      0.00
    1    8    9     -1.75      0.00
    2    8    9      2.18      0.00
    3    8    9      0.06      0.00
    4    8    9     -0.19      0.00
    5    8    9     -0.27      0.00
    6    8    9     -0.50      0.00
    7    8    9      0.23      0.00
    8    8    9      0.39      0.00
    9    8    9      0.06      0.00
   10    8    9      0.27      0.00
  -14    9    9      1.63      0.00
  -13    9    9     -0.71      0.00
  -12    9    9     -1.31      0.00
  -11    9    9      0.54      0.00
  -10    9    9     -0.01      0.00
   -9    9    9     -0.46      0.00
   -8    9    9      0.43      0.00
   -7    9    9      1.90      0.00
   -6    9    9     -1.67      0.00
   -5    9    9      1.73      0.00
   -4    9    9     -2.45      0.00
   -3    9    9      2.01      0.00
   -2    9    9     -2.38      0.00
   -1    9    9      0.48      0.00
    0    9    9     -0.97      0.00
    1    9    9      2.12      0.00
    2    9    9     -2.04      0.00
    3    9    9      2.74      0.00
    4    9    9     -2.08      0.00
    5    9    9      1.04      0.00
    6    9    9     -0.73      0.00
    7    9    9     -0.61      0.00
    8    9    9      2.06      0.00
    9    9    9     -1.30      0.00
  -14   10    9     -1.26      0.00
  -13   10    9      0.54      0.00
  -12   10    9     -0.16      0.00
  -11   10    9     -0.98      0.00
  -10   10    9      0.20      0.00
   -9   10    9      1.52      0.00
   -8   10    9     -1.72      0.00
   -7   10    9      3.05      0.00
   -6   10    9     -1.55      0.00
   -5   10    9     -0.45      0.00
   -4   10    9      0.81      0.00
   -3   10    9     -1.56      0.00
   -2   10    9     -0.18      0.00
   -1   10    9     -0.46      0.00
    0   10    9      0.61      0.00
    1   10    9      0.85      0.00
    2   10    9     -0.70      0.00
    3   10    9      0.16      0.00
    4   10    9      0.29      0.00
    5   10    9      0.03      0.00
    6   10    9     -0.52      0.00
    7   10    9     -0.22      0.00
    8   10    9      1.38      0.00
  -13   11    9      1.50      0.00
  -12   11    9     -2.01      0.00
  -11   11    9      1.33      0.00
  -10   11    9     -0.33      0.00
   -9   11    9     -0.24      0.00
   -8   11    9      1.85      0.00
   -7   11    9     -1.41      0.00
   -6   11    9      1.53      0.00
   -5   11    9     -1.33      0.00
   -4   11    9     -0.77      0.00
   -3   11    9      0.42      0.00
   -2   11    9     -1.37      0.00
   -1   11    9      0.73      0.00
    0   11    9      0.59      0.00
    1   11    9     -0.17      0.00
    2   11    9      0.42      0.00
    3   11    9     -0.82      0.00
    4   11    9      0.53      0.00
    5   11    9      0.62      0.00
    6   11    9     -1.09      0.00
    7   11    9      0.50      0.00
  -13   12    9     -2.35      0.00
  -12   12    9      1.23      0.00
  -11   12    9      0.14      0.00
  -10   12    9     -0.14      0.00
   -9   12    9      0.38      0.00
   -8   12    9     -0.59      0.00
   -7   12    9      1.57      0.00
   -6   12    9     -0.85      0.00
   -5   12    9     -0.33      0.00
   -4   12    9     -1.83      0.00
   -3   12    9      2.01      0.00
   -2   12    9     -2.25      0.00
   -1   12    9      1.70      0.00
    0   12    9      0.17      0.00
    1   12    9     -1.30      0.00
    2   12    9      1.67      0.00
    3   12    9     -0.22      0.00
    4   12    9     -1.21      0.00
    5   12    9      0.70      0.00
    6   12    9      1.52      0.00
  -12   13    9     -0.86      0.00
  -11   13    9      1.49      0.00
  -10   13    9      0.33      0.00
   -9   13    9     -1.77      0.00
   -8   13    9      1.37      0.00
   -7   13    9     -0.01      0.00
   -6   13    9      0.03      0.00
   -5   13    9     -1.09      0.00
   -4   13    9     -0.75      0.00
   -3   13    9      0.74      0.00
   -2   13    9      0.48      0.00
   -1   13    9     -1.07      0.00
    0   13    9      0.71      0.00
    1   13    9     -0.17      0.00
    2   13    9      1.23      0.00
    3   13    9     -1.47      0.00
    4   13    9      0.88      0.00
    5   13    9     -0.61      0.00
  -11   14    9      1.98      0.00
  -10   14    9     -1.98      0.00
   -9   14    9      1.84      0.00
   -8   14    9     -1.77      0.00
   -7   14    9      0.39      0.00
   -6   14    9      1.10      0.00
   -5   14    9     -1.95      0.00
   -4   14    9      1.04      0.00
   -3   14    9     -2.05      0.00
   -2   14    9      3.57      0.00
   -1   14    9     -3.32      0.00
    0   14    9      1.24      0.00
    1   14    9      1.00      0.00
    2   14    9     -0.49      0.00
    3   14    9     -0.48      0.00
    4   14    9      1.09      0.00
  -10   15    9      2.07      0.00
   -9   15    9     -2.72      0.00
   -8   15    9      0.54      0.00
   -7   15    9     -0.13      0.00
   -6   15    9      1.19      0.00
   -5   15    9     -1.04      0.00
   -4   15    9     -0.88      0.00
   -3   15    9      1.12      0.00
   -2   15    9     -0.49      0.00
   -1   15    9      0.17      0.00
    0   15    9     -0.08      0.00
    1   15    9      0.77      0.00
    2   15    9     -0.53      0.00
   -9   16    9     -1.44      0.00
   -8   16    9     -1.03      0.00
   -7   16    9      1.83      0.00
   -6   16    9      0.13      0.00
   -5   16    9     -0.84      0.00
   -4   16    9     -1.20      0.00
   -3   16    9      1.89      0.00
   -2   16    9     -1.04      0.00
   -1   16    9      0.52      0.00
    0   16    9     -0.49      0.00
   -5   17    9     -0.64      0.00
   -4   17    9      0.15      0.00
    0  -17   10     -0.39      0.00
    1  -17   10      0.99      0.00
    2  -17   10     -0.46      0.00
    3  -17   10      0.25      0.00
    4  -17   10      0.09      0.00
    5  -17   10      0.13      0.00
    6  -17   10      0.74      0.00
   -2  -16   10     -1.68      0.00
   -1  -16   10      0.36      0.00
    0  -16   10      0.12      0.00
    1  -16   10      0.82      0.00
    2  -16   10     -0.19      0.00
    3  -16   10     -0.03      0.00
    4  -16   10      0.59      0.00
    5  -16   10     -0.34      0.00
    6  -16   10      0.34      0.00
    7  -16   10      0.45      0.00
    8  -16   10     -1.80      0.00
   -4  -15   10      0.71      0.00
   -3  -15   10     -1.60      0.00
   -2  -15   10      0.76      0.00
   -1  -15   10     -0.89      0.00
    0  -15   10      0.59      0.00
    1  -15   10      0.34      0.00
    2  -15   10      0.95      0.00
    3  -15   10     -1.51      0.00
    4  -15   10      2.24      0.00
    5  -15   10     -1.85      0.00
    6  -15   10      0.72      0.00
    7  -15   10     -0.05      0.00
    8  -15   10     -0.81      0.00
    9  -15   10     -0.50      0.00
   10  -15   10      1.17      0.00
   -6  -14   10      2.33      0.00
   -5  -14   10     -2.42      0.00
   -4  -14   10     -0.88      0.00
   -3  -14   10      1.23      0.00
   -2  -14   10     -1.10      0.00
   -1  -14   10      0.79      0.00
    0  -14   10     -0.59      0.00
    1  -14   10      0.52      0.00
    2  -14   10      0.84      0.00
    3  -14   10     -0.39      0.00
    4  -14   10      0.27      0.00
    5  -14   10     -0.44      0.00
    6  -14   10     -0.23      0.00
    7  -14   10      0.14      0.00
    8  -14   10     -1.20      0.00
    9  -14   10      1.65      0.00
   10  -14   10     -1.14      0.00
   11  -14   10      1.66      0.00
   -7  -13   10      0.34      0.00
   -6  -13   10      1.56      0.00
   -5  -13   10     -1.82      0.00
   -4  -13   10     -1.95      0.00
   -3  -13   10      2.11      0.00
   -2  -13   10     -0.36      0.00
   -1  -13   10      0.08      0.00
    0  -13   10     -1.03      0.00
    1  -13   10      1.06      0.00
    2  -13   10      0.44      0.00
    3  -13   10      0.48      0.00
    4  -13   10     -1.89      0.00
    5  -13   10      1.35      0.00
    6  -13   10     -0.24      0.00
    7  -13   10     -1.13      0.00
    8  -13   10      0.18      0.00
    9  -13   10      1.26      0.00
   10  -13   10      0.20      0.00
   11  -13   10     -0.78      0.00
   -8  -12   10      1.90      0.00
   -7  -12   10      0.09      0.00
   -6  -12   10     -0.64      0.00
   -5  -12   10      0.36      0.00
   -4  -12   10     -2.86      0.00
   -3  -12   10      2.56      0.00
   -2  -12   10      0.16      0.00
   -1  -12   10     -1.89      0.00
    0  -12   10      0.91      0.00
    1  -12   10      0.44      0.00
    2  -12   10     -0.07      0.00
    3  -12   10      0.24      0.00
    4  -12   10     -0.89      0.00
    5  -12   10      0.09      0.00
    6  -12   10      1.51      0.00
    7  -12   10     -2.19      0.00
    8  -12   10      0.97      0.00
    9  -12   10      0.02      0.00
   10  -12   10      2.75      0.00
   11  -12   10     -3.30      0.00
   12  -12   10      1.25      0.00
   -9  -11   10      2.86      0.00
   -8  -11   10     -1.39      0.00
   -7  -11   10      0.62      0.00
   -6  -11   10      0.64      0.00
   -5  -11   10     -2.10      0.00
   -4  -11   10      0.60      0.00
   -3  -11   10      0.13      0.00
   -2  -11   10     -0.24      0.00
   -1  -11   10     -0.54      0.00
    0  -11   10      0.18      0.00
    1  -11   10      0.65      0.00
    2  -11   10     -0.19      0.00
    3  -11   10     -0.48      0.00
    4  -11   10     -0.05      0.00
    5  -11   10      1.30      0.00
    6  -11   10     -0.79      0.00
    7  -11   10      0.34      0.00
    8  -11   10     -0.50      0.00
    9  -11   10      0.93      0.00
   10  -11   10      0.94      0.00
   11  -11   10     -0.94      0.00
   12  -11   10     -1.23      0.00
  -10  -10   10      0.66      0.00
   -9  -10   10      0.92      0.00
   -8  -10   10      0.72      0.00
   -7  -10   10     -1.19      0.00
   -6  -10   10      0.18      0.00
   -5  -10   10      0.16      0.00
   -4  -10   10     -0.83      0.00
   -3  -10   10     -0.07      0.00
   -2  -10   10     -1.00      0.00
   -1  -10   10      1.07      0.00
    0  -10   10     -1.08      0.00
    1  -10   10      1.89      0.00
    2  -10   10     -1.96      0.00
    3  -10   10      1.34      0.00
    4  -10   10     -0.12      0.00
    5  -10   10      0.08      0.00
    6  -10   10      1.81      0.00
    7  -10   10     -2.49      0.00
    8  -10   10      2.07      0.00
    9  -10   10     -1.09      0.00
   10  -10   10      0.63      0.00
   11  -10   10      0.71      0.00
   12  -10   10     -3.72      0.00
   13  -10   10      2.58      0.00
  -10   -9   10      0.04      0.00
   -9   -9   10      0.45      0.00
   -8   -9   10      1.91      0.00
   -7   -9   10     -1.69      0.00
   -6   -9   10     -0.71      0.00
   -5   -9   10      0.45      0.00
   -4   -9   10      0.28      0.00
   -3   -9   10     -1.56      0.00
   -2   -9   10     -0.82      0.00
   -1   -9   10      0.85      0.00
    0   -9   10      0.45      0.00
    1   -9   10      0.19      0.00
    2   -9   10     -0.17      0.00
    3   -9   10      0.31      0.00
    4   -9   10      0.56      0.00
    5   -9   10      0.44      0.00
    6   -9   10      0.86      0.00
    7   -9   10     -0.97      0.00
    8   -9   10     -0.29      0.00
    9   -9   10      0.64      0.00
   10   -9   10     -0.98      0.00
   11   -9   10      1.16      0.00
   12   -9   10     -3.05      0.00
   13   -9   10      2.38      0.00
  -11   -8   10     -0.20      0.00
  -10   -8   10     -1.42      0.00
   -9   -8   10      2.21      0.00
   -8   -8   10      1.02      0.00
   -7   -8   10     -1.90      0.00
   -6   -8   10     -1.39      0.00
   -5   -8   10      2.20      0.00
   -4   -8   10     -2.24      0.00
   -3   -8   10      0.81      0.00
   -2   -8   10     -1.95      0.00
   -1   -8   10      0.31      0.00
    0   -8   10      1.14      0.00
    1   -8   10      1.82      0.00
    2   -8   10     -1.88      0.00
    3   -8   10      1.50      0.00
    4   -8   10     -0.16      0.00
    5   -8   10      1.44      0.00
    6   -8   10      0.28      0.00
    7   -8   10     -1.93      0.00
    8   -8   10      0.12      0.00
    9   -8   10      0.72      0.00
   10   -8   10     -0.93      0.00
   11   -8   10     -1.55      0.00
   12   -8   10      3.20      0.00
   13   -8   10     -2.63      0.00
  -12   -7   10     -0.88      0.00
  -11   -7   10     -0.48      0.00
  -10   -7   10      1.24      0.00
   -9   -7   10     -0.86      0.00
   -8   -7   10      1.68      0.00
   -7   -7   10     -1.45      0.00
   -6   -7   10     -1.44      0.00
   -5   -7   10      1.09      0.00
   -4   -7   10     -0.94      0.00
   -3   -7   10      0.57      0.00
   -2   -7   10     -2.36      0.00
   -1   -7   10      0.09      0.00
    0   -7   10      3.92      0.00
    1   -7   10     -2.43      0.00
    2   -7   10      3.44      0.00
    3   -7   10     -2.17      0.00
    4   -7   10      1.58      0.00
    5   -7   10      0.58      0.00
    6   -7   10      0.11      0.00
    7   -7   10     -2.68      0.00
    8   -7   10      1.28      0.00
    9   -7   10     -0.68      0.00
   10   -7   10     -1.02      0.00
   11   -7   10      1.15      0.00
   12   -7   10      1.19      0.00
   13   -7   10     -2.12      0.00
  -12   -6   10     -0.41      0.00
  -11   -6   10     -0.62      0.00
  -10   -6   10      2.05      0.00
   -9   -6   10     -2.01      0.00
   -8   -6   10      0.85      0.00
   -7   -6   10     -0.19      0.00
   -6   -6   10     -1.51      0.00
   -5   -6   10      0.86      0.00
   -4   -6   10     -0.83      0.00
   -3   -6   10     -0.76      0.00
   -1   -6   10     -2.26      0.00
    0   -6   10      4.30      0.00
    1   -6   10     -1.04      0.00
    2   -6   10      2.43      0.00
    3   -6   10     -1.03      0.00
    4   -6   10      0.64      0.00
    5   -6   10      0.65      0.00
    6   -6   10     -2.61      0.00
    7   -6   10      1.03      0.00
    8   -6   10     -1.11      0.00
    9   -6   10     -0.87      0.00
   10   -6   10      1.02      0.00
   11   -6   10      0.75      0.00
   12   -6   10      0.18      0.00
   13   -6   10     -1.66      0.00
   14   -6   10      1.79      0.00
  -13   -5   10     -0.25      0.00
  -12   -5   10     -0.90      0.00
  -11   -5   10      1.49      0.00
  -10   -5   10     -0.41      0.00
   -9   -5   10     -1.14      0.00
   -8   -5   10      1.02      0.00
   -7   -5   10     -1.56      0.00
   -6   -5   10      1.36      0.00
   -5   -5   10     -1.93      0.00
   -3   -5   10     -1.92      0.00
   -2   -5   10      1.81      0.00
   -1   -5   10     -0.08      0.00
    0   -5   10      1.35      0.00
    1   -5   10      0.55      0.00
    2   -5   10      1.80      0.00
    3   -5   10      1.62      0.00
    4   -5   10     -3.04      0.00
    5   -5   10     -0.01      0.00
    6   -5   10     -0.59      0.00
    7   -5   10     -0.75      0.00
    8   -5   10      0.46      0.00
    9   -5   10     -0.98      0.00
   10   -5   10      1.15      0.00
   11   -5   10     -0.05      0.00
   12   -5   10      0.52      0.00
   13   -5   10     -0.08      0.00
   14   -5   10     -1.09      0.00
  -13   -4   10     -2.66      0.00
  -12   -4   10      3.72      0.00
  -11   -4   10     -3.27      0.00
  -10   -4   10      2.15      0.00
   -9   -4   10     -0.97      0.00
   -8   -4   10     -0.69      0.00
   -7   -4   10     -0.35      0.00
   -6   -4   10      1.66      0.00
   -5   -4   10     -1.99      0.00
   -4   -4   10     -0.71      0.00
   -3   -4   10      1.33      0.00
   -2   -4   10     -1.23      0.00
   -1   -4   10      4.56      0.00
    0   -4   10     -2.40      0.00
    1   -4   10      0.02      0.00
    2   -4   10      5.82      0.00
    3   -4   10     -0.69      0.00
    4   -4   10     -5.55      0.00
    5   -4   10      0.67      0.00
    6   -4   10      0.31      0.00
    7   -4   10     -1.19      0.00
    8   -4   10      2.12      0.00
    9   -4   10     -2.04      0.00
   10   -4   10     -0.09      0.00
   11   -4   10      2.51      0.00
   12   -4   10     -1.24      0.00
   13   -4   10      0.23      0.00
   14   -4   10     -1.05      0.00
  -13   -3   10      2.21      0.00
  -12   -3   10     -0.45      0.00
  -11   -3   10     -0.96      0.00
  -10   -3   10      1.82      0.00
   -9   -3   10     -1.07      0.00
   -8   -3   10     -1.24      0.00
   -7   -3   10      1.15      0.00
   -6   -3   10     -0.09      0.00
   -5   -3   10     -0.89      0.00
   -4   -3   10     -0.26      0.00
   -3   -3   10     -1.55      0.00
   -2   -3   10      6.51      0.00
   -1   -3   10     -3.33      0.00
    0   -3   10      1.70      0.00
    1   -3   10     -2.95      0.00
    2   -3   10     12.90      0.00
    3   -3   10    -11.30      0.00
    4   -3   10     -1.14      0.00
    5   -3   10      1.09      0.00
    6   -3   10     -1.32      0.00
    7   -3   10      2.12      0.00
    8   -3   10     -0.44      0.00
    9   -3   10     -0.82      0.00
   10   -3   10     -0.62      0.00
   11   -3   10      2.41      0.00
   12   -3   10     -0.82      0.00
   13   -3   10      0.03      0.00
   14   -3   10     -0.98      0.00
  -14   -2   10     -0.79      0.00
  -13   -2   10      0.47      0.00
  -12   -2   10     -0.90      0.00
  -11   -2   10      1.28      0.00
  -10   -2   10      0.23      0.00
   -9   -2   10     -1.14      0.00
   -8   -2   10     -0.40      0.00
   -7   -2   10      1.60      0.00
   -6   -2   10     -1.97      0.00
   -5   -2   10      0.39      0.00
   -4   -2   10     -0.98      0.00
   -3   -2   10      2.37      0.00
   -2   -2   10      1.38      0.00
   -1   -2   10      4.14      0.00
    0   -2   10    -14.98      0.00
    1   -2   10     25.12      0.00
    2   -2   10    -16.30      0.00
    3   -2   10      2.31      0.00
    4   -2   10     -1.58      0.00
    5   -2   10     -3.54      0.00
    6   -2   10      4.26      0.00
    7   -2   10     -0.50      0.00
    8   -2   10      0.47      0.00
    9   -2   10     -1.38      0.00
   10   -2   10     -0.54      0.00
   11   -2   10      2.15      0.00
   12   -2   10      0.12      0.00
   13   -2   10     -0.90      0.00
  -14   -1   10     -2.54      0.00
  -13   -1   10      3.46      0.00
  -12   -1   10     -2.92      0.00
  -11   -1   10      0.86      0.00
  -10   -1   10      1.77      0.00
   -9   -1   10     -2.01      0.00
   -8   -1   10      0.49      0.00
   -7   -1   10     -0.43      0.00
   -6   -1   10      0.79      0.00
   -5   -1   10     -2.82      0.00
   -4   -1   10      2.62      0.00
   -3   -1   10      1.95      0.00
   -2   -1   10      3.71      0.00
   -1   -1   10    -10.73      0.00
    0   -1   10     13.44      0.00
    1   -1   10     -5.06      0.00
    2   -1   10      1.06      0.00
    3   -1   10     -5.38      0.00
    4   -1   10      0.89      0.00
    5   -1   10     -2.75      0.00
    6   -1   10      4.50      0.00
    7   -1   10     -0.35      0.00
    8   -1   10     -1.13      0.00
    9   -1   10      0.20      0.00
   10   -1   10     -1.06      0.00
   11   -1   10      2.15      0.00
   12   -1   10      0.20      0.00
   13   -1   10     -1.80      0.00
  -14    0   10      0.12      0.00
  -13    0   10      2.91      0.00
  -12    0   10     -4.01      0.00
  -11    0   10      2.21      0.00
  -10    0   10      0.67      0.00
   -9    0   10     -1.91      0.00
   -8    0   10      2.15      0.00
   -7    0   10     -3.05      0.00
   -6    0   10      1.74      0.00
   -5    0   10     -1.36      0.00
   -4    0   10      3.47      0.00
   -3    0   10      0.70      0.00
   -2    0   10     -0.06      0.00
   -1    0   10     -3.27      0.00
    0    0   10      7.46      0.00
    1    0   10     -3.83      0.00
    2    0   10     -2.71      0.00
    3    0   10      1.37      0.00
    4    0   10     -6.12      0.00
    5    0   10      4.49      0.00
    6    0   10      1.93      0.00
    7    0   10     -2.04      0.00
    8    0   10     -0.35      0.00
    9    0   10      1.46      0.00
   10    0   10     -1.33      0.00
   11    0   10      1.25      0.00
   12    0   10     -0.37      0.00
   13    0   10     -0.19      0.00
  -14    1   10      4.57      0.00
  -13    1   10     -1.62      0.00
  -12    1   10     -0.73      0.00
  -11    1   10      1.45      0.00
  -10    1   10     -1.11      0.00
   -9    1   10      0.73      0.00
   -8    1   10     -0.64      0.00
   -7    1   10     -0.78      0.00
   -6    1   10      0.50      0.00
   -5    1   10      2.03      0.00
   -4    1   10     -2.21      0.00
   -3    1   10      8.43      0.00
   -2    1   10    -11.09      0.00
   -1    1   10      8.22      0.00
    0    1   10     -2.60      0.00
    1    1   10      2.33      0.00
    2    1   10     -8.13      0.00
    3    1   10      4.40      0.00
    4    1   10     -3.84      0.00
    5    1   10      4.12      0.00
    6    1   10     -0.81      0.00
    7    1   10     -0.98      0.00
    8    1   10      0.99      0.00
    9    1   10      0.21      0.00
   10    1   10     -0.40      0.00
   11    1   10     -0.07      0.00
   12    1   10      0.91      0.00
   13    1   10     -1.79      0.00
  -15    2   10     -0.35      0.00
  -14    2   10      0.45      0.00
  -13    2   10     -0.39      0.00
  -12    2   10      2.47      0.00
  -11    2   10     -3.53      0.00
  -10    2   10      2.88      0.00
   -9    2   10     -3.50      0.00
   -8    2   10      4.44      0.00
   -7    2   10     -5.88      0.00
   -6    2   10      7.62      0.00
   -5    2   10     -7.26      0.00
   -4    2   10      8.53      0.00
   -3    2   10     -1.73      0.00
   -2    2   10     -7.47      0.00
   -1    2   10      9.89      0.00
    0    2   10     -3.44      0.00
    1    2   10     -4.40      0.00
    2    2   10      1.59      0.00
    3    2   10     -1.39      0.00
    4    2   10      0.75      0.00
    5    2   10      1.59      0.00
    6    2   10     -1.43      0.00
    7    2   10      0.31      0.00
    8    2   10      0.43      0.00
    9    2   10      0.23      0.00
   10    2   10      0.24      0.00
   11    2   10     -0.72      0.00
   12    2   10     -0.08      0.00
  -15    3   10     -3.30      0.00
  -14    3   10      3.67      0.00
  -13    3   10     -2.35      0.00
  -12    3   10      3.72      0.00
  -11    3   10     -3.39      0.00
  -10    3   10     -0.73      0.00
   -9    3   10      2.14      0.00
   -8    3   10     -1.20      0.00
   -7    3   10      2.60      0.00
   -6    3   10     -5.83      0.00
   -5    3   10      9.41      0.00
   -4    3   10     -4.61      0.00
   -3    3   10     -1.32      0.00
   -2    3   10      1.44      0.00
   -1    3   10      2.75      0.00
    0    3   10     -4.75      0.00
    1    3   10     -0.66      0.00
    2    3   10      0.78      0.00
    3    3   10      0.19      0.00
    4    3   10     -1.00      0.00
    5    3   10      2.63      0.00
    6    3   10     -2.51      0.00
    7    3   10      1.39      0.00
    8    3   10     -0.74      0.00
    9    3   10      1.14      0.00
   10    3   10      0.35      0.00
   11    3   10     -1.77      0.00
   12    3   10      0.06      0.00
  -15    4   10     -3.71      0.00
  -14    4   10      3.15      0.00
  -13    4   10      0.19      0.00
  -12    4   10      1.12      0.00
  -11    4   10     -3.99      0.00
  -10    4   10      1.86      0.00
   -9    4   10      0.39      0.00
   -8    4   10      0.58      0.00
   -7    4   10     -1.37      0.00
   -6    4   10      1.63      0.00
   -5    4   10     -0.04      0.00
   -4    4   10      1.82      0.00
   -3    4   10     -6.18      0.00
   -2    4   10      8.14      0.00
   -1    4   10     -4.33      0.00
    0    4   10     -2.89      0.00
    1    4   10      2.81      0.00
    2    4   10     -2.55      0.00
    3    4   10      1.96      0.00
    4    4   10      0.30      0.00
    5    4   10     -0.91      0.00
    6    4   10     -0.04      0.00
    7    4   10      0.81      0.00
    8    4   10     -0.93      0.00
    9    4   10      1.57      0.00
   10    4   10     -0.63      0.00
   11    4   10     -1.62      0.00
   12    4   10      1.51      0.00
  -15    5   10     -1.88      0.00
  -14    5   10      3.79      0.00
  -13    5   10     -0.50      0.00
  -12    5   10     -2.53      0.00
  -11    5   10      1.85      0.00
  -10    5   10     -1.32      0.00
   -9    5   10      0.68      0.00
   -8    5   10      0.71      0.00
   -7    5   10     -0.80      0.00
   -6    5   10      1.10      0.00
   -5    5   10     -1.88      0.00
   -4    5   10      3.55      0.00
   -3    5   10     -4.88      0.00
   -2    5   10      5.20      0.00
   -1    5   10     -3.08      0.00
    0    5   10     -1.69      0.00
    1    5   10      1.09      0.00
    2    5   10     -1.47      0.00
    3    5   10      3.15      0.00
    4    5   10     -1.64      0.00
    5    5   10     -0.23      0.00
    6    5   10      0.32      0.00
    7    5   10     -0.75      0.00
    8    5   10      2.17      0.00
    9    5   10     -1.47      0.00
   10    5   10     -1.20      0.00
   11    5   10      2.05      0.00
  -15    6   10     -0.03      0.00
  -14    6   10      2.67      0.00
  -13    6   10     -2.03      0.00
  -12    6   10     -1.24      0.00
  -11    6   10      2.48      0.00
  -10    6   10     -2.42      0.00
   -9    6   10      1.95      0.00
   -8    6   10     -1.61      0.00
   -7    6   10      1.79      0.00
   -6    6   10     -2.76      0.00
   -5    6   10      3.97      0.00
   -4    6   10     -3.33      0.00
   -3    6   10      1.60      0.00
   -2    6   10      0.89      0.00
   -1    6   10     -1.66      0.00
    0    6   10     -0.93      0.00
    1    6   10     -0.51      0.00
    2    6   10      0.73      0.00
    3    6   10      0.98      0.00
    4    6   10      0.36      0.00
    5    6   10     -1.55      0.00
    6    6   10     -0.43      0.00
    7    6   10      2.14      0.00
    8    6   10     -0.91      0.00
    9    6   10     -1.12      0.00
   10    6   10      0.73      0.00
   11    6   10      0.67      0.00
  -15    7   10      2.23      0.00
  -14    7   10     -1.46      0.00
  -13    7   10     -0.06      0.00
  -12    7   10      0.53      0.00
  -11    7   10     -1.16      0.00
  -10    7   10      0.73      0.00
   -9    7   10      0.29      0.00
   -8    7   10     -1.61      0.00
   -7    7   10      1.01      0.00
   -6    7   10      0.29      0.00
   -5    7   10      0.36      0.00
   -4    7   10      0.13      0.00
   -3    7   10     -1.72      0.00
   -2    7   10      4.04      0.00
   -1    7   10     -4.86      0.00
    0    7   10      1.71      0.00
    1    7   10     -1.42      0.00
    2    7   10     -0.29      0.00
    3    7   10      3.44      0.00
    4    7   10     -1.70      0.00
    5    7   10     -1.83      0.00
    6    7   10      2.09      0.00
    7    7   10     -0.40      0.00
    8    7   10     -0.93      0.00
    9    7   10      0.46      0.00
   10    7   10      0.56      0.00
  -14    8   10     -1.17      0.00
  -13    8   10      1.69      0.00
  -12    8   10     -2.15      0.00
  -11    8   10      0.99      0.00
  -10    8   10     -0.41      0.00
   -9    8   10     -0.40      0.00
   -8    8   10      0.14      0.00
   -7    8   10     -0.20      0.00
   -6    8   10      1.70      0.00
   -5    8   10     -1.01      0.00
   -4    8   10      1.01      0.00
   -3    8   10     -1.59      0.00
   -2    8   10      1.98      0.00
   -1    8   10     -2.38      0.00
    0    8   10      0.66      0.00
    1    8   10     -2.34      0.00
    2    8   10      2.40      0.00
    3    8   10      1.13      0.00
    4    8   10     -1.54      0.00
    5    8   10     -0.50      0.00
    6    8   10      0.92      0.00
    7    8   10     -0.26      0.00
    8    8   10     -0.96      0.00
    9    8   10      1.20      0.00
  -14    9   10      1.45      0.00
  -13    9   10     -0.21      0.00
  -12    9   10     -1.51      0.00
  -11    9   10      0.82      0.00
  -10    9   10     -0.39      0.00
   -9    9   10     -0.72      0.00
   -8    9   10      0.96      0.00
   -7    9   10      0.48      0.00
   -6    9   10      0.28      0.00
   -5    9   10     -0.02      0.00
   -4    9   10     -0.47      0.00
   -3    9   10      1.01      0.00
   -2    9   10     -1.80      0.00
   -1    9   10      0.59      0.00
    0    9   10     -1.41      0.00
    1    9   10      0.64      0.00
    2    9   10      0.06      0.00
    3    9   10      1.40      0.00
    4    9   10     -1.37      0.00
    5    9   10      0.20      0.00
    6    9   10      0.23      0.00
    7    9   10     -1.05      0.00
    8    9   10      1.15      0.00
    9    9   10     -0.23      0.00
  -14   10   10     -0.76      0.00
  -13   10   10     -0.20      0.00
  -12   10   10      0.46      0.00
  -11   10   10     -1.06      0.00
  -10   10   10     -0.24      0.00
   -9   10   10      1.35      0.00
   -8   10   10     -1.16      0.00
   -7   10   10      2.42      0.00
   -6   10   10     -1.45      0.00
   -5   10   10      0.37      0.00
   -4   10   10     -0.04      0.00
   -3   10   10      0.39      0.00
   -2   10   10     -2.06      0.00
   -1   10   10      0.24      0.00
    0   10   10      0.50      0.00
    1   10   10      0.00      0.00
    2   10   10     -0.52      0.00
    3   10   10      0.92      0.00
    4   10   10     -0.64      0.00
    5   10   10      0.99      0.00
    6   10   10     -1.15      0.00
    7   10   10     -0.90      0.00
    8   10   10      2.41      0.00
  -13   11   10      1.56      0.00
  -12   11   10     -1.67      0.00
  -11   11   10      0.59      0.00
  -10   11   10      0.37      0.00
   -9   11   10     -0.65      0.00
   -8   11   10      1.81      0.00
   -7   11   10     -1.21      0.00
   -6   11   10      0.74      0.00
   -5   11   10      0.40      0.00
   -4   11   10     -1.28      0.00
   -3   11   10      0.16      0.00
   -2   11   10     -1.16      0.00
   -1   11   10      0.27      0.00
    0   11   10      1.03      0.00
    1   11   10     -0.86      0.00
    2   11   10      0.11      0.00
    3   11   10     -0.47      0.00
    4   11   10      1.78      0.00
    5   11   10     -1.27      0.00
    6   11   10     -0.22      0.00
    7   11   10      0.05      0.00
  -13   12   10     -1.27      0.00
  -12   12   10      0.02      0.00
  -11   12   10      0.93      0.00
  -10   12   10     -0.36      0.00
   -9   12   10      0.53      0.00
   -8   12   10     -0.60      0.00
   -7   12   10      0.29      0.00
   -6   12   10      1.17      0.00
   -5   12   10     -0.64      0.00
   -4   12   10     -1.76      0.00
   -3   12   10      1.00      0.00
   -2   12   10     -1.59      0.00
   -1   12   10      1.97      0.00
    0   12   10     -0.48      0.00
    1   12   10     -1.71      0.00
    2   12   10      1.98      0.00
    3   12   10      0.07      0.00
    4   12   10     -1.68      0.00
    5   12   10      1.77      0.00
    6   12   10     -0.31      0.00
  -12   13   10     -1.05      0.00
  -11   13   10      1.59      0.00
  -10   13   10      0.52      0.00
   -9   13   10     -2.06      0.00
   -8   13   10      0.72      0.00
   -7   13   10      1.26      0.00
   -6   13   10     -0.45      0.00
   -5   13   10     -0.66      0.00
   -4   13   10     -0.71      0.00
   -3   13   10     -0.34      0.00
   -2   13   10      1.11      0.00
   -1   13   10     -0.82      0.00
    0   13   10      0.62      0.00
    1   13   10     -1.48      0.00
    2   13   10      2.29      0.00
    3   13   10     -1.31      0.00
    4   13   10      0.16      0.00
    5   13   10     -0.05      0.00
  -11   14   10      1.50      0.00
  -10   14   10     -2.08      0.00
   -9   14   10      1.39      0.00
   -8   14   10     -0.91      0.00
   -7   14   10      0.33      0.00
   -6   14   10      0.88      0.00
   -5   14   10     -1.49      0.00
   -4   14   10      0.13      0.00
   -3   14   10     -1.20      0.00
   -2   14   10      2.86      0.00
   -1   14   10     -2.97      0.00
    0   14   10      1.18      0.00
    1   14   10      0.58      0.00
    2   14   10     -0.47      0.00
    3   14   10     -0.11      0.00
  -10   15   10     -0.13      0.00
   -9   15   10     -0.07      0.00
   -8   15   10     -0.25      0.00
   -7   15   10     -0.44      0.00
   -6   15   10      1.41      0.00
   -5   15   10     -1.33      0.00
   -4   15   10     -0.10      0.00
   -3   15   10     -0.22      0.00
   -2   15   10      0.66      0.00
   -1   15   10     -0.36      0.00
    0   15   10     -0.33      0.00
    1   15   10      0.82      0.00
    2   15   10     -0.24      0.00
   -8   16   10     -0.90      0.00
   -7   16   10      0.98      0.00
   -6   16   10      0.86      0.00
   -5   16   10     -1.44      0.00
   -4   16   10     -0.48      0.00
   -3   16   10      1.39      0.00
   -2   16   10     -1.26      0.00
   -1   16   10      0.93      0.00
    1  -17   11      0.42      0.00
    2  -17   11     -0.68      0.00
    3  -17   11      0.77      0.00
    4  -17   11      0.06      0.00
    5  -17   11     -0.51      0.00
   -2  -16   11     -1.97      0.00
   -1  -16   11      0.59      0.00
    0  -16   11     -0.95      0.00
    1  -16   11      1.80      0.00
    2  -16   11     -0.88      0.00
    3  -16   11      0.50      0.00
    4  -16   11     -0.11      0.00
    5  -16   11      0.19      0.00
    6  -16   11      0.39      0.00
    7  -16   11      0.53      0.00
    8  -16   11     -1.71      0.00
   -4  -15   11      0.36      0.00
   -3  -15   11     -1.56      0.00
   -2  -15   11      0.95      0.00
   -1  -15   11     -2.19      0.00
    0  -15   11      1.45      0.00
    1  -15   11      0.01      0.00
    2  -15   11      1.09      0.00
    3  -15   11     -1.50      0.00
    4  -15   11      1.69      0.00
    5  -15   11     -1.07      0.00
    6  -15   11      0.63      0.00
    7  -15   11      0.25      0.00
    8  -15   11     -1.46      0.00
    9  -15   11     -0.09      0.00
   -5  -14   11     -0.89      0.00
   -4  -14   11     -1.19      0.00
   -3  -14   11      0.74      0.00
   -2  -14   11     -1.13      0.00
   -1  -14   11      0.29      0.00
    0  -14   11      0.01      0.00
    1  -14   11      0.02      0.00
    2  -14   11      1.33      0.00
    3  -14   11     -1.10      0.00
    4  -14   11      1.43      0.00
    5  -14   11     -1.80      0.00
    6  -14   11      1.19      0.00
    7  -14   11     -0.28      0.00
    8  -14   11     -1.67      0.00
    9  -14   11      1.37      0.00
   10  -14   11     -0.57      0.00
   -7  -13   11      1.02      0.00
   -6  -13   11      2.33      0.00
   -5  -13   11     -2.56      0.00
   -4  -13   11     -0.90      0.00
   -3  -13   11      0.69      0.00
   -2  -13   11      0.51      0.00
   -1  -13   11     -0.91      0.00
    0  -13   11     -0.25      0.00
    1  -13   11      0.86      0.00
    2  -13   11     -0.01      0.00
    3  -13   11      1.34      0.00
    4  -13   11     -2.50      0.00
    5  -13   11      1.74      0.00
    6  -13   11     -0.72      0.00
    7  -13   11     -0.53      0.00
    8  -13   11     -0.37      0.00
    9  -13   11      0.92      0.00
   10  -13   11      0.34      0.00
   11  -13   11      0.21      0.00
   -8  -12   11      1.51      0.00
   -7  -12   11      0.59      0.00
   -6  -12   11     -0.29      0.00
   -5  -12   11      0.91      0.00
   -4  -12   11     -4.37      0.00
   -3  -12   11      4.03      0.00
   -2  -12   11     -1.05      0.00
   -1  -12   11     -1.15      0.00
    0  -12   11      0.31      0.00
    1  -12   11      0.46      0.00
    2  -12   11      0.50      0.00
    3  -12   11     -0.11      0.00
    4  -12   11     -1.12      0.00
    5  -12   11      0.37      0.00
    6  -12   11      1.39      0.00
    7  -12   11     -2.74      0.00
    8  -12   11      1.32      0.00
    9  -12   11      0.69      0.00
   10  -12   11      0.86      0.00
   11  -12   11     -1.03      0.00
   12  -12   11      0.69      0.00
   -9  -11   11      1.00      0.00
   -8  -11   11      0.03      0.00
   -7  -11   11      1.00      0.00
   -6  -11   11     -0.49      0.00
   -5  -11   11     -0.88      0.00
   -4  -11   11      0.24      0.00
   -3  -11   11     -0.25      0.00
   -2  -11   11      0.43      0.00
   -1  -11   11     -0.99      0.00
    0  -11   11     -0.43      0.00
    1  -11   11      1.63      0.00
    2  -11   11     -1.15      0.00
    3  -11   11      0.41      0.00
    4  -11   11     -1.13      0.00
    5  -11   11      1.80      0.00
    6  -11   11     -0.82      0.00
    7  -11   11     -0.47      0.00
    8  -11   11      0.87      0.00
    9  -11   11     -0.01      0.00
   10  -11   11      1.37      0.00
   11  -11   11     -0.88      0.00
   12  -11   11     -0.54      0.00
   -9  -10   11      2.01      0.00
   -8  -10   11     -0.05      0.00
   -7  -10   11     -0.66      0.00
   -6  -10   11      0.41      0.00
   -5  -10   11      0.01      0.00
   -4  -10   11     -0.91      0.00
   -3  -10   11      0.52      0.00
   -2  -10   11     -1.11      0.00
   -1  -10   11      0.10      0.00
    0  -10   11     -0.13      0.00
    1  -10   11      0.64      0.00
    2  -10   11     -0.78      0.00
    3  -10   11     -0.18      0.00
    4  -10   11      0.72      0.00
    5  -10   11      0.29      0.00
    6  -10   11      0.30      0.00
    7  -10   11     -0.40      0.00
    8  -10   11      0.54      0.00
    9  -10   11      0.34      0.00
   10  -10   11     -0.45      0.00
   11  -10   11      1.68      0.00
   12  -10   11     -3.44      0.00
   13  -10   11      1.12      0.00
  -10   -9   11     -0.05      0.00
   -9   -9   11     -0.12      0.00
   -8   -9   11      2.15      0.00
   -7   -9   11     -0.83      0.00
   -6   -9   11     -1.47      0.00
   -5   -9   11      1.18      0.00
   -4   -9   11     -0.09      0.00
   -3   -9   11     -1.39      0.00
   -2   -9   11     -0.66      0.00
   -1   -9   11      0.48      0.00
    0   -9   11      0.14      0.00
    1   -9   11     -0.18      0.00
    2   -9   11     -0.16      0.00
    3   -9   11     -0.26      0.00
    4   -9   11      1.63      0.00
    5   -9   11     -0.65      0.00
    6   -9   11      1.64      0.00
    7   -9   11     -1.09      0.00
    8   -9   11      0.43      0.00
    9   -9   11     -0.38      0.00
   10   -9   11      0.29      0.00
   11   -9   11      0.89      0.00
   12   -9   11     -3.72      0.00
   13   -9   11      2.31      0.00
  -11   -8   11      0.54      0.00
  -10   -8   11     -1.79      0.00
   -9   -8   11      1.11      0.00
   -8   -8   11      1.85      0.00
   -7   -8   11     -0.71      0.00
   -6   -8   11     -2.20      0.00
   -5   -8   11      1.92      0.00
   -4   -8   11     -1.79      0.00
   -3   -8   11      0.61      0.00
   -2   -8   11     -1.34      0.00
   -1   -8   11     -1.07      0.00
    0   -8   11      1.70      0.00
    1   -8   11      1.30      0.00
    2   -8   11     -3.47      0.00
    3   -8   11      3.32      0.00
    4   -8   11     -0.13      0.00
    5   -8   11      0.26      0.00
    6   -8   11      1.58      0.00
    7   -8   11     -1.43      0.00
    8   -8   11     -0.76      0.00
    9   -8   11      1.17      0.00
   10   -8   11     -0.79      0.00
   11   -8   11     -1.01      0.00
   12   -8   11      1.13      0.00
   13   -8   11     -1.10      0.00
  -11   -7   11     -0.67      0.00
  -10   -7   11     -0.09      0.00
   -9   -7   11      0.38      0.00
   -8   -7   11      1.16      0.00
   -7   -7   11     -0.41      0.00
   -6   -7   11     -1.31      0.00
   -5   -7   11     -0.66      0.00
   -4   -7   11      0.73      0.00
   -3   -7   11     -0.21      0.00
   -2   -7   11     -2.20      0.00
   -1   -7   11      0.01      0.00
    0   -7   11      2.00      0.00
    1   -7   11     -0.39      0.00
    2   -7   11      0.55      0.00
    3   -7   11      0.09      0.00
    4   -7   11      0.78      0.00
    5   -7   11      1.72      0.00
    6   -7   11     -0.24      0.00
    7   -7   11     -1.78      0.00
    8   -7   11      0.07      0.00
    9   -7   11      0.01      0.00
   10   -7   11     -0.59      0.00
   11   -7   11     -0.10      0.00
   12   -7   11      1.37      0.00
   13   -7   11     -1.44      0.00
  -12   -6   11      0.46      0.00
  -11   -6   11     -2.08      0.00
  -10   -6   11      2.92      0.00
   -9   -6   11     -2.14      0.00
   -8   -6   11      0.88      0.00
   -7   -6   11      0.53      0.00
   -6   -6   11     -1.94      0.00
   -5   -6   11      0.20      0.00
   -3   -6   11      0.01      0.00
   -2   -6   11     -0.91      0.00
   -1   -6   11     -1.97      0.00
    0   -6   11      4.00      0.00
    1   -6   11     -0.60      0.00
    2   -6   11      0.93      0.00
    3   -6   11     -0.72      0.00
    4   -6   11      2.65      0.00
    5   -6   11     -0.51      0.00
    6   -6   11     -0.05      0.00
    7   -6   11     -1.66      0.00
    8   -6   11     -0.15      0.00
    9   -6   11     -0.95      0.00
   10   -6   11      1.28      0.00
   11   -6   11     -0.02      0.00
   12   -6   11      0.29      0.00
   13   -6   11     -1.07      0.00
  -12   -5   11     -2.81      0.00
  -11   -5   11      2.36      0.00
  -10   -5   11      0.25      0.00
   -9   -5   11     -2.22      0.00
   -8   -5   11      1.82      0.00
   -7   -5   11     -2.05      0.00
   -6   -5   11      1.73      0.00
   -5   -5   11     -1.89      0.00
   -4   -5   11      0.40      0.00
   -3   -5   11     -1.42      0.00
   -2   -5   11      1.87      0.00
   -1   -5   11     -4.51      0.00
    0   -5   11      7.12      0.00
    2   -5   11      0.77      0.00
    3   -5   11      2.89      0.00
    4   -5   11     -2.32      0.00
    5   -5   11      2.61      0.00
    6   -5   11     -3.41      0.00
    7   -5   11      0.46      0.00
    8   -5   11     -1.13      0.00
    9   -5   11      0.55      0.00
   10   -5   11     -0.17      0.00
   11   -5   11      1.45      0.00
   12   -5   11     -0.72      0.00
   13   -5   11     -0.26      0.00
  -13   -4   11     -1.97      0.00
  -12   -4   11      1.62      0.00
  -11   -4   11     -0.59      0.00
  -10   -4   11      0.98      0.00
   -9   -4   11     -1.55      0.00
   -8   -4   11     -0.18      0.00
   -7   -4   11     -0.31      0.00
   -6   -4   11      1.42      0.00
   -5   -4   11     -1.35      0.00
   -3   -4   11      1.83      0.00
   -2   -4   11     -3.83      0.00
   -1   -4   11      5.30      0.00
    0   -4   11     -0.89      0.00
    1   -4   11     -0.89      0.00
    2   -4   11      4.12      0.00
    3   -4   11      0.30      0.00
    4   -4   11     -2.13      0.00
    5   -4   11     -0.39      0.00
    6   -4   11      0.29      0.00
    7   -4   11     -2.78      0.00
    8   -4   11      2.81      0.00
    9   -4   11     -2.56      0.00
   10   -4   11      1.68      0.00
   11   -4   11      0.58      0.00
   12   -4   11     -0.20      0.00
   13   -4   11     -0.84      0.00
  -13   -3   11      1.44      0.00
  -12   -3   11     -0.21      0.00
  -11   -3   11     -0.93      0.00
  -10   -3   11      2.48      0.00
   -9   -3   11     -2.75      0.00
   -8   -3   11     -0.04      0.00
   -7   -3   11      0.44      0.00
   -6   -3   11      0.97      0.00
   -5   -3   11     -1.48      0.00
   -4   -3   11     -0.53      0.00
   -3   -3   11     -1.29      0.00
   -2   -3   11      3.43      0.00
   -1   -3   11     -1.13      0.00
    0   -3   11      3.11      0.00
    1   -3   11     -5.44      0.00
    2   -3   11     12.21      0.00
    3   -3   11     -8.73      0.00
    4   -3   11      1.57      0.00
    5   -3   11     -1.53      0.00
    6   -3   11     -0.55      0.00
    7   -3   11      0.18      0.00
    8   -3   11      0.65      0.00
    9   -3   11     -0.69      0.00
   10   -3   11     -0.60      0.00
   11   -3   11      2.17      0.00
   12   -3   11     -0.94      0.00
   13   -3   11     -0.22      0.00
  -14   -2   11      0.55      0.00
  -13   -2   11     -1.25      0.00
  -12   -2   11      0.52      0.00
  -11   -2   11      0.68      0.00
  -10   -2   11     -0.42      0.00
   -9   -2   11     -0.01      0.00
   -8   -2   11     -1.42      0.00
   -7   -2   11      2.09      0.00
   -6   -2   11     -2.31      0.00
   -5   -2   11      1.72      0.00
   -4   -2   11     -2.41      0.00
   -3   -2   11      0.29      0.00
   -2   -2   11      3.71      0.00
   -1   -2   11      1.21      0.00
    0   -2   11     -7.32      0.00
    1   -2   11     12.77      0.00
    2   -2   11     -6.59      0.00
    3   -2   11      2.09      0.00
    4   -2   11     -3.57      0.00
    5   -2   11     -0.19      0.00
    6   -2   11     -0.80      0.00
    7   -2   11      2.11      0.00
    8   -2   11     -0.23      0.00
    9   -2   11     -1.03      0.00
   10   -2   11     -1.04      0.00
   11   -2   11      2.56      0.00
   12   -2   11     -0.31      0.00
   13   -2   11     -0.47      0.00
  -14   -1   11      0.13      0.00
  -13   -1   11     -0.19      0.00
  -12   -1   11     -0.17      0.00
  -11   -1   11      0.25      0.00
  -10   -1   11      0.42      0.00
   -9   -1   11      0.22      0.00
   -8   -1   11     -1.50      0.00
   -7   -1   11      0.57      0.00
   -6   -1   11      1.00      0.00
   -5   -1   11     -4.10      0.00
   -4   -1   11      4.88      0.00
   -3   -1   11     -3.32      0.00
   -2   -1   11      5.36      0.00
   -1   -1   11     -1.85      0.00
    0   -1   11     -2.28      0.00
    1   -1   11      6.91      0.00
    2   -1   11     -1.81      0.00
    3   -1   11     -5.03      0.00
    4   -1   11      4.01      0.00
    5   -1   11     -7.10      0.00
    6   -1   11      5.30      0.00
    7   -1   11      0.03      0.00
    8   -1   11     -0.78      0.00
    9   -1   11     -0.90      0.00
   10   -1   11     -0.45      0.00
   11   -1   11      1.94      0.00
   12   -1   11      0.52      0.00
   13   -1   11     -1.74      0.00
  -14    0   11     -2.31      0.00
  -13    0   11      3.50      0.00
  -12    0   11     -3.09      0.00
  -11    0   11      1.09      0.00
  -10    0   11      1.66      0.00
   -9    0   11     -2.09      0.00
   -8    0   11      1.39      0.00
   -7    0   11     -2.26      0.00
   -6    0   11      1.33      0.00
   -5    0   11     -1.05      0.00
   -4    0   11      1.97      0.00
   -3    0   11     -1.27      0.00
   -2    0   11      6.26      0.00
   -1    0   11     -6.68      0.00
    0    0   11      3.05      0.00
    1    0   11      3.35      0.00
    2    0   11     -2.63      0.00
    3    0   11     -2.37      0.00
    4    0   11     -1.17      0.00
    5    0   11      0.04      0.00
    6    0   11      2.06      0.00
    7    0   11      0.15      0.00
    8    0   11     -2.26      0.00
    9    0   11      2.65      0.00
   10    0   11     -3.23      0.00
   11    0   11      3.11      0.00
   12    0   11     -0.87      0.00
   13    0   11      0.37      0.00
  -14    1   11      2.25      0.00
  -13    1   11     -0.69      0.00
  -12    1   11     -0.83      0.00
  -11    1   11      1.79      0.00
  -10    1   11     -0.62      0.00
   -9    1   11     -0.54      0.00
   -8    1   11      0.71      0.00
   -7    1   11     -1.98      0.00
   -6    1   11      1.16      0.00
   -5    1   11      0.89      0.00
   -4    1   11     -2.66      0.00
   -3    1   11      8.93      0.00
   -2    1   11     -7.03      0.00
   -1    1   11      1.05      0.00
    0    1   11      1.09      0.00
    1    1   11      5.38      0.00
    2    1   11    -10.42      0.00
    3    1   11      6.02      0.00
    4    1   11     -5.51      0.00
    5    1   11      3.21      0.00
    6    1   11      0.69      0.00
    7    1   11     -1.45      0.00
    8    1   11      0.82      0.00
    9    1   11     -0.08      0.00
   10    1   11     -0.98      0.00
   11    1   11      1.31      0.00
   12    1   11      0.49      0.00
  -14    2   11      1.45      0.00
  -13    2   11     -1.00      0.00
  -12    2   11      1.80      0.00
  -11    2   11     -1.57      0.00
  -10    2   11      1.49      0.00
   -9    2   11     -2.04      0.00
   -8    2   11      1.63      0.00
   -7    2   11     -2.07      0.00
   -6    2   11      3.11      0.00
   -5    2   11     -5.37      0.00
   -4    2   11      8.60      0.00
   -3    2   11     -0.51      0.00
   -2    2   11     -7.90      0.00
   -1    2   11      7.25      0.00
    0    2   11     -1.20      0.00
    1    2   11     -0.22      0.00
    2    2   11     -2.77      0.00
    3    2   11      0.19      0.00
    4    2   11     -0.39      0.00
    5    2   11      0.52      0.00
    6    2   11      1.29      0.00
    7    2   11     -1.43      0.00
    8    2   11      0.68      0.00
    9    2   11     -0.74      0.00
   10    2   11      1.16      0.00
   11    2   11     -0.52      0.00
   12    2   11      0.24      0.00
  -15    3   11     -2.10      0.00
  -14    3   11      2.72      0.00
  -13    3   11     -2.89      0.00
  -12    3   11      5.00      0.00
  -11    3   11     -4.09      0.00
  -10    3   11      0.19      0.00
   -9    3   11      1.14      0.00
   -8    3   11      0.25      0.00
   -7    3   11     -1.00      0.00
   -6    3   11     -2.23      0.00
   -5    3   11      7.16      0.00
   -4    3   11     -5.38      0.00
   -3    3   11      6.25      0.00
   -2    3   11     -9.83      0.00
   -1    3   11      9.63      0.00
    0    3   11     -4.88      0.00
    1    3   11      0.09      0.00
    2    3   11      0.64      0.00
    3    3   11     -2.24      0.00
    4    3   11     -0.76      0.00
    5    3   11      4.00      0.00
    6    3   11     -2.33      0.00
    7    3   11      0.02      0.00
    8    3   11     -0.04      0.00
    9    3   11      0.23      0.00
   10    3   11      1.35      0.00
   11    3   11     -1.68      0.00
   12    3   11     -0.26      0.00
  -15    4   11     -4.02      0.00
  -14    4   11      3.29      0.00
  -13    4   11     -0.58      0.00
  -12    4   11      2.25      0.00
  -11    4   11     -4.03      0.00
  -10    4   11      1.35      0.00
   -9    4   11      1.54      0.00
   -8    4   11     -1.41      0.00
   -7    4   11     -0.31      0.00
   -6    4   11      0.05      0.00
   -5    4   11      3.20      0.00
   -4    4   11     -1.43      0.00
   -3    4   11     -1.53      0.00
   -2    4   11      1.68      0.00
   -1    4   11     -0.28      0.00
    0    4   11     -0.99      0.00
    1    4   11      0.52      0.00
    2    4   11     -0.59      0.00
    3    4   11     -1.87      0.00
    4    4   11      1.80      0.00
    5    4   11      0.35      0.00
    6    4   11     -0.31      0.00
    7    4   11     -0.46      0.00
    8    4   11     -0.70      0.00
    9    4   11      2.21      0.00
   10    4   11     -0.89      0.00
   11    4   11     -1.50      0.00
  -15    5   11     -2.61      0.00
  -14    5   11      3.29      0.00
  -13    5   11     -0.07      0.00
  -12    5   11     -1.76      0.00
  -11    5   11      1.19      0.00
  -10    5   11     -0.98      0.00
   -9    5   11      0.66      0.00
   -8    5   11      0.19      0.00
   -7    5   11     -1.42      0.00
   -6    5   11      2.17      0.00
   -5    5   11     -1.55      0.00
   -4    5   11      3.86      0.00
   -3    5   11     -6.80      0.00
   -2    5   11      6.51      0.00
   -1    5   11     -2.55      0.00
    0    5   11     -1.40      0.00
    2    5   11     -1.06      0.00
    3    5   11      0.36      0.00
    4    5   11     -0.47      0.00
    5    5   11      1.55      0.00
    6    5   11     -1.13      0.00
    7    5   11     -1.16      0.00
    8    5   11      2.80      0.00
    9    5   11     -2.05      0.00
   10    5   11      0.15      0.00
   11    5   11      0.25      0.00
  -14    6   11      3.17      0.00
  -13    6   11     -1.82      0.00
  -12    6   11     -2.01      0.00
  -11    6   11      3.94      0.00
  -10    6   11     -3.35      0.00
   -9    6   11      2.07      0.00
   -8    6   11     -1.84      0.00
   -7    6   11      0.98      0.00
   -6    6   11     -0.40      0.00
   -5    6   11      1.97      0.00
   -4    6   11     -2.26      0.00
   -3    6   11      0.87      0.00
   -2    6   11      0.60      0.00
   -1    6   11      1.38      0.00
    0    6   11     -4.97      0.00
    1    6   11      3.78      0.00
    2    6   11     -2.13      0.00
    3    6   11      0.44      0.00
    4    6   11      1.15      0.00
    5    6   11     -0.80      0.00
    6    6   11     -0.86      0.00
    7    6   11      1.20      0.00
    8    6   11      0.11      0.00
    9    6   11     -1.37      0.00
   10    6   11      0.41      0.00
  -14    7   11      0.45      0.00
  -13    7   11     -0.86      0.00
  -12    7   11      0.36      0.00
  -11    7   11     -0.66      0.00
  -10    7   11      1.07      0.00
   -9    7   11     -0.05      0.00
   -8    7   11     -3.00      0.00
   -7    7   11      3.16      0.00
   -6    7   11     -1.13      0.00
   -5    7   11      0.78      0.00
   -4    7   11      0.38      0.00
   -3    7   11     -2.01      0.00
   -2    7   11      3.82      0.00
   -1    7   11     -2.64      0.00
    0    7   11     -0.93      0.00
    1    7   11      0.47      0.00
    2    7   11     -0.78      0.00
    3    7   11      1.69      0.00
    4    7   11     -0.13      0.00
    5    7   11     -1.56      0.00
    6    7   11      1.01      0.00
    7    7   11      0.02      0.00
    8    7   11     -0.37      0.00
    9    7   11     -0.71      0.00
   10    7   11      1.06      0.00
  -14    8   11     -2.60      0.00
  -13    8   11      2.74      0.00
  -12    8   11     -1.84      0.00
  -11    8   11      0.41      0.00
  -10    8   11     -0.18      0.00
   -9    8   11      0.04      0.00
   -8    8   11     -1.09      0.00
   -7    8   11      0.72      0.00
   -6    8   11      0.46      0.00
   -5    8   11      1.03      0.00
   -4    8   11     -0.75      0.00
   -3    8   11     -0.77      0.00
   -2    8   11      2.22      0.00
   -1    8   11     -1.30      0.00
    0    8   11     -1.55      0.00
    1    8   11     -0.27      0.00
    2    8   11      0.44      0.00
    3    8   11      2.39      0.00
    4    8   11     -2.25      0.00
    5    8   11     -0.43      0.00
    6    8   11      1.47      0.00
    7    8   11     -0.88      0.00
    8    8   11     -0.64      0.00
    9    8   11      0.66      0.00
  -14    9   11     -0.09      0.00
  -13    9   11      1.38      0.00
  -12    9   11     -1.76      0.00
  -11    9   11      0.86      0.00
  -10    9   11     -0.93      0.00
   -9    9   11     -0.14      0.00
   -8    9   11      0.35      0.00
   -7    9   11      0.27      0.00
   -6    9   11      0.88      0.00
   -5    9   11     -0.54      0.00
   -4    9   11      0.42      0.00
   -3    9   11     -0.04      0.00
   -2    9   11      0.22      0.00
   -1    9   11     -0.79      0.00
    0    9   11     -0.82      0.00
    1    9   11     -0.80      0.00
    2    9   11      1.69      0.00
    3    9   11      0.34      0.00
    4    9   11     -0.85      0.00
    5    9   11     -0.50      0.00
    6    9   11      0.76      0.00
    7    9   11     -0.35      0.00
    8    9   11     -0.90      0.00
  -13   10   11     -0.15      0.00
  -12   10   11     -0.17      0.00
  -11   10   11     -0.11      0.00
  -10   10   11     -0.77      0.00
   -9   10   11      0.24      0.00
   -8   10   11      0.63      0.00
   -7   10   11      1.08      0.00
   -6   10   11     -1.06      0.00
   -5   10   11      0.50      0.00
   -4   10   11     -0.24      0.00
   -3   10   11      1.54      0.00
   -2   10   11     -2.27      0.00
   -1   10   11     -0.35      0.00
    0   10   11      0.69      0.00
    1   10   11     -0.48      0.00
    2   10   11      0.00      0.00
    3   10   11      0.60      0.00
    4   10   11     -0.58      0.00
    5   10   11      0.99      0.00
    6   10   11     -1.36      0.00
    7   10   11     -0.48      0.00
    8   10   11      1.59      0.00
  -13   11   11      0.20      0.00
  -12   11   11     -0.30      0.00
  -11   11   11     -0.62      0.00
  -10   11   11      0.97      0.00
   -9   11   11     -0.92      0.00
   -8   11   11      1.76      0.00
   -7   11   11     -0.44      0.00
   -6   11   11     -0.92      0.00
   -5   11   11      1.79      0.00
   -4   11   11     -1.10      0.00
   -3   11   11      0.19      0.00
   -2   11   11     -0.91      0.00
   -1   11   11     -0.75      0.00
    0   11   11      1.85      0.00
    1   11   11     -1.52      0.00
    2   11   11      0.06      0.00
    3   11   11     -0.16      0.00
    4   11   11      1.93      0.00
    5   11   11     -2.02      0.00
    6   11   11      0.60      0.00
    7   11   11     -0.76      0.00
  -12   12   11     -1.19      0.00
  -11   12   11      1.26      0.00
  -10   12   11      0.07      0.00
   -9   12   11      0.11      0.00
   -8   12   11      0.06      0.00
   -7   12   11     -0.67      0.00
   -6   12   11      1.09      0.00
   -5   12   11      0.43      0.00
   -4   12   11     -1.11      0.00
   -3   12   11     -0.84      0.00
   -2   12   11      0.05      0.00
   -1   12   11      1.25      0.00
    0   12   11     -1.05      0.00
    1   12   11     -0.78      0.00
    2   12   11      0.90      0.00
    3   12   11      0.38      0.00
    4   12   11     -1.02      0.00
    5   12   11      1.32      0.00
    6   12   11     -1.02      0.00
  -12   13   11     -1.17      0.00
  -11   13   11      1.44      0.00
  -10   13   11      0.54      0.00
   -9   13   11     -0.91      0.00
   -8   13   11     -0.92      0.00
   -7   13   11      1.70      0.00
   -6   13   11     -0.12      0.00
   -5   13   11     -0.40      0.00
   -4   13   11     -0.17      0.00
   -3   13   11     -1.68      0.00
   -2   13   11      1.62      0.00
   -1   13   11     -0.07      0.00
    0   13   11     -0.43      0.00
    1   13   11     -1.36      0.00
    2   13   11      2.18      0.00
    3   13   11     -0.94      0.00
    4   13   11     -0.26      0.00
  -11   14   11      1.23      0.00
  -10   14   11     -1.07      0.00
   -9   14   11     -0.09      0.00
   -8   14   11     -0.03      0.00
   -7   14   11      0.13      0.00
   -6   14   11      0.93      0.00
   -5   14   11     -0.87      0.00
   -4   14   11     -0.86      0.00
   -3   14   11     -0.10      0.00
   -2   14   11      1.47      0.00
   -1   14   11     -2.03      0.00
    0   14   11      1.50      0.00
    1   14   11     -0.79      0.00
    2   14   11     -0.14      0.00
    3   14   11      0.89      0.00
   -9   15   11      0.82      0.00
   -8   15   11     -0.27      0.00
   -7   15   11     -0.30      0.00
   -6   15   11      0.84      0.00
   -5   15   11     -0.51      0.00
   -4   15   11     -0.57      0.00
   -3   15   11     -0.54      0.00
   -2   15   11      1.22      0.00
   -1   15   11     -0.66      0.00
    0   15   11     -0.34      0.00
    1   15   11      0.61      0.00
   -7   16   11     -0.03      0.00
   -6   16   11      0.84      0.00
   -5   16   11     -0.96      0.00
   -4   16   11     -0.17      0.00
   -3   16   11      0.11      0.00
   -2   16   11     -0.14      0.00
   -1   16   11      0.45      0.00
    2  -17   12     -0.56      0.00
    3  -17   12      0.62      0.00
    4  -17   12      0.59      0.00
   -2  -16   12     -1.51      0.00
   -1  -16   12      0.15      0.00
    0  -16   12     -1.26      0.00
    1  -16   12      1.98      0.00
    2  -16   12     -1.71      0.00
    3  -16   12      1.36      0.00
    4  -16   12     -0.21      0.00
    5  -16   12     -0.13      0.00
    6  -16   12      0.61      0.00
    7  -16   12      0.33      0.00
   -4  -15   12      0.44      0.00
   -3  -15   12     -0.69      0.00
   -2  -15   12      0.46      0.00
   -1  -15   12     -2.46      0.00
    0  -15   12      1.23      0.00
    1  -15   12      0.09      0.00
    2  -15   12      0.59      0.00
    3  -15   12     -0.62      0.00
    4  -15   12      1.11      0.00
    5  -15   12     -0.95      0.00
    6  -15   12      0.80      0.00
    7  -15   12      0.45      0.00
    8  -15   12     -1.71      0.00
    9  -15   12      0.15      0.00
   -5  -14   12      0.80      0.00
   -4  -14   12     -0.97      0.00
   -3  -14   12     -0.16      0.00
   -2  -14   12     -0.10      0.00
   -1  -14   12     -1.20      0.00
    0  -14   12      0.78      0.00
    1  -14   12     -0.51      0.00
    2  -14   12      1.63      0.00
    3  -14   12     -1.05      0.00
    4  -14   12      1.50      0.00
    5  -14   12     -2.31      0.00
    6  -14   12      2.28      0.00
    7  -14   12     -0.96      0.00
    8  -14   12     -1.49      0.00
    9  -14   12      0.99      0.00
   10  -14   12     -0.26      0.00
   -6  -13   12      1.23      0.00
   -5  -13   12     -1.25      0.00
   -4  -13   12     -0.11      0.00
   -3  -13   12     -1.06      0.00
   -2  -13   12      1.60      0.00
   -1  -13   12     -2.01      0.00
    0  -13   12      0.54      0.00
    1  -13   12      0.49      0.00
    2  -13   12     -0.09      0.00
    3  -13   12      1.53      0.00
    4  -13   12     -1.92      0.00
    5  -13   12      0.72      0.00
    6  -13   12     -0.24      0.00
    7  -13   12      0.09      0.00
    8  -13   12     -1.45      0.00
    9  -13   12      0.98      0.00
   10  -13   12      0.42      0.00
   11  -13   12      0.58      0.00
   -7  -12   12      1.35      0.00
   -6  -12   12      0.61      0.00
   -5  -12   12      0.04      0.00
   -4  -12   12     -3.16      0.00
   -3  -12   12      3.12      0.00
   -2  -12   12     -1.35      0.00
   -1  -12   12     -0.55      0.00
    0  -12   12      0.02      0.00
    1  -12   12      0.30      0.00
    2  -12   12      0.70      0.00
    3  -12   12     -0.16      0.00
    4  -12   12     -0.49      0.00
    5  -12   12     -0.67      0.00
    6  -12   12      1.48      0.00
    7  -12   12     -2.22      0.00
    8  -12   12      0.79      0.00
    9  -12   12      0.89      0.00
   10  -12   12     -0.18      0.00
   11  -12   12      0.93      0.00
   -8  -11   12      0.98      0.00
   -7  -11   12      0.85      0.00
   -6  -11   12     -0.84      0.00
   -5  -11   12      0.47      0.00
   -4  -11   12     -0.66      0.00
   -3  -11   12     -0.02      0.00
   -2  -11   12      0.27      0.00
   -1  -11   12     -0.67      0.00
    0  -11   12     -0.61      0.00
    1  -11   12      1.01      0.00
    2  -11   12     -0.41      0.00
    3  -11   12      0.81      0.00
    4  -11   12     -2.46      0.00
    5  -11   12      2.59      0.00
    6  -11   12     -1.52      0.00
    7  -11   12     -0.63      0.00
    8  -11   12      1.92      0.00
    9  -11   12     -0.78      0.00
   10  -11   12      1.11      0.00
   11  -11   12     -0.02      0.00
   12  -11   12     -0.44      0.00
   -9  -10   12      1.30      0.00
   -8  -10   12      0.01      0.00
   -7  -10   12     -0.07      0.00
   -6  -10   12      0.09      0.00
   -5  -10   12      0.17      0.00
   -4  -10   12     -0.40      0.00
   -3  -10   12      0.21      0.00
   -2  -10   12     -0.81      0.00
   -1  -10   12     -0.44      0.00
    0  -10   12      0.41      0.00
    1  -10   12     -0.39      0.00
    2  -10   12      0.31      0.00
    3  -10   12     -0.81      0.00
    4  -10   12      0.37      0.00
    5  -10   12      0.50      0.00
    6  -10   12     -0.68      0.00
    7  -10   12      0.71      0.00
    8  -10   12      0.30      0.00
    9  -10   12      0.73      0.00
   10  -10   12     -1.04      0.00
   11  -10   12      1.95      0.00
   12  -10   12     -2.29      0.00
  -10   -9   12     -0.14      0.00
   -9   -9   12     -0.02      0.00
   -8   -9   12      1.11      0.00
   -7   -9   12      0.28      0.00
   -6   -9   12     -1.74      0.00
   -5   -9   12      1.70      0.00
   -4   -9   12     -0.41      0.00
   -3   -9   12     -0.99      0.00
   -2   -9   12     -0.57      0.00
   -1   -9   12      0.08      0.00
    0   -9   12      0.01      0.00
    1   -9   12     -0.51      0.00
    2   -9   12      0.33      0.00
    3   -9   12     -1.19      0.00
    4   -9   12      1.77      0.00
    5   -9   12     -0.32      0.00
    6   -9   12      0.28      0.00
    7   -9   12      0.56      0.00
    8   -9   12      0.42      0.00
    9   -9   12     -0.91      0.00
   10   -9   12      1.03      0.00
   11   -9   12     -0.12      0.00
   12   -9   12     -1.84      0.00
   13   -9   12      0.34      0.00
  -11   -8   12      1.88      0.00
  -10   -8   12     -2.07      0.00
   -9   -8   12      0.12      0.00
   -8   -8   12      1.97      0.00
   -7   -8   12      0.16      0.00
   -6   -8   12     -2.25      0.00
   -5   -8   12      1.81      0.00
   -4   -8   12     -1.24      0.00
   -3   -8   12     -0.09      0.00
   -2   -8   12     -0.60      0.00
   -1   -8   12     -1.69      0.00
    0   -8   12      2.19      0.00
    1   -8   12     -0.45      0.00
    2   -8   12     -2.68      0.00
    3   -8   12      2.81      0.00
    4   -8   12      0.56      0.00
    5   -8   12     -1.28      0.00
    6   -8   12      3.02      0.00
    7   -8   12     -1.49      0.00
    8   -8   12     -0.28      0.00
    9   -8   12      0.75      0.00
   10   -8   12     -0.80      0.00
   11   -8   12     -0.15      0.00
   12   -8   12     -0.29      0.00
   13   -8   12     -0.42      0.00
  -11   -7   12      0.92      0.00
  -10   -7   12     -1.73      0.00
   -9   -7   12      0.99      0.00
   -8   -7   12      0.36      0.00
   -7   -7   12      1.04      0.00
   -6   -7   12     -1.36      0.00
   -5   -7   12     -1.20      0.00
   -4   -7   12      1.08      0.00
   -3   -7   12     -0.51      0.00
   -2   -7   12     -1.88      0.00
   -1   -7   12      0.35      0.00
    0   -7   12      0.43      0.00
    1   -7   12      0.22      0.00
    2   -7   12     -1.01      0.00
    3   -7   12      1.07      0.00
    4   -7   12      0.75      0.00
    5   -7   12      2.07      0.00
    6   -7   12     -1.57      0.00
    7   -7   12      1.47      0.00
    8   -7   12     -2.12      0.00
    9   -7   12      0.35      0.00
   10   -7   12      0.31      0.00
   11   -7   12     -1.10      0.00
   12   -7   12      1.15      0.00
   13   -7   12     -1.11      0.00
  -12   -6   12      1.46      0.00
  -11   -6   12     -2.42      0.00
  -10   -6   12      2.23      0.00
   -9   -6   12     -1.31      0.00
   -8   -6   12      0.43      0.00
   -7   -6   12      0.96      0.00
   -6   -6   12     -1.01      0.00
   -5   -6   12     -1.72      0.00
   -4   -6   12      1.28      0.00
   -3   -6   12     -0.71      0.00
   -2   -6   12     -1.39      0.00
   -1   -6   12     -0.18      0.00
    0   -6   12      0.47      0.00
    2   -6   12     -1.56      0.00
    3   -6   12      0.37      0.00
    4   -6   12      3.38      0.00
    5   -6   12     -1.25      0.00
    6   -6   12      1.71      0.00
    7   -6   12     -2.56      0.00
    8   -6   12      0.23      0.00
    9   -6   12     -1.50      0.00
   10   -6   12      2.14      0.00
   11   -6   12     -0.99      0.00
   12   -6   12     -0.25      0.00
   13   -6   12      0.59      0.00
  -12   -5   12     -2.41      0.00
  -11   -5   12      1.48      0.00
  -10   -5   12      0.97      0.00
   -9   -5   12     -2.14      0.00
   -8   -5   12      1.31      0.00
   -7   -5   12     -1.17      0.00
   -6   -5   12      1.33      0.00
   -5   -5   12     -1.81      0.00
   -4   -5   12     -0.65      0.00
   -3   -5   12      0.45      0.00
   -2   -5   12      0.65      0.00
   -1   -5   12     -5.56      0.00
    0   -5   12      7.53      0.00
    1   -5   12     -1.90      0.00
    2   -5   12     -2.31      0.00
    3   -5   12      5.10      0.00
    4   -5   12     -2.46      0.00
    5   -5   12      4.05      0.00
    6   -5   12     -3.81      0.00
    7   -5   12      0.65      0.00
    8   -5   12     -2.13      0.00
    9   -5   12      1.53      0.00
   10   -5   12     -1.16      0.00
   11   -5   12      2.86      0.00
   12   -5   12     -2.73      0.00
   13   -5   12      1.06      0.00
  -13   -4   12     -0.44      0.00
  -12   -4   12     -0.73      0.00
  -11   -4   12      1.09      0.00
  -10   -4   12      0.81      0.00
   -9   -4   12     -1.78      0.00
   -8   -4   12     -0.50      0.00
   -7   -4   12      0.77      0.00
   -6   -4   12      0.10      0.00
   -5   -4   12     -0.33      0.00
   -4   -4   12     -2.04      0.00
   -3   -4   12      1.53      0.00
   -2   -4   12     -1.87      0.00
   -1   -4   12     -0.15      0.00
    0   -4   12      3.81      0.00
    2   -4   12      2.78      0.00
    3   -4   12      0.29      0.00
    4   -4   12      0.14      0.00
    5   -4   12      1.15      0.00
    6   -4   12     -1.82      0.00
    7   -4   12     -2.05      0.00
    8   -4   12      1.78      0.00
    9   -4   12     -2.00      0.00
   10   -4   12      2.29      0.00
   11   -4   12      0.01      0.00
   12   -4   12     -0.38      0.00
   13   -4   12     -1.27      0.00
  -13   -3   12      1.45      0.00
  -12   -3   12     -1.45      0.00
  -11   -3   12      0.55      0.00
  -10   -3   12      2.19      0.00
   -9   -3   12     -3.74      0.00
   -8   -3   12      1.06      0.00
   -7   -3   12     -0.15      0.00
   -6   -3   12      1.22      0.00
   -5   -3   12     -1.92      0.00
   -4   -3   12      0.00      0.00
   -3   -3   12     -0.60      0.00
   -2   -3   12     -0.47      0.00
   -1   -3   12      2.25      0.00
    0   -3   12     -0.18      0.00
    1   -3   12     -0.04      0.00
    3   -3   12     -3.28      0.00
    4   -3   12      3.78      0.00
    5   -3   12     -4.26      0.00
    6   -3   12      1.77      0.00
    7   -3   12     -2.50      0.00
    8   -3   12      1.21      0.00
    9   -3   12     -0.27      0.00
   10   -3   12      0.56      0.00
   11   -3   12      0.21      0.00
   12   -3   12      0.06      0.00
   13   -3   12     -1.15      0.00
  -13   -2   12     -0.58      0.00
  -12   -2   12     -0.30      0.00
  -11   -2   12      0.97      0.00
  -10   -2   12     -0.26      0.00
   -9   -2   12     -0.49      0.00
   -8   -2   12     -0.67      0.00
   -7   -2   12      0.75      0.00
   -6   -2   12     -0.76      0.00
   -5   -2   12      0.89      0.00
   -4   -2   12     -2.14      0.00
   -3   -2   12     -0.25      0.00
   -2   -2   12      2.96      0.00
   -1   -2   12     -2.03      0.00
    0   -2   12      3.08      0.00
    1   -2   12     -0.72      0.00
    2   -2   12      1.48      0.00
    3   -2   12      1.29      0.00
    4   -2   12     -3.06      0.00
    5   -2   12      1.35      0.00
    6   -2   12     -3.49      0.00
    7   -2   12      2.88      0.00
    8   -2   12     -0.53      0.00
    9   -2   12     -0.86      0.00
   10   -2   12      0.00      0.00
   11   -2   12      1.23      0.00
   12   -2   12     -0.23      0.00
   13   -2   12     -0.53      0.00
  -14   -1   12      2.86      0.00
  -13   -1   12     -3.11      0.00
  -12   -1   12      1.57      0.00
  -11   -1   12      0.05      0.00
  -10   -1   12     -0.75      0.00
   -9   -1   12      1.73      0.00
   -8   -1   12     -2.37      0.00
   -7   -1   12      0.67      0.00
   -6   -1   12      0.68      0.00
   -5   -1   12     -2.76      0.00
   -4   -1   12      3.70      0.00
   -3   -1   12     -4.38      0.00
   -2   -1   12      3.61      0.00
   -1   -1   12      3.22      0.00
    0   -1   12     -5.56      0.00
    1   -1   12      5.30      0.00
    2   -1   12      0.52      0.00
    3   -1   12     -2.90      0.00
    4   -1   12      2.28      0.00
    5   -1   12     -5.21      0.00
    6   -1   12      2.95      0.00
    7   -1   12      0.35      0.00
    8   -1   12     -0.11      0.00
    9   -1   12     -1.54      0.00
   10   -1   12      0.36      0.00
   11   -1   12      1.30      0.00
   12   -1   12     -0.16      0.00
   13   -1   12     -0.64      0.00
  -14    0   12     -1.53      0.00
  -13    0   12      1.52      0.00
  -12    0   12     -1.37      0.00
  -11    0   12      0.67      0.00
  -10    0   12      0.96      0.00
   -9    0   12     -0.52      0.00
   -8    0   12     -0.50      0.00
   -7    0   12     -0.88      0.00
   -6    0   12      0.77      0.00
   -5    0   12     -0.73      0.00
   -4    0   12      1.32      0.00
   -3    0   12     -3.07      0.00
   -2    0   12      6.97      0.00
   -1    0   12     -1.93      0.00
    0    0   12     -4.98      0.00
    1    0   12      8.23      0.00
    2    0   12     -1.47      0.00
    3    0   12     -5.10      0.00
    4    0   12      3.43      0.00
    5    0   12     -3.04      0.00
    6    0   12      1.19      0.00
    7    0   12      1.60      0.00
    8    0   12     -2.65      0.00
    9    0   12      2.48      0.00
   10    0   12     -3.23      0.00
   11    0   12      2.73      0.00
   12    0   12     -0.38      0.00
  -14    1   12     -0.78      0.00
  -13    1   12      0.04      0.00
  -12    1   12      0.40      0.00
  -11    1   12      0.21      0.00
  -10    1   12      0.85      0.00
   -9    1   12     -1.37      0.00
   -8    1   12      1.24      0.00
   -7    1   12     -2.92      0.00
   -6    1   12      2.44      0.00
   -5    1   12     -0.59      0.00
   -4    1   12     -2.01      0.00
   -3    1   12      5.55      0.00
   -2    1   12     -0.81      0.00
   -1    1   12     -2.72      0.00
    0    1   12      0.34      0.00
    1    1   12      6.55      0.00
    2    1   12     -7.06      0.00
    3    1   12      2.04      0.00
    4    1   12     -1.90      0.00
    5    1   12      0.85      0.00
    6    1   12      0.38      0.00
    7    1   12     -0.52      0.00
    8    1   12      0.44      0.00
    9    1   12      0.21      0.00
   10    1   12     -2.26      0.00
   11    1   12      2.54      0.00
   12    1   12      0.11      0.00
  -14    2   12      1.41      0.00
  -13    2   12     -0.96      0.00
  -12    2   12      0.57      0.00
  -11    2   12      0.83      0.00
  -10    2   12     -0.30      0.00
   -9    2   12     -0.37      0.00
   -8    2   12     -0.96      0.00
   -7    2   12      1.90      0.00
   -6    2   12     -2.30      0.00
   -5    2   12     -0.99      0.00
   -4    2   12      5.75      0.00
   -3    2   12     -1.59      0.00
   -2    2   12     -1.24      0.00
   -1    2   12     -0.06      0.00
    0    2   12      0.79      0.00
    1    2   12      3.17      0.00
    2    2   12     -4.88      0.00
    3    2   12      0.96      0.00
    4    2   12     -0.13      0.00
    5    2   12     -1.16      0.00
    6    2   12      2.47      0.00
    7    2   12     -1.41      0.00
    8    2   12      0.15      0.00
    9    2   12     -0.70      0.00
   10    2   12      0.74      0.00
   11    2   12      0.15      0.00
   12    2   12      0.29      0.00
  -14    3   12      1.31      0.00
  -13    3   12     -1.87      0.00
  -12    3   12      3.86      0.00
  -11    3   12     -2.94      0.00
  -10    3   12      0.50      0.00
   -9    3   12      0.67      0.00
   -8    3   12      0.01      0.00
   -7    3   12     -1.52      0.00
   -6    3   12     -0.24      0.00
   -5    3   12      2.47      0.00
   -4    3   12     -0.94      0.00
   -3    3   12      4.75      0.00
   -2    3   12     -8.16      0.00
   -1    3   12      5.89      0.00
    0    3   12     -2.23      0.00
    1    3   12      2.23      0.00
    2    3   12     -1.76      0.00
    3    3   12     -1.44      0.00
    4    3   12     -0.84      0.00
    5    3   12      2.95      0.00
    6    3   12     -1.01      0.00
    7    3   12     -0.51      0.00
    8    3   12     -0.08      0.00
    9    3   12     -0.43      0.00
   10    3   12      1.98      0.00
   11    3   12     -1.84      0.00
  -14    4   12      1.42      0.00
  -13    4   12      0.25      0.00
  -12    4   12      1.45      0.00
  -11    4   12     -2.26      0.00
  -10    4   12      0.31      0.00
   -9    4   12      2.01      0.00
   -8    4   12     -2.11      0.00
   -7    4   12     -0.20      0.00
   -6    4   12     -0.24      0.00
   -5    4   12      3.73      0.00
   -4    4   12     -3.73      0.00
   -3    4   12      4.75      0.00
   -2    4   12     -5.20      0.00
   -1    4   12      1.99      0.00
    0    4   12      1.38      0.00
    1    4   12     -1.01      0.00
    2    4   12      0.59      0.00
    3    4   12     -3.20      0.00
    4    4   12      1.52      0.00
    5    4   12      0.93      0.00
    6    4   12      0.45      0.00
    7    4   12     -1.86      0.00
    8    4   12      0.11      0.00
    9    4   12      1.76      0.00
   10    4   12     -1.26      0.00
   11    4   12     -0.08      0.00
  -14    5   12      2.84      0.00
  -13    5   12     -0.79      0.00
  -12    5   12      0.27      0.00
  -11    5   12     -0.10      0.00
  -10    5   12     -0.35      0.00
   -9    5   12      0.70      0.00
   -8    5   12     -0.57      0.00
   -7    5   12     -1.27      0.00
   -6    5   12      1.74      0.00
   -5    5   12      0.21      0.00
   -4    5   12      1.22      0.00
   -3    5   12     -3.50      0.00
   -2    5   12      3.83      0.00
   -1    5   12     -2.35      0.00
    0    5   12      1.01      0.00
    1    5   12     -0.49      0.00
    2    5   12      0.91      0.00
    3    5   12     -2.47      0.00
    4    5   12      0.14      0.00
    5    5   12      2.70      0.00
    6    5   12     -1.72      0.00
    7    5   12     -0.80      0.00
    8    5   12      1.81      0.00
    9    5   12     -1.72      0.00
   10    5   12      1.16      0.00
   11    5   12     -1.07      0.00
  -14    6   12      1.84      0.00
  -13    6   12     -0.84      0.00
  -12    6   12     -1.83      0.00
  -11    6   12      4.02      0.00
  -10    6   12     -3.56      0.00
   -9    6   12      1.94      0.00
   -8    6   12     -1.46      0.00
   -7    6   12     -0.46      0.00
   -6    6   12      1.59      0.00
   -5    6   12      0.84      0.00
   -4    6   12     -2.17      0.00
   -3    6   12      1.27      0.00
   -2    6   12      0.23      0.00
   -1    6   12      1.47      0.00
    0    6   12     -4.48      0.00
    1    6   12      4.62      0.00
    2    6   12     -2.43      0.00
    3    6   12     -0.87      0.00
    4    6   12      0.94      0.00
    5    6   12      0.60      0.00
    6    6   12     -0.60      0.00
    7    6   12     -0.39      0.00
    8    6   12      1.12      0.00
    9    6   12     -1.71      0.00
   10    6   12      0.70      0.00
  -14    7   12      2.12      0.00
  -13    7   12     -1.56      0.00
  -12    7   12     -0.19      0.00
  -11    7   12      0.87      0.00
  -10    7   12      0.10      0.00
   -9    7   12     -0.04      0.00
   -8    7   12     -2.90      0.00
   -7    7   12      2.76      0.00
   -6    7   12     -0.23      0.00
   -5    7   12     -0.39      0.00
   -4    7   12      0.96      0.00
   -3    7   12     -0.95      0.00
   -2    7   12      0.92      0.00
   -1    7   12      1.16      0.00
    0    7   12     -3.37      0.00
    1    7   12      2.07      0.00
    2    7   12     -0.35      0.00
    3    7   12     -1.29      0.00
    4    7   12      1.54      0.00
    5    7   12     -0.75      0.00
    6    7   12      0.16      0.00
    7    7   12     -0.10      0.00
    8    7   12      0.15      0.00
    9    7   12     -1.20      0.00
  -14    8   12     -1.62      0.00
  -13    8   12      1.74      0.00
  -12    8   12     -0.78      0.00
  -11    8   12     -0.44      0.00
  -10    8   12      0.88      0.00
   -9    8   12     -0.97      0.00
   -8    8   12     -0.61      0.00
   -7    8   12      0.28      0.00
   -6    8   12      0.47      0.00
   -5    8   12      1.45      0.00
   -4    8   12     -1.26      0.00
   -3    8   12      0.11      0.00
   -2    8   12      0.60      0.00
   -1    8   12      1.51      0.00
    0    8   12     -3.97      0.00
    1    8   12      2.02      0.00
    2    8   12     -0.94      0.00
    3    8   12      1.63      0.00
    4    8   12     -1.65      0.00
    5    8   12      0.46      0.00
    6    8   12      0.58      0.00
    7    8   12     -1.12      0.00
    8    8   12      0.56      0.00
    9    8   12     -0.76      0.00
  -14    9   12     -1.79      0.00
  -13    9   12      2.56      0.00
  -12    9   12     -1.24      0.00
  -11    9   12      0.10      0.00
  -10    9   12     -0.99      0.00
   -9    9   12      0.77      0.00
   -8    9   12     -1.00      0.00
   -7    9   12      0.82      0.00
   -6    9   12      0.57      0.00
   -5    9   12      0.17      0.00
   -4    9   12     -0.12      0.00
   -3    9   12     -0.25      0.00
   -2    9   12      1.42      0.00
   -1    9   12     -1.25      0.00
    0    9   12     -0.70      0.00
    1    9   12     -0.79      0.00
    2    9   12      1.43      0.00
    3    9   12      0.20      0.00
    4    9   12     -0.86      0.00
    5    9   12     -0.13      0.00
    6    9   12      0.52      0.00
    7    9   12     -0.15      0.00
    8    9   12     -1.34      0.00
  -13   10   12      1.17      0.00
  -12   10   12     -1.41      0.00
  -11   10   12      1.02      0.00
  -10   10   12     -1.24      0.00
   -9   10   12     -0.82      0.00
   -8   10   12      2.13      0.00
   -7   10   12     -0.04      0.00
   -6   10   12     -0.76      0.00
   -5   10   12      0.82      0.00
   -4   10   12     -0.55      0.00
   -3   10   12      1.34      0.00
   -2   10   12     -0.50      0.00
   -1   10   12     -1.56      0.00
    0   10   12      0.48      0.00
    1   10   12      0.04      0.00
    2   10   12     -0.33      0.00
    3   10   12      0.37      0.00
    4   10   12      0.08      0.00
    5   10   12      0.24      0.00
    6   10   12     -1.31      0.00
    7   10   12      0.58      0.00
  -13   11   12     -0.81      0.00
  -12   11   12      0.59      0.00
  -11   11   12     -1.12      0.00
  -10   11   12      0.76      0.00
   -9   11   12     -0.74      0.00
   -8   11   12      1.38      0.00
   -7   11   12      0.41      0.00
   -6   11   12     -1.39      0.00
   -5   11   12      1.01      0.00
   -4   11   12     -0.03      0.00
   -3   11   12      0.42      0.00
   -2   11   12     -0.76      0.00
   -1   11   12     -1.08      0.00
    0   11   12      1.53      0.00
    1   11   12     -1.43      0.00
    2   11   12      0.30      0.00
    3   11   12     -0.22      0.00
    4   11   12      1.63      0.00
    5   11   12     -1.83      0.00
    6   11   12      0.44      0.00
  -12   12   12     -1.55      0.00
  -11   12   12      0.98      0.00
  -10   12   12      0.51      0.00
   -9   12   12     -0.50      0.00
   -8   12   12      0.93      0.00
   -7   12   12     -0.56      0.00
   -6   12   12     -0.48      0.00
   -5   12   12      1.51      0.00
   -4   12   12     -0.41      0.00
   -3   12   12     -1.79      0.00
   -2   12   12      1.42      0.00
   -1   12   12      0.04      0.00
    0   12   12     -1.16      0.00
    1   12   12     -0.14      0.00
    2   12   12      0.55      0.00
    3   12   12     -0.03      0.00
    4   12   12     -0.01      0.00
    5   12   12      0.19      0.00
  -11   13   12      1.09      0.00
  -10   13   12      0.24      0.00
   -9   13   12      0.62      0.00
   -8   13   12     -1.86      0.00
   -7   13   12      1.54      0.00
   -6   13   12     -0.48      0.00
   -5   13   12      0.49      0.00
   -4   13   12      0.03      0.00
   -3   13   12     -2.24      0.00
   -2   13   12      1.95      0.00
   -1   13   12      0.38      0.00
    0   13   12     -2.04      0.00
    1   13   12      0.33      0.00
    2   13   12      1.00      0.00
    3   13   12     -0.67      0.00
    4   13   12      0.04      0.00
  -10   14   12     -0.09      0.00
   -9   14   12     -0.25      0.00
   -8   14   12     -0.38      0.00
   -7   14   12      0.07      0.00
   -6   14   12      1.01      0.00
   -5   14   12     -0.49      0.00
   -4   14   12     -1.05      0.00
   -3   14   12      0.37      0.00
   -2   14   12      0.51      0.00
   -1   14   12     -1.10      0.00
    0   14   12      1.11      0.00
    1   14   12     -1.30      0.00
    2   14   12      0.21      0.00
   -9   15   12     -0.19      0.00
   -8   15   12      0.16      0.00
   -7   15   12      0.00      0.00
   -6   15   12      0.19      0.00
   -5   15   12      0.28      0.00
   -4   15   12     -1.12      0.00
   -3   15   12     -0.21      0.00
   -2   15   12      1.14      0.00
   -1   15   12     -0.99      0.00
    0   15   12      0.07      0.00
   -6   16   12      0.04      0.00
   -5   16   12      0.42      0.00
   -4   16   12     -0.74      0.00
   -3   16   12     -0.56      0.00
   -1  -16   13     -0.59      0.00
    0  -16   13     -0.60      0.00
    1  -16   13      1.15      0.00
    2  -16   13     -2.11      0.00
    3  -16   13      1.77      0.00
    4  -16   13     -0.20      0.00
    5  -16   13      0.35      0.00
    6  -16   13     -0.07      0.00
   -3  -15   13      0.93      0.00
   -2  -15   13     -0.50      0.00
   -1  -15   13     -1.47      0.00
    0  -15   13      0.09      0.00
    1  -15   13      0.49      0.00
    2  -15   13     -0.51      0.00
    3  -15   13      0.22      0.00
    4  -15   13      1.62      0.00
    5  -15   13     -1.72      0.00
    6  -15   13      1.23      0.00
    7  -15   13      0.06      0.00
    8  -15   13     -1.11      0.00
   -5  -14   13      0.61      0.00
   -4  -14   13      0.04      0.00
   -3  -14   13     -0.70      0.00
   -2  -14   13      1.05      0.00
   -1  -14   13     -2.48      0.00
    0  -14   13      1.11      0.00
    1  -14   13     -0.80      0.00
    2  -14   13      1.16      0.00
    3  -14   13     -0.20      0.00
    4  -14   13      1.32      0.00
    5  -14   13     -2.43      0.00
    6  -14   13      2.66      0.00
    7  -14   13     -1.51      0.00
    8  -14   13     -0.78      0.00
    9  -14   13      0.49      0.00
   -6  -13   13     -0.33      0.00
   -5  -13   13      0.24      0.00
   -4  -13   13      0.24      0.00
   -3  -13   13     -1.48      0.00
   -2  -13   13      1.69      0.00
   -1  -13   13     -2.10      0.00
    0  -13   13      0.28      0.00
    1  -13   13      0.33      0.00
    2  -13   13      0.23      0.00
    3  -13   13      1.11      0.00
    4  -13   13     -0.90      0.00
    5  -13   13     -0.08      0.00
    6  -13   13     -0.10      0.00
    7  -13   13      0.63      0.00
    8  -13   13     -2.29      0.00
    9  -13   13      1.41      0.00
   10  -13   13     -0.01      0.00
   -7  -12   13      2.09      0.00
   -6  -12   13      0.26      0.00
   -5  -12   13     -0.37      0.00
   -4  -12   13     -0.72      0.00
   -3  -12   13      0.61      0.00
   -2  -12   13     -0.13      0.00
   -1  -12   13     -1.21      0.00
    0  -12   13      0.65      0.00
    1  -12   13     -0.19      0.00
    2  -12   13      0.42      0.00
    3  -12   13      0.31      0.00
    4  -12   13      0.75      0.00
    5  -12   13     -2.98      0.00
    6  -12   13      2.72      0.00
    7  -12   13     -2.12      0.00
    8  -12   13      0.22      0.00
    9  -12   13      0.71      0.00
   10  -12   13     -0.22      0.00
   11  -12   13      1.60      0.00
   -8  -11   13      0.89      0.00
   -7  -11   13      0.08      0.00
   -6  -11   13      0.09      0.00
   -5  -11   13      0.69      0.00
   -4  -11   13     -0.90      0.00
   -3  -11   13      0.21      0.00
   -2  -11   13     -0.18      0.00
   -1  -11   13     -0.31      0.00
    0  -11   13     -0.04      0.00
    1  -11   13     -0.57      0.00
    2  -11   13      0.84      0.00
    3  -11   13      0.85      0.00
    4  -11   13     -2.56      0.00
    5  -11   13      2.37      0.00
    6  -11   13     -2.72      0.00
    7  -11   13      0.86      0.00
    8  -11   13      1.15      0.00
    9  -11   13     -0.74      0.00
   10  -11   13      0.62      0.00
   11  -11   13      1.25      0.00
   -9  -10   13      0.01      0.00
   -8  -10   13      0.32      0.00
   -7  -10   13      0.25      0.00
   -6  -10   13     -0.24      0.00
   -5  -10   13      0.55      0.00
   -4  -10   13     -0.09      0.00
   -3  -10   13     -0.06      0.00
   -2  -10   13     -0.65      0.00
   -1  -10   13     -0.25      0.00
    0  -10   13      0.44      0.00
    1  -10   13     -1.27      0.00
    2  -10   13      1.05      0.00
    3  -10   13     -0.29      0.00
    4  -10   13     -0.44      0.00
    5  -10   13     -0.08      0.00
    6  -10   13     -0.60      0.00
    7  -10   13      0.47      0.00
    8  -10   13      1.30      0.00
    9  -10   13      0.06      0.00
   10  -10   13     -0.94      0.00
   11  -10   13      2.11      0.00
   12  -10   13     -1.82      0.00
  -10   -9   13      0.37      0.00
   -9   -9   13     -0.26      0.00
   -8   -9   13      0.03      0.00
   -7   -9   13      1.36      0.00
   -6   -9   13     -1.79      0.00
   -5   -9   13      1.43      0.00
   -4   -9   13      0.22      0.00
   -3   -9   13     -1.15      0.00
   -2   -9   13      0.01      0.00
   -1   -9   13     -0.45      0.00
    0   -9   13     -0.21      0.00
    1   -9   13     -0.25      0.00
    2   -9   13      0.00      0.00
    3   -9   13     -0.59      0.00
    4   -9   13      0.58      0.00
    5   -9   13      0.23      0.00
    6   -9   13     -1.56      0.00
    7   -9   13      2.69      0.00
    8   -9   13      0.10      0.00
    9   -9   13     -1.20      0.00
   10   -9   13      1.83      0.00
   11   -9   13     -1.62      0.00
   12   -9   13      0.34      0.00
  -10   -8   13     -1.59      0.00
   -9   -8   13     -0.14      0.00
   -8   -8   13      1.18      0.00
   -7   -8   13      0.35      0.00
   -6   -8   13     -1.23      0.00
   -5   -8   13      1.33      0.00
   -4   -8   13     -0.93      0.00
   -3   -8   13      0.18      0.00
   -2   -8   13     -0.87      0.00
   -1   -8   13     -1.31      0.00
    0   -8   13      2.14      0.00
    1   -8   13     -2.33      0.00
    2   -8   13     -0.27      0.00
    3   -8   13      1.03      0.00
    4   -8   13      0.54      0.00
    5   -8   13     -1.66      0.00
    6   -8   13      3.39      0.00
    7   -8   13     -1.88      0.00
    8   -8   13      1.52      0.00
    9   -8   13     -0.23      0.00
   10   -8   13     -0.99      0.00
   11   -8   13      0.36      0.00
   12   -8   13     -0.43      0.00
  -11   -7   13      2.89      0.00
  -10   -7   13     -2.62      0.00
   -9   -7   13      0.86      0.00
   -8   -7   13     -0.06      0.00
   -7   -7   13      1.57      0.00
   -6   -7   13     -1.21      0.00
   -5   -7   13     -0.46      0.00
   -4   -7   13      0.23      0.00
   -3   -7   13      0.20      0.00
   -2   -7   13     -2.53      0.00
   -1   -7   13      1.39      0.00
    0   -7   13     -0.45      0.00
    1   -7   13     -0.88      0.00
    2   -7   13     -0.06      0.00
    3   -7   13      0.08      0.00
    4   -7   13      1.11      0.00
    5   -7   13      1.59      0.00
    6   -7   13     -1.93      0.00
    7   -7   13      3.37      0.00
    8   -7   13     -2.63      0.00
    9   -7   13      0.08      0.00
   10   -7   13      0.79      0.00
   11   -7   13     -1.69      0.00
   12   -7   13      1.35      0.00
   13   -7   13     -1.47      0.00
  -12   -6   13      0.51      0.00
  -11   -6   13     -0.45      0.00
  -10   -6   13      0.87      0.00
   -9   -6   13     -1.12      0.00
   -8   -6   13      0.54      0.00
   -7   -6   13      0.91      0.00
   -6   -6   13     -0.24      0.00
   -5   -6   13     -2.19      0.00
   -4   -6   13      2.04      0.00
   -3   -6   13     -2.24      0.00
   -2   -6   13     -0.08      0.00
   -1   -6   13      0.29      0.00
    0   -6   13     -1.53      0.00
    1   -6   13      2.32      0.00
    2   -6   13     -2.52      0.00
    3   -6   13      0.64      0.00
    4   -6   13      3.19      0.00
    5   -6   13     -0.75      0.00
    6   -6   13      0.87      0.00
    7   -6   13     -0.23      0.00
    8   -6   13     -0.99      0.00
    9   -6   13     -1.44      0.00
   10   -6   13      2.60      0.00
   11   -6   13     -1.90      0.00
   12   -6   13     -0.14      0.00
   13   -6   13      1.08      0.00
  -12   -5   13     -0.89      0.00
  -11   -5   13      0.49      0.00
  -10   -5   13      0.87      0.00
   -9   -5   13     -1.21      0.00
   -8   -5   13      0.36      0.00
   -7   -5   13     -0.20      0.00
   -6   -5   13      1.06      0.00
   -5   -5   13     -1.77      0.00
   -4   -5   13     -0.97      0.00
   -3   -5   13      1.25      0.00
   -2   -5   13     -1.16      0.00
   -1   -5   13     -2.25      0.00
    0   -5   13      2.98      0.00
    1   -5   13      0.62      0.00
    2   -5   13     -4.40      0.00
    3   -5   13      5.57      0.00
    4   -5   13     -1.76      0.00
    5   -5   13      3.24      0.00
    6   -5   13     -1.67      0.00
    7   -5   13     -0.40      0.00
    8   -5   13     -1.76      0.00
    9   -5   13      1.05      0.00
   10   -5   13     -0.70      0.00
   11   -5   13      2.48      0.00
   12   -5   13     -3.24      0.00
   13   -5   13      1.90      0.00
  -13   -4   13      0.01      0.00
  -12   -4   13     -0.91      0.00
  -11   -4   13      0.43      0.00
  -10   -4   13      1.47      0.00
   -9   -4   13     -1.23      0.00
   -8   -4   13     -1.80      0.00
   -7   -4   13      2.33      0.00
   -6   -4   13     -0.73      0.00
   -5   -4   13     -0.35      0.00
   -4   -4   13     -1.95      0.00
   -3   -4   13      0.82      0.00
   -2   -4   13      0.58      0.00
   -1   -4   13     -3.82      0.00
    0   -4   13      5.05      0.00
    1   -4   13     -2.15      0.00
    2   -4   13      0.84      0.00
    3   -4   13      0.48      0.00
    4   -4   13      0.72      0.00
    5   -4   13      3.56      0.00
    6   -4   13     -4.03      0.00
    7   -4   13     -0.39      0.00
    8   -4   13      0.30      0.00
    9   -4   13     -1.27      0.00
   10   -4   13      1.80      0.00
   11   -4   13      1.29      0.00
   12   -4   13     -2.61      0.00
   13   -4   13      0.21      0.00
  -13   -3   13      1.27      0.00
  -12   -3   13     -2.07      0.00
  -11   -3   13      1.00      0.00
  -10   -3   13      1.93      0.00
   -9   -3   13     -3.19      0.00
   -8   -3   13      0.61      0.00
   -7   -3   13      0.47      0.00
   -6   -3   13      0.41      0.00
   -5   -3   13     -1.42      0.00
   -4   -3   13     -0.48      0.00
   -3   -3   13     -0.03      0.00
   -2   -3   13     -1.02      0.00
   -1   -3   13      2.18      0.00
    0   -3   13     -2.84      0.00
    1   -3   13      5.39      0.00
    2   -3   13     -3.16      0.00
    3   -3   13      0.39      0.00
    4   -3   13      4.63      0.00
    5   -3   13     -3.92      0.00
    6   -3   13      1.90      0.00
    7   -3   13     -3.40      0.00
    8   -3   13      0.89      0.00
    9   -3   13      0.35      0.00
   10   -3   13      1.36      0.00
   11   -3   13     -1.16      0.00
   12   -3   13      0.61      0.00
   13   -3   13     -1.61      0.00
  -13   -2   13      1.07      0.00
  -12   -2   13     -2.44      0.00
  -11   -2   13      2.22      0.00
  -10   -2   13     -0.62      0.00
   -9   -2   13     -0.77      0.00
   -8   -2   13      0.50      0.00
   -7   -2   13     -1.02      0.00
   -6   -2   13      1.47      0.00
   -5   -2   13     -1.96      0.00
   -4   -2   13      0.31      0.00
   -3   -2   13     -0.88      0.00
   -2   -2   13      1.27      0.00
   -1   -2   13     -2.42      0.00
    0   -2   13      6.10      0.00
    1   -2   13     -4.39      0.00
    2   -2   13      2.14      0.00
    3   -2   13      1.35      0.00
    4   -2   13      0.02      0.00
    5   -2   13     -0.59      0.00
    6   -2   13     -2.23      0.00
    7   -2   13      1.40      0.00
    8   -2   13     -0.38      0.00
    9   -2   13     -0.76      0.00
   10   -2   13      1.88      0.00
   11   -2   13     -1.25      0.00
   12   -2   13      0.66      0.00
   13   -2   13     -1.17      0.00
  -14   -1   13      3.20      0.00
  -13   -1   13     -2.86      0.00
  -12   -1   13      0.74      0.00
  -11   -1   13      0.18      0.00
  -10   -1   13     -0.27      0.00
   -9   -1   13      0.84      0.00
   -8   -1   13     -1.05      0.00
   -7   -1   13     -0.04      0.00
   -6   -1   13     -0.34      0.00
   -5   -1   13      0.00      0.00
   -4   -1   13      0.18      0.00
   -3   -1   13     -1.52      0.00
   -2   -1   13      0.80      0.00
   -1   -1   13      2.30      0.00
    0   -1   13      0.43      0.00
    1   -1   13     -2.55      0.00
    2   -1   13      3.59      0.00
    3   -1   13     -0.11      0.00
    4   -1   13     -0.70      0.00
    5   -1   13     -1.41      0.00
    6   -1   13     -0.27      0.00
    7   -1   13      1.37      0.00
    8   -1   13     -0.77      0.00
    9   -1   13     -0.78      0.00
   10   -1   13      0.98      0.00
   11   -1   13      0.36      0.00
   12   -1   13     -1.18      0.00
  -14    0   13      0.28      0.00
  -13    0   13     -0.18      0.00
  -12    0   13     -1.28      0.00
  -11    0   13      1.54      0.00
  -10    0   13     -0.25      0.00
   -9    0   13      0.62      0.00
   -8    0   13     -1.08      0.00
   -7    0   13     -0.38      0.00
   -6    0   13     -0.24      0.00
   -5    0   13      0.76      0.00
   -4    0   13     -0.45      0.00
   -3    0   13     -1.93      0.00
   -2    0   13      3.73      0.00
   -1    0   13      1.92      0.00
    0    0   13     -5.96      0.00
    1    0   13      5.89      0.00
    2    0   13      0.18      0.00
    3    0   13     -3.73      0.00
    4    0   13      3.30      0.00
    5    0   13     -2.84      0.00
    6    0   13      0.38      0.00
    7    0   13      1.22      0.00
    8    0   13     -1.43      0.00
    9    0   13      1.18      0.00
   10    0   13     -1.60      0.00
   11    0   13      1.10      0.00
   12    0   13     -0.11      0.00
  -14    1   13     -1.81      0.00
  -13    1   13     -0.40      0.00
  -12    1   13      2.03      0.00
  -11    1   13     -2.09      0.00
  -10    1   13      2.50      0.00
   -9    1   13     -0.99      0.00
   -8    1   13     -0.15      0.00
   -7    1   13     -2.09      0.00
   -6    1   13      2.82      0.00
   -5    1   13     -2.22      0.00
   -4    1   13      0.23      0.00
   -3    1   13      1.43      0.00
   -2    1   13      1.83      0.00
   -1    1   13     -1.66      0.00
    0    1   13     -1.26      0.00
    1    1   13      4.51      0.00
    2    1   13     -1.98      0.00
    3    1   13     -1.69      0.00
    4    1   13      1.17      0.00
    5    1   13      0.00      0.00
    6    1   13     -1.23      0.00
    7    1   13      0.98      0.00
    8    1   13     -0.08      0.00
    9    1   13      0.25      0.00
   10    1   13     -2.17      0.00
   11    1   13      1.99      0.00
   12    1   13      0.48      0.00
  -14    2   13      0.65      0.00
  -13    2   13     -1.06      0.00
  -12    2   13      0.75      0.00
  -11    2   13      1.00      0.00
  -10    2   13     -0.66      0.00
   -9    2   13      0.62      0.00
   -8    2   13     -1.77      0.00
   -7    2   13      2.55      0.00
   -6    2   13     -4.30      0.00
   -5    2   13      2.50      0.00
   -4    2   13      1.79      0.00
   -3    2   13     -1.82      0.00
   -2    2   13      2.84      0.00
   -1    2   13     -2.58      0.00
    0    2   13      0.07      0.00
    1    2   13      3.73      0.00
    2    2   13     -2.72      0.00
    3    2   13     -0.90      0.00
    4    2   13      1.22      0.00
    5    2   13     -1.31      0.00
    6    2   13      1.39      0.00
    7    2   13     -0.71      0.00
    8    2   13      0.10      0.00
    9    2   13     -0.68      0.00
   10    2   13      0.22      0.00
   11    2   13      0.62      0.00
  -14    3   13      0.58      0.00
  -13    3   13     -0.61      0.00
  -12    3   13      1.59      0.00
  -11    3   13     -0.63      0.00
  -10    3   13     -0.40      0.00
   -9    3   13      1.40      0.00
   -8    3   13     -1.20      0.00
   -7    3   13     -0.46      0.00
   -6    3   13     -0.15      0.00
   -5    3   13     -0.61      0.00
   -4    3   13      3.99      0.00
   -3    3   13     -2.59      0.00
   -2    3   13      1.81      0.00
   -1    3   13     -2.66      0.00
    0    3   13      1.07      0.00
    1    3   13      3.75      0.00
    2    3   13     -3.94      0.00
    3    3   13     -0.02      0.00
    4    3   13      0.06      0.00
    5    3   13      0.96      0.00
    6    3   13     -0.32      0.00
    7    3   13      0.07      0.00
    8    3   13     -0.88      0.00
    9    3   13     -0.08      0.00
   10    3   13      1.88      0.00
   11    3   13     -2.34      0.00
  -14    4   13     -1.54      0.00
  -13    4   13      2.71      0.00
  -12    4   13     -1.17      0.00
  -11    4   13      0.25      0.00
  -10    4   13     -0.16      0.00
   -9    4   13      1.41      0.00
   -8    4   13     -1.88      0.00
   -7    4   13     -0.10      0.00
   -6    4   13      0.04      0.00
   -5    4   13      1.62      0.00
   -4    4   13     -2.15      0.00
   -3    4   13      5.15      0.00
   -2    4   13     -5.26      0.00
   -1    4   13      0.73      0.00
    0    4   13      2.34      0.00
    1    4   13      0.30      0.00
    2    4   13     -1.50      0.00
    3    4   13     -1.10      0.00
    4    4   13      0.64      0.00
    5    4   13      0.76      0.00
    6    4   13      0.39      0.00
    7    4   13     -1.75      0.00
    8    4   13      0.75      0.00
    9    4   13      0.70      0.00
   10    4   13     -1.29      0.00
   11    4   13      1.09      0.00
  -14    5   13      1.58      0.00
  -13    5   13     -1.01      0.00
  -12    5   13      1.15      0.00
  -11    5   13     -0.27      0.00
  -10    5   13      0.09      0.00
   -9    5   13      0.33      0.00
   -8    5   13     -0.95      0.00
   -7    5   13     -0.70      0.00
   -6    5   13      1.02      0.00
   -5    5   13      0.99      0.00
   -4    5   13     -1.41      0.00
   -3    5   13      1.13      0.00
   -2    5   13      0.51      0.00
   -1    5   13     -1.99      0.00
    0    5   13      2.03      0.00
    1    5   13     -0.39      0.00
    2    5   13      0.86      0.00
    3    5   13     -2.82      0.00
    4    5   13      0.85      0.00
    5    5   13      1.58      0.00
    6    5   13     -1.10      0.00
    7    5   13     -0.24      0.00
    8    5   13      0.73      0.00
    9    5   13     -1.12      0.00
   10    5   13      0.91      0.00
  -14    6   13      0.75      0.00
  -13    6   13     -1.02      0.00
  -12    6   13      0.17      0.00
  -11    6   13      2.21      0.00
  -10    6   13     -2.39      0.00
   -9    6   13      1.30      0.00
   -8    6   13     -1.17      0.00
   -7    6   13     -0.92      0.00
   -6    6   13      2.00      0.00
   -5    6   13      0.51      0.00
   -4    6   13     -2.94      0.00
   -3    6   13      2.89      0.00
   -2    6   13      0.27      0.00
   -1    6   13     -1.25      0.00
    0    6   13     -0.67      0.00
    1    6   13      2.27      0.00
    2    6   13     -0.50      0.00
    3    6   13     -2.16      0.00
    4    6   13      0.65      0.00
    5    6   13      1.21      0.00
    6    6   13     -0.57      0.00
    7    6   13     -0.35      0.00
    8    6   13      0.85      0.00
    9    6   13     -1.86      0.00
   10    6   13      1.33      0.00
  -14    7   13      1.95      0.00
  -13    7   13     -1.15      0.00
  -12    7   13     -0.71      0.00
  -11    7   13      2.35      0.00
  -10    7   13     -1.67      0.00
   -9    7   13      0.70      0.00
   -8    7   13     -2.22      0.00
   -7    7   13      1.42      0.00
   -6    7   13      0.58      0.00
   -5    7   13     -0.72      0.00
   -4    7   13     -0.09      0.00
   -3    7   13      2.11      0.00
   -2    7   13     -2.27      0.00
   -1    7   13      2.33      0.00
    0    7   13     -2.55      0.00
    1    7   13      1.75      0.00
    2    7   13      0.41      0.00
    3    7   13     -2.41      0.00
    4    7   13      1.33      0.00
    5    7   13     -0.27      0.00
    6    7   13      0.92      0.00
    7    7   13     -1.12      0.00
    8    7   13      0.57      0.00
    9    7   13     -1.13      0.00
  -14    8   13      0.67      0.00
  -13    8   13     -0.22      0.00
  -12    8   13      0.36      0.00
  -11    8   13     -0.92      0.00
  -10    8   13      1.53      0.00
   -9    8   13     -2.30      0.00
   -8    8   13      1.34      0.00
   -7    8   13     -1.63      0.00
   -6    8   13      1.57      0.00
   -5    8   13      0.18      0.00
   -4    8   13     -0.07      0.00
   -3    8   13      0.71      0.00
   -2    8   13     -1.55      0.00
   -1    8   13      3.05      0.00
    0    8   13     -3.67      0.00
    1    8   13      2.02      0.00
    2    8   13     -0.22      0.00
    3    8   13     -0.47      0.00
    4    8   13     -0.85      0.00
    5    8   13      1.47      0.00
    6    8   13     -0.35      0.00
    7    8   13     -0.78      0.00
    8    8   13      0.75      0.00
  -13    9   13      2.35      0.00
  -12    9   13     -0.36      0.00
  -11    9   13     -0.90      0.00
  -10    9   13     -0.40      0.00
   -9    9   13      0.82      0.00
   -8    9   13     -1.28      0.00
   -7    9   13      0.82      0.00
   -6    9   13      0.08      0.00
   -5    9   13      0.72      0.00
   -4    9   13     -0.04      0.00
   -3    9   13     -0.21      0.00
   -2    9   13      0.62      0.00
   -1    9   13     -0.22      0.00
    0    9   13     -0.79      0.00
    1    9   13      0.15      0.00
    2    9   13      0.26      0.00
    3    9   13      0.05      0.00
    4    9   13     -0.94      0.00
    5    9   13      0.92      0.00
    6    9   13      0.03      0.00
    7    9   13     -0.69      0.00
    8    9   13     -0.34      0.00
  -13   10   13      2.17      0.00
  -12   10   13     -1.65      0.00
  -11   10   13      0.98      0.00
  -10   10   13     -1.23      0.00
   -9   10   13     -1.03      0.00
   -8   10   13      2.54      0.00
   -7   10   13     -0.82      0.00
   -6   10   13     -0.57      0.00
   -5   10   13      1.53      0.00
   -4   10   13     -0.83      0.00
   -3   10   13      0.28      0.00
   -2   10   13      1.12      0.00
   -1   10   13     -1.83      0.00
    0   10   13      0.06      0.00
    1   10   13      1.07      0.00
    2   10   13     -1.39      0.00
    3   10   13      0.31      0.00
    4   10   13      0.69      0.00
    5   10   13     -0.21      0.00
    6   10   13     -1.09      0.00
    7   10   13      0.90      0.00
  -12   11   13      0.37      0.00
  -11   11   13     -0.61      0.00
  -10   11   13     -0.03      0.00
   -9   11   13     -0.32      0.00
   -8   11   13      1.00      0.00
   -7   11   13      0.49      0.00
   -6   11   13     -0.48      0.00
   -5   11   13     -0.50      0.00
   -4   11   13      1.05      0.00
   -3   11   13      0.01      0.00
   -2   11   13     -0.43      0.00
   -1   11   13     -0.13      0.00
    0   11   13     -0.08      0.00
    1   11   13     -0.26      0.00
    2   11   13     -0.29      0.00
    3   11   13      0.05      0.00
    4   11   13      1.21      0.00
    5   11   13     -1.31      0.00
    6   11   13     -0.18      0.00
  -12   12   13     -1.22      0.00
  -11   12   13      0.48      0.00
  -10   12   13      0.56      0.00
   -9   12   13     -0.69      0.00
   -8   12   13      1.14      0.00
   -7   12   13     -0.02      0.00
   -6   12   13     -0.87      0.00
   -5   12   13      0.85      0.00
   -4   12   13      0.22      0.00
   -3   12   13     -1.24      0.00
   -2   12   13      1.16      0.00
   -1   12   13      0.17      0.00
    0   12   13     -1.34      0.00
    1   12   13     -0.44      0.00
    2   12   13      1.27      0.00
    3   12   13     -0.85      0.00
    4   12   13      0.71      0.00
    5   12   13     -0.47      0.00
  -11   13   13      1.12      0.00
  -10   13   13     -0.56      0.00
   -9   13   13      1.38      0.00
   -8   13   13     -1.37      0.00
   -7   13   13      1.22      0.00
   -6   13   13     -1.48      0.00
   -5   13   13      1.74      0.00
   -4   13   13     -0.69      0.00
   -3   13   13     -1.59      0.00
   -2   13   13      2.25      0.00
   -1   13   13     -0.13      0.00
    0   13   13     -2.40      0.00
    1   13   13      1.21      0.00
    2   13   13      0.08      0.00
    3   13   13     -0.18      0.00
  -10   14   13      0.11      0.00
   -9   14   13      0.85      0.00
   -8   14   13     -1.31      0.00
   -7   14   13      0.48      0.00
   -6   14   13      0.40      0.00
   -5   14   13      0.00      0.00
   -4   14   13     -1.04      0.00
   -3   14   13      0.67      0.00
   -2   14   13      0.05      0.00
   -1   14   13     -0.06      0.00
    0   14   13     -0.60      0.00
    1   14   13     -0.33      0.00
    2   14   13      0.37      0.00
   -8   15   13      0.37      0.00
   -7   15   13      0.05      0.00
   -6   15   13      0.08      0.00
   -5   15   13      0.09      0.00
   -4   15   13     -0.71      0.00
   -3   15   13     -0.18      0.00
   -2   15   13      1.29      0.00
   -1   15   13     -1.53      0.00
    0  -16   14      0.35      0.00
    1  -16   14     -0.14      0.00
    2  -16   14     -1.72      0.00
    3  -16   14      1.37      0.00
    4  -16   14     -0.52      0.00
    5  -16   14      1.70      0.00
   -3  -15   14      1.88      0.00
   -2  -15   14     -0.91      0.00
   -1  -15   14     -0.23      0.00
    0  -15   14     -0.79      0.00
    1  -15   14      0.57      0.00
    2  -15   14     -1.38      0.00
    3  -15   14      0.33      0.00
    4  -15   14      2.26      0.00
    5  -15   14     -1.52      0.00
    6  -15   14      0.96      0.00
    7  -15   14     -0.85      0.00
    8  -15   14      0.26      0.00
   -4  -14   14      0.30      0.00
   -3  -14   14     -0.18      0.00
   -2  -14   14      1.26      0.00
   -1  -14   14     -2.34      0.00
    0  -14   14      0.77      0.00
    1  -14   14     -0.94      0.00
    2  -14   14      0.28      0.00
    3  -14   14      0.38      0.00
    4  -14   14      1.82      0.00
    5  -14   14     -2.47      0.00
    6  -14   14      2.56      0.00
    7  -14   14     -2.12      0.00
    8  -14   14      0.19      0.00
    9  -14   14      0.24      0.00
   -6  -13   14     -0.18      0.00
   -5  -13   14     -0.47      0.00
   -4  -13   14      0.89      0.00
   -3  -13   14     -0.56      0.00
   -2  -13   14      0.60      0.00
   -1  -13   14     -0.91      0.00
    0  -13   14     -0.98      0.00
    1  -13   14      0.61      0.00
    2  -13   14      0.23      0.00
    3  -13   14      0.58      0.00
    4  -13   14      0.26      0.00
    5  -13   14     -0.16      0.00
    6  -13   14     -0.72      0.00
    7  -13   14      0.97      0.00
    8  -13   14     -2.30      0.00
    9  -13   14      1.63      0.00
   10  -13   14     -0.60      0.00
   -7  -12   14      2.40      0.00
   -6  -12   14     -1.06      0.00
   -5  -12   14      0.06      0.00
   -4  -12   14      0.94      0.00
   -3  -12   14     -1.06      0.00
   -2  -12   14      1.06      0.00
   -1  -12   14     -2.10      0.00
    0  -12   14      1.43      0.00
    1  -12   14     -0.98      0.00
    2  -12   14      0.35      0.00
    3  -12   14      0.79      0.00
    4  -12   14      1.48      0.00
    5  -12   14     -4.24      0.00
    6  -12   14      3.78      0.00
    7  -12   14     -2.76      0.00
    8  -12   14      0.21      0.00
    9  -12   14      0.59      0.00
   10  -12   14     -0.27      0.00
   -8  -11   14      0.73      0.00
   -7  -11   14     -0.87      0.00
   -6  -11   14      0.96      0.00
   -5  -11   14      0.28      0.00
   -4  -11   14     -0.05      0.00
   -3  -11   14     -0.46      0.00
   -2  -11   14      0.22      0.00
   -1  -11   14     -0.68      0.00
    0  -11   14      0.87      0.00
    1  -11   14     -1.68      0.00
    2  -11   14      1.19      0.00
    3  -11   14      0.93      0.00
    4  -11   14     -1.24      0.00
    5  -11   14      0.62      0.00
    6  -11   14     -2.72      0.00
    7  -11   14      2.04      0.00
    8  -11   14     -0.31      0.00
    9  -11   14     -0.39      0.00
   10  -11   14      0.63      0.00
   11  -11   14      1.60      0.00
   -9  -10   14     -0.45      0.00
   -8  -10   14      0.24      0.00
   -7  -10   14      0.10      0.00
   -6  -10   14     -0.01      0.00
   -5  -10   14      0.72      0.00
   -4  -10   14     -0.18      0.00
   -3  -10   14      0.20      0.00
   -2  -10   14     -0.98      0.00
   -1  -10   14      0.53      0.00
    0  -10   14      0.19      0.00
    1  -10   14     -1.77      0.00
    2  -10   14      1.23      0.00
    3  -10   14      0.35      0.00
    4  -10   14     -0.30      0.00
    5  -10   14     -1.23      0.00
    6  -10   14     -0.73      0.00
    7  -10   14      0.59      0.00
    8  -10   14      1.73      0.00
    9  -10   14     -0.70      0.00
   10  -10   14     -0.45      0.00
   11  -10   14      2.48      0.00
  -10   -9   14      0.85      0.00
   -9   -9   14     -0.68      0.00
   -8   -9   14     -0.46      0.00
   -7   -9   14      1.97      0.00
   -6   -9   14     -1.69      0.00
   -5   -9   14      0.85      0.00
   -4   -9   14      1.11      0.00
   -3   -9   14     -1.68      0.00
   -2   -9   14      0.87      0.00
   -1   -9   14     -0.77      0.00
    0   -9   14     -0.39      0.00
    1   -9   14      0.28      0.00
    2   -9   14     -1.38      0.00
    3   -9   14      1.54      0.00
    4   -9   14     -0.70      0.00
    5   -9   14     -0.42      0.00
    6   -9   14     -2.29      0.00
    7   -9   14      3.93      0.00
    8   -9   14     -0.32      0.00
    9   -9   14     -1.09      0.00
   10   -9   14      2.33      0.00
   11   -9   14     -2.22      0.00
   12   -9   14      0.80      0.00
  -10   -8   14     -0.63      0.00
   -9   -8   14      0.22      0.00
   -8   -8   14     -0.12      0.00
   -7   -8   14      0.45      0.00
   -6   -8   14      0.10      0.00
   -5   -8   14      0.46      0.00
   -4   -8   14     -0.88      0.00
   -3   -8   14      1.18      0.00
   -2   -8   14     -1.43      0.00
   -1   -8   14     -0.56      0.00
    0   -8   14      1.43      0.00
    1   -8   14     -2.95      0.00
    2   -8   14      1.17      0.00
    3   -8   14      0.17      0.00
    4   -8   14     -0.08      0.00
    5   -8   14     -1.64      0.00
    6   -8   14      2.60      0.00
    7   -8   14     -1.54      0.00
    8   -8   14      2.93      0.00
    9   -8   14     -1.11      0.00
   10   -8   14     -0.70      0.00
   11   -8   14      0.22      0.00
   12   -8   14     -0.25      0.00
  -11   -7   14      2.82      0.00
  -10   -7   14     -2.02      0.00
   -9   -7   14      0.76      0.00
   -8   -7   14     -0.47      0.00
   -7   -7   14      0.98      0.00
   -6   -7   14     -0.06      0.00
   -5   -7   14     -0.06      0.00
   -4   -7   14     -0.88      0.00
   -3   -7   14      1.75      0.00
   -2   -7   14     -3.66      0.00
   -1   -7   14      2.71      0.00
    0   -7   14     -1.31      0.00
    1   -7   14     -2.17      0.00
    2   -7   14      2.10      0.00
    3   -7   14     -1.55      0.00
    4   -7   14      0.86      0.00
    5   -7   14      0.90      0.00
    6   -7   14     -0.79      0.00
    7   -7   14      2.04      0.00
    8   -7   14     -0.20      0.00
    9   -7   14     -0.91      0.00
   10   -7   14      0.60      0.00
   11   -7   14     -1.56      0.00
   12   -7   14      1.28      0.00
  -11   -6   14      2.35      0.00
  -10   -6   14     -0.14      0.00
   -9   -6   14     -1.56      0.00
   -8   -6   14      1.01      0.00
   -7   -6   14      0.68      0.00
   -6   -6   14     -0.30      0.00
   -5   -6   14     -1.03      0.00
   -4   -6   14      1.50      0.00
   -3   -6   14     -2.75      0.00
   -2   -6   14      1.28      0.00
   -1   -6   14     -0.68      0.00
    0   -6   14     -1.11      0.00
    1   -6   14      1.05      0.00
    2   -6   14     -1.87      0.00
    3   -6   14      0.43      0.00
    4   -6   14      1.78      0.00
    5   -6   14      0.77      0.00
    6   -6   14     -1.27      0.00
    7   -6   14      2.94      0.00
    8   -6   14     -2.36      0.00
    9   -6   14     -0.78      0.00
   10   -6   14      2.37      0.00
   11   -6   14     -2.83      0.00
   12   -6   14      0.91      0.00
  -12   -5   14     -0.69      0.00
  -11   -5   14      0.97      0.00
  -10   -5   14      0.49      0.00
   -9   -5   14     -1.18      0.00
   -8   -5   14      0.53      0.00
   -7   -5   14      0.05      0.00
   -6   -5   14      0.48      0.00
   -5   -5   14     -0.92      0.00
   -4   -5   14     -0.76      0.00
   -3   -5   14      0.59      0.00
   -2   -5   14     -1.69      0.00
   -1   -5   14      0.39      0.00
    0   -5   14      0.00      0.00
    1   -5   14      0.20      0.00
    3   -5   14      2.37      0.00
    4   -5   14      0.28      0.00
    5   -5   14      1.35      0.00
    6   -5   14      0.56      0.00
    7   -5   14     -0.99      0.00
    8   -5   14     -0.95      0.00
    9   -5   14     -0.10      0.00
   10   -5   14      0.75      0.00
   11   -5   14     -0.04      0.00
   12   -5   14     -0.95      0.00
  -12   -4   14      0.24      0.00
  -11   -4   14     -0.69      0.00
  -10   -4   14      1.57      0.00
   -9   -4   14     -0.29      0.00
   -8   -4   14     -2.39      0.00
   -7   -4   14      2.47      0.00
   -6   -4   14     -0.21      0.00
   -5   -4   14     -1.41      0.00
   -4   -4   14     -0.46      0.00
   -3   -4   14     -0.33      0.00
   -2   -4   14      0.31      0.00
   -1   -4   14     -1.25      0.00
    0   -4   14      0.32      0.00
    1   -4   14      1.40      0.00
    2   -4   14     -1.87      0.00
    3   -4   14      1.24      0.00
    4   -4   14      0.18      0.00
    5   -4   14      4.42      0.00
    6   -4   14     -3.72      0.00
    7   -4   14      0.14      0.00
    8   -4   14     -0.34      0.00
    9   -4   14     -0.98      0.00
   10   -4   14      1.08      0.00
   11   -4   14      2.49      0.00
   12   -4   14     -4.43      0.00
  -13   -3   14      0.48      0.00
  -12   -3   14     -0.92      0.00
  -11   -3   14     -0.59      0.00
  -10   -3   14      2.51      0.00
   -9   -3   14     -2.11      0.00
   -8   -3   14     -0.54      0.00
   -7   -3   14      1.23      0.00
   -6   -3   14     -0.05      0.00
   -5   -3   14     -0.71      0.00
   -4   -3   14     -1.67      0.00
   -3   -3   14      0.39      0.00
   -2   -3   14      0.42      0.00
   -1   -3   14     -0.21      0.00
    0   -3   14     -2.33      0.00
    1   -3   14      5.77      0.00
    2   -3   14     -4.55      0.00
    3   -3   14      0.60      0.00
    4   -3   14      4.03      0.00
    5   -3   14     -0.87      0.00
    6   -3   14     -0.16      0.00
    7   -3   14     -2.47      0.00
    8   -3   14      0.46      0.00
    9   -3   14      0.40      0.00
   10   -3   14      1.26      0.00
   11   -3   14     -0.60      0.00
   12   -3   14     -0.40      0.00
  -13   -2   14      1.48      0.00
  -12   -2   14     -3.13      0.00
  -11   -2   14      2.57      0.00
  -10   -2   14     -1.48      0.00
   -9   -2   14      0.49      0.00
   -8   -2   14      0.17      0.00
   -7   -2   14     -1.48      0.00
   -6   -2   14      2.77      0.00
   -5   -2   14     -4.10      0.00
   -4   -2   14      2.11      0.00
   -3   -2   14     -1.65      0.00
   -2   -2   14      0.58      0.00
   -1   -2   14     -0.57      0.00
    0   -2   14      2.14      0.00
    1   -2   14     -0.39      0.00
    2   -2   14     -1.30      0.00
    3   -2   14      1.43      0.00
    4   -2   14      2.96      0.00
    5   -2   14     -2.51      0.00
    6   -2   14      0.15      0.00
    7   -2   14     -1.05      0.00
    8   -2   14      0.34      0.00
    9   -2   14     -0.50      0.00
   10   -2   14      2.57      0.00
   11   -2   14     -2.36      0.00
   12   -2   14      1.08      0.00
  -13   -1   14     -0.87      0.00
  -12   -1   14     -1.27      0.00
  -11   -1   14      0.54      0.00
  -10   -1   14      0.46      0.00
   -9   -1   14     -0.52      0.00
   -8   -1   14      0.59      0.00
   -7   -1   14     -0.30      0.00
   -6   -1   14     -1.44      0.00
   -5   -1   14      1.40      0.00
   -4   -1   14     -1.88      0.00
   -3   -1   14      0.80      0.00
   -2   -1   14     -0.64      0.00
   -1   -1   14      0.26      0.00
    0   -1   14      4.39      0.00
    1   -1   14     -5.93      0.00
    2   -1   14      3.32      0.00
    3   -1   14      1.62      0.00
    4   -1   14     -1.09      0.00
    5   -1   14      0.28      0.00
    6   -1   14     -2.08      0.00
    7   -1   14      2.46      0.00
    8   -1   14     -2.42      0.00
    9   -1   14      0.97      0.00
   10   -1   14      1.41      0.00
   11   -1   14     -1.16      0.00
   12   -1   14     -1.09      0.00
  -14    0   14      0.72      0.00
  -13    0   14      0.25      0.00
  -12    0   14     -3.14      0.00
  -11    0   14      2.88      0.00
  -10    0   14     -0.79      0.00
   -9    0   14      0.18      0.00
   -8    0   14      0.45      0.00
   -7    0   14     -0.98      0.00
   -6    0   14     -1.41      0.00
   -5    0   14      2.90      0.00
   -4    0   14     -3.62      0.00
   -3    0   14      1.75      0.00
   -2    0   14      0.24      0.00
   -1    0   14      1.25      0.00
    0    0   14     -0.73      0.00
    1    0   14      0.02      0.00
    2    0   14      0.96      0.00
    3    0   14     -0.22      0.00
    4    0   14      1.02      0.00
    5    0   14     -1.44      0.00
    6    0   14      0.03      0.00
    7    0   14      0.15      0.00
    8    0   14     -0.04      0.00
    9    0   14      0.18      0.00
   10    0   14     -0.05      0.00
   11    0   14     -0.29      0.00
   12    0   14     -0.47      0.00
  -14    1   14     -1.32      0.00
  -13    1   14     -0.50      0.00
  -12    1   14      1.57      0.00
  -11    1   14     -2.77      0.00
  -10    1   14      3.36      0.00
   -9    1   14     -0.25      0.00
   -8    1   14     -1.94      0.00
   -7    1   14      0.15      0.00
   -6    1   14      1.21      0.00
   -5    1   14     -2.45      0.00
   -4    1   14      1.77      0.00
   -3    1   14     -0.47      0.00
   -2    1   14      1.23      0.00
   -1    1   14     -0.32      0.00
    0    1   14      0.24      0.00
    1    1   14     -0.10      0.00
    2    1   14      1.16      0.00
    3    1   14     -1.18      0.00
    4    1   14      0.64      0.00
    5    1   14      0.61      0.00
    6    1   14     -2.31      0.00
    7    1   14      2.11      0.00
    8    1   14     -0.77      0.00
    9    1   14      0.18      0.00
   10    1   14     -1.00      0.00
   11    1   14      0.52      0.00
  -14    2   14     -0.02      0.00
  -13    2   14     -1.43      0.00
  -12    2   14      2.17      0.00
  -11    2   14     -1.55      0.00
  -10    2   14      1.44      0.00
   -9    2   14      0.20      0.00
   -8    2   14     -1.15      0.00
   -7    2   14      0.86      0.00
   -6    2   14     -2.97      0.00
   -5    2   14      3.12      0.00
   -4    2   14     -0.88      0.00
   -3    2   14     -0.12      0.00
   -2    2   14      1.27      0.00
   -1    2   14     -0.15      0.00
    0    2   14     -1.10      0.00
    1    2   14      1.37      0.00
    2    2   14      1.01      0.00
    3    2   14     -2.23      0.00
    4    2   14      0.96      0.00
    5    2   14      0.33      0.00
    6    2   14     -0.43      0.00
    7    2   14      0.03      0.00
    8    2   14      0.32      0.00
    9    2   14     -1.20      0.00
   10    2   14      0.77      0.00
   11    2   14      0.17      0.00
  -14    3   14      0.66      0.00
  -13    3   14     -0.48      0.00
  -12    3   14      0.63      0.00
  -11    3   14      0.66      0.00
  -10    3   14     -1.51      0.00
   -9    3   14      2.62      0.00
   -8    3   14     -1.64      0.00
   -7    3   14     -0.73      0.00
   -6    3   14      0.06      0.00
   -5    3   14     -0.95      0.00
   -4    3   14      4.90      0.00
   -3    3   14     -6.73      0.00
   -2    3   14      8.01      0.00
   -1    3   14     -7.30      0.00
    0    3   14      3.28      0.00
    1    3   14      2.50      0.00
    2    3   14     -2.97      0.00
    3    3   14     -0.27      0.00
    4    3   14      1.23      0.00
    5    3   14     -0.13      0.00
    6    3   14     -0.11      0.00
    7    3   14      0.21      0.00
    8    3   14     -1.06      0.00
    9    3   14      0.21      0.00
   10    3   14      1.63      0.00
   11    3   14     -2.56      0.00
  -14    4   14     -3.06      0.00
  -13    4   14      4.35      0.00
  -12    4   14     -3.23      0.00
  -11    4   14      1.90      0.00
  -10    4   14     -0.21      0.00
   -9    4   14      0.82      0.00
   -8    4   14     -1.51      0.00
   -7    4   14      0.24      0.00
   -6    4   14     -0.17      0.00
   -5    4   14     -0.38      0.00
   -4    4   14      1.56      0.00
   -3    4   14     -0.17      0.00
   -2    4   14      0.16      0.00
   -1    4   14     -2.23      0.00
    0    4   14      2.37      0.00
    1    4   14      2.34      0.00
    2    4   14     -4.48      0.00
    3    4   14      1.67      0.00
    4    4   14      0.13      0.00
    5    4   14      0.83      0.00
    6    4   14     -1.05      0.00
    7    4   14     -0.04      0.00
    8    4   14      0.27      0.00
    9    4   14      0.14      0.00
   10    4   14     -0.69      0.00
  -14    5   14     -0.70      0.00
  -13    5   14      0.43      0.00
  -12    5   14     -0.13      0.00
  -11    5   14      0.79      0.00
  -10    5   14      0.49      0.00
   -9    5   14     -0.60      0.00
   -8    5   14     -0.49      0.00
   -7    5   14     -0.55      0.00
   -6    5   14      0.97      0.00
   -5    5   14      0.11      0.00
   -4    5   14     -1.56      0.00
   -3    5   14      2.35      0.00
   -2    5   14     -0.54      0.00
   -1    5   14     -0.94      0.00
    0    5   14      0.58      0.00
    1    5   14      1.91      0.00
    2    5   14     -1.80      0.00
    3    5   14     -0.99      0.00
    4    5   14      1.70      0.00
    5    5   14     -0.09      0.00
    6    5   14     -0.74      0.00
    7    5   14      0.18      0.00
    8    5   14      0.55      0.00
    9    5   14     -0.79      0.00
   10    5   14     -0.05      0.00
  -14    6   14      0.51      0.00
  -13    6   14     -1.97      0.00
  -12    6   14      2.23      0.00
  -11    6   14      0.12      0.00
  -10    6   14     -0.34      0.00
   -9    6   14      0.08      0.00
   -8    6   14     -0.95      0.00
   -7    6   14     -0.67      0.00
   -6    6   14      2.05      0.00
   -5    6   14     -0.59      0.00
   -4    6   14     -2.58      0.00
   -3    6   14      3.25      0.00
   -2    6   14      0.96      0.00
   -1    6   14     -3.04      0.00
    0    6   14      1.57      0.00
    1    6   14      0.35      0.00
    2    6   14      0.98      0.00
    3    6   14     -2.98      0.00
    4    6   14      1.87      0.00
    5    6   14      0.36      0.00
    6    6   14     -1.28      0.00
    7    6   14      1.26      0.00
    8    6   14     -0.20      0.00
    9    6   14     -1.50      0.00
  -14    7   14      1.04      0.00
  -13    7   14     -0.65      0.00
  -12    7   14     -0.42      0.00
  -11    7   14      2.64      0.00
  -10    7   14     -2.63      0.00
   -9    7   14      1.31      0.00
   -8    7   14     -1.60      0.00
   -7    7   14      0.50      0.00
   -6    7   14      0.51      0.00
   -5    7   14     -0.08      0.00
   -4    7   14     -2.22      0.00
   -3    7   14      5.09      0.00
   -2    7   14     -3.41      0.00
   -1    7   14      0.89      0.00
    0    7   14     -0.16      0.00
    1    7   14      0.47      0.00
    2    7   14      0.46      0.00
    3    7   14     -1.12      0.00
    4    7   14      0.26      0.00
    5    7   14     -0.60      0.00
    6    7   14      1.84      0.00
    7    7   14     -1.59      0.00
    8    7   14      0.84      0.00
    9    7   14     -1.23      0.00
  -13    8   14     -1.22      0.00
  -12    8   14      1.16      0.00
  -11    8   14     -1.08      0.00
  -10    8   14      1.17      0.00
   -9    8   14     -2.30      0.00
   -8    8   14      2.33      0.00
   -7    8   14     -2.71      0.00
   -6    8   14      2.04      0.00
   -5    8   14     -1.05      0.00
   -4    8   14      0.78      0.00
   -3    8   14      1.67      0.00
   -2    8   14     -2.29      0.00
   -1    8   14      1.26      0.00
    0    8   14     -0.39      0.00
    1    8   14      0.00      0.00
    2    8   14      1.14      0.00
    3    8   14     -1.28      0.00
    4    8   14     -0.76      0.00
    5    8   14      1.33      0.00
    6    8   14     -0.10      0.00
    7    8   14     -0.26      0.00
    8    8   14     -0.04      0.00
  -13    9   14      1.40      0.00
  -12    9   14      0.11      0.00
  -11    9   14     -1.32      0.00
  -10    9   14      0.19      0.00
   -9    9   14     -0.17      0.00
   -8    9   14      0.09      0.00
   -7    9   14      0.10      0.00
   -6    9   14     -0.54      0.00
   -5    9   14      0.59      0.00
   -4    9   14      1.12      0.00
   -3    9   14     -0.11      0.00
   -2    9   14     -0.90      0.00
   -1    9   14      0.41      0.00
    0    9   14     -0.14      0.00
    1    9   14      0.76      0.00
    2    9   14     -0.42      0.00
    3    9   14     -0.16      0.00
    4    9   14     -1.19      0.00
    5    9   14      1.67      0.00
    6    9   14     -0.17      0.00
    7    9   14     -0.90      0.00
  -13   10   14      1.93      0.00
  -12   10   14     -0.72      0.00
  -11   10   14     -0.20      0.00
  -10   10   14     -0.88      0.00
   -9   10   14     -0.33      0.00
   -8   10   14      1.85      0.00
   -7   10   14     -0.94      0.00
   -6   10   14     -0.54      0.00
   -5   10   14      1.42      0.00
   -4   10   14      0.23      0.00
   -3   10   14     -0.77      0.00
   -2   10   14      0.79      0.00
   -1   10   14     -0.93      0.00
    0   10   14      0.13      0.00
    1   10   14      1.48      0.00
    2   10   14     -1.64      0.00
    3   10   14     -0.40      0.00
    4   10   14      1.12      0.00
    5   10   14     -0.15      0.00
    6   10   14     -0.71      0.00
  -12   11   14     -0.12      0.00
  -11   11   14     -0.06      0.00
  -10   11   14     -0.66      0.00
   -9   11   14      0.02      0.00
   -8   11   14      1.14      0.00
   -7   11   14     -0.33      0.00
   -6   11   14      0.24      0.00
   -5   11   14     -0.52      0.00
   -4   11   14      1.40      0.00
   -3   11   14     -1.16      0.00
   -2   11   14      0.17      0.00
   -1   11   14      0.85      0.00
    0   11   14     -1.14      0.00
    1   11   14      0.95      0.00
    2   11   14     -1.34      0.00
    3   11   14      0.52      0.00
    4   11   14      0.60      0.00
    5   11   14     -0.61      0.00
  -11   12   14     -0.05      0.00
  -10   12   14      0.63      0.00
   -9   12   14     -0.60      0.00
   -8   12   14      0.88      0.00
   -7   12   14     -0.05      0.00
   -6   12   14      0.28      0.00
   -5   12   14     -0.70      0.00
   -4   12   14      0.77      0.00
   -3   12   14     -0.31      0.00
   -2   12   14     -0.70      0.00
   -1   12   14      2.32      0.00
    0   12   14     -2.19      0.00
    1   12   14     -0.50      0.00
    2   12   14      1.52      0.00
    3   12   14     -1.29      0.00
    4   12   14      1.05      0.00
  -10   13   14     -1.44      0.00
   -9   13   14      1.54      0.00
   -8   13   14     -0.53      0.00
   -7   13   14      0.75      0.00
   -6   13   14     -1.56      0.00
   -5   13   14      2.04      0.00
   -4   13   14     -1.39      0.00
   -3   13   14     -0.68      0.00
   -2   13   14      2.26      0.00
   -1   13   14     -1.04      0.00
    0   13   14     -0.80      0.00
    1   13   14      0.09      0.00
    2   13   14     -0.17      0.00
    3   13   14      0.66      0.00
   -9   14   14      1.42      0.00
   -8   14   14     -1.55      0.00
   -7   14   14      1.17      0.00
   -6   14   14     -0.78      0.00
   -5   14   14      0.88      0.00
   -4   14   14     -1.56      0.00
   -3   14   14      1.27      0.00
   -2   14   14     -0.40      0.00
   -1   14   14      1.01      0.00
    0   14   14     -2.15      0.00
    1   14   14      0.68      0.00
   -7   15   14     -0.08      0.00
   -6   15   14      0.43      0.00
   -5   15   14     -0.72      0.00
   -4   15   14      0.11      0.00
   -3   15   14     -0.46      0.00
   -2   15   14      1.67      0.00
    1  -16   15     -1.09      0.00
    2  -16   15     -0.85      0.00
    3  -16   15      0.47      0.00
    4  -16   15     -0.72      0.00
   -2  -15   15     -0.32      0.00
   -1  -15   15      0.22      0.00
    0  -15   15     -0.43      0.00
    1  -15   15     -0.15      0.00
    2  -15   15     -1.39      0.00
    3  -15   15     -0.11      0.00
    4  -15   15      1.85      0.00
    5  -15   15      0.26      0.00
    6  -15   15     -0.09      0.00
    7  -15   15     -1.36      0.00
   -4  -14   15     -0.71      0.00
   -3  -14   15      0.93      0.00
   -2  -14   15      0.52      0.00
   -1  -14   15     -0.85      0.00
    0  -14   15      0.09      0.00
    1  -14   15     -1.14      0.00
    2  -14   15     -0.18      0.00
    3  -14   15     -0.05      0.00
    4  -14   15      2.36      0.00
    5  -14   15     -1.41      0.00
    6  -14   15      1.70      0.00
    7  -14   15     -2.70      0.00
    8  -14   15      1.12      0.00
   -5  -13   15     -2.30      0.00
   -4  -13   15      1.42      0.00
   -3  -13   15      0.68      0.00
   -2  -13   15     -0.57      0.00
   -1  -13   15      0.44      0.00
    0  -13   15     -1.87      0.00
    1  -13   15      0.75      0.00
    2  -13   15     -0.39      0.00
    3  -13   15      0.19      0.00
    4  -13   15      1.66      0.00
    5  -13   15     -0.37      0.00
    6  -13   15     -0.89      0.00
    7  -13   15      0.52      0.00
    8  -13   15     -1.61      0.00
    9  -13   15      1.49      0.00
   -6  -12   15     -1.67      0.00
   -5  -12   15      0.07      0.00
   -4  -12   15      1.20      0.00
   -3  -12   15     -0.48      0.00
   -2  -12   15      0.68      0.00
   -1  -12   15     -1.73      0.00
    0  -12   15      1.27      0.00
    1  -12   15     -1.48      0.00
    2  -12   15      0.45      0.00
    3  -12   15      1.04      0.00
    4  -12   15      1.22      0.00
    5  -12   15     -3.07      0.00
    6  -12   15      2.89      0.00
    7  -12   15     -2.65      0.00
    8  -12   15      0.05      0.00
    9  -12   15      0.98      0.00
   10  -12   15     -0.92      0.00
   -8  -11   15      1.12      0.00
   -7  -11   15     -1.43      0.00
   -6  -11   15      0.83      0.00
   -5  -11   15      0.02      0.00
   -4  -11   15      1.00      0.00
   -3  -11   15     -1.32      0.00
   -2  -11   15      1.16      0.00
   -1  -11   15     -1.41      0.00
    0  -11   15      1.41      0.00
    1  -11   15     -2.00      0.00
    2  -11   15      1.08      0.00
    3  -11   15      0.84      0.00
    4  -11   15      0.32      0.00
    5  -11   15     -1.46      0.00
    6  -11   15     -0.72      0.00
    7  -11   15      0.64      0.00
    8  -11   15     -0.34      0.00
    9  -11   15     -0.38      0.00
   10  -11   15      0.86      0.00
   11  -11   15      0.85      0.00
   -8  -10   15      0.02      0.00
   -7  -10   15     -0.31      0.00
   -6  -10   15      0.46      0.00
   -5  -10   15      0.37      0.00
   -4  -10   15      0.06      0.00
   -3  -10   15      0.46      0.00
   -2  -10   15     -1.47      0.00
   -1  -10   15      1.49      0.00
    0  -10   15     -0.53      0.00
    1  -10   15     -1.15      0.00
    2  -10   15      0.69      0.00
    3  -10   15      0.46      0.00
    4  -10   15      0.82      0.00
    5  -10   15     -2.10      0.00
    6  -10   15     -1.40      0.00
    7  -10   15      1.27      0.00
    8  -10   15      1.22      0.00
    9  -10   15     -1.30      0.00
   10  -10   15      0.57      0.00
   11  -10   15      2.08      0.00
   -9   -9   15     -0.88      0.00
   -8   -9   15     -0.33      0.00
   -7   -9   15      1.80      0.00
   -6   -9   15     -1.46      0.00
   -5   -9   15      0.62      0.00
   -4   -9   15      1.37      0.00
   -3   -9   15     -1.71      0.00
   -2   -9   15      1.02      0.00
   -1   -9   15     -0.52      0.00
    0   -9   15     -0.11      0.00
    1   -9   15      0.17      0.00
    2   -9   15     -2.22      0.00
    3   -9   15      2.95      0.00
    4   -9   15     -0.74      0.00
    5   -9   15     -1.74      0.00
    6   -9   15     -2.22      0.00
    7   -9   15      4.06      0.00
    8   -9   15     -0.78      0.00
    9   -9   15     -0.36      0.00
   10   -9   15      1.76      0.00
   11   -9   15     -1.18      0.00
  -10   -8   15     -0.20      0.00
   -9   -8   15      0.68      0.00
   -8   -8   15     -0.96      0.00
   -7   -8   15      0.58      0.00
   -6   -8   15      0.77      0.00
   -5   -8   15      0.06      0.00
   -4   -8   15     -1.04      0.00
   -3   -8   15      1.78      0.00
   -2   -8   15     -1.57      0.00
   -1   -8   15      0.31      0.00
    0   -8   15      0.37      0.00
    1   -8   15     -1.98      0.00
    2   -8   15      0.39      0.00
    3   -8   15      0.82      0.00
    4   -8   15     -0.26      0.00
    5   -8   15     -2.31      0.00
    6   -8   15      1.28      0.00
    7   -8   15      0.08      0.00
    8   -8   15      2.38      0.00
    9   -8   15     -1.01      0.00
   10   -8   15      0.00      0.00
   11   -8   15     -0.28      0.00
   12   -8   15     -0.22      0.00
  -11   -7   15      0.80      0.00
  -10   -7   15     -0.58      0.00
   -9   -7   15      1.15      0.00
   -8   -7   15     -1.27      0.00
   -7   -7   15      0.19      0.00
   -6   -7   15      1.69      0.00
   -5   -7   15     -0.47      0.00
   -4   -7   15     -1.61      0.00
   -3   -7   15      2.68      0.00
   -2   -7   15     -3.48      0.00
   -1   -7   15      3.01      0.00
    0   -7   15     -1.91      0.00
    1   -7   15     -2.50      0.00
    2   -7   15      3.40      0.00
    3   -7   15     -2.57      0.00
    4   -7   15      0.54      0.00
    5   -7   15     -0.11      0.00
    6   -7   15      0.73      0.00
    7   -7   15     -0.49      0.00
    8   -7   15      2.92      0.00
    9   -7   15     -1.75      0.00
   10   -7   15     -0.08      0.00
   11   -7   15     -0.47      0.00
   12   -7   15      0.15      0.00
  -11   -6   15      3.28      0.00
  -10   -6   15     -0.39      0.00
   -9   -6   15     -1.16      0.00
   -8   -6   15      0.50      0.00
   -7   -6   15      0.69      0.00
   -6   -6   15     -0.12      0.00
   -5   -6   15     -0.12      0.00
   -4   -6   15      0.36      0.00
   -3   -6   15     -1.78      0.00
   -2   -6   15      1.56      0.00
   -1   -6   15     -1.04      0.00
    0   -6   15     -0.99      0.00
    1   -6   15      0.44      0.00
    2   -6   15     -1.41      0.00
    3   -6   15      0.87      0.00
    4   -6   15     -0.74      0.00
    5   -6   15      2.39      0.00
    6   -6   15     -2.37      0.00
    7   -6   15      3.57      0.00
    8   -6   15     -1.63      0.00
    9   -6   15     -0.66      0.00
   10   -6   15      2.04      0.00
   11   -6   15     -3.46      0.00
   12   -6   15      1.75      0.00
  -12   -5   15     -1.74      0.00
  -11   -5   15      2.23      0.00
  -10   -5   15      0.56      0.00
   -9   -5   15     -2.21      0.00
   -8   -5   15      1.47      0.00
   -7   -5   15      0.20      0.00
   -6   -5   15     -0.47      0.00
   -5   -5   15      0.11      0.00
   -4   -5   15     -0.45      0.00
   -3   -5   15     -0.18      0.00
   -2   -5   15     -0.65      0.00
   -1   -5   15     -0.54      0.00
    0   -5   15      1.57      0.00
    1   -5   15     -3.80      0.00
    2   -5   15      2.96      0.00
    3   -5   15     -2.29      0.00
    4   -5   15      1.99      0.00
    5   -5   15      0.35      0.00
    6   -5   15      1.01      0.00
    7   -5   15     -0.46      0.00
    8   -5   15     -0.31      0.00
    9   -5   15     -0.94      0.00
   10   -5   15      2.13      0.00
   11   -5   15     -3.06      0.00
   12   -5   15      2.14      0.00
  -12   -4   15      0.54      0.00
  -11   -4   15     -0.40      0.00
  -10   -4   15      0.78      0.00
   -9   -4   15      0.00      0.00
   -8   -4   15     -1.12      0.00
   -7   -4   15      0.98      0.00
   -6   -4   15      0.46      0.00
   -5   -4   15     -1.81      0.00
   -4   -4   15      0.95      0.00
   -3   -4   15     -0.91      0.00
   -2   -4   15     -1.67      0.00
   -1   -4   15      3.45      0.00
    0   -4   15     -5.26      0.00
    1   -4   15      4.59      0.00
    2   -4   15     -3.36      0.00
    3   -4   15      1.52      0.00
    4   -4   15     -0.40      0.00
    5   -4   15      3.30      0.00
    6   -4   15     -1.38      0.00
    7   -4   15     -0.53      0.00
    8   -4   15     -0.06      0.00
    9   -4   15     -0.90      0.00
   10   -4   15      0.82      0.00
   11   -4   15      1.63      0.00
   12   -4   15     -3.41      0.00
  -12   -3   15      0.42      0.00
  -11   -3   15     -2.08      0.00
  -10   -3   15      3.00      0.00
   -9   -3   15     -1.76      0.00
   -8   -3   15     -0.07      0.00
   -7   -3   15      0.09      0.00
   -6   -3   15      0.91      0.00
   -5   -3   15     -1.02      0.00
   -4   -3   15     -1.39      0.00
   -3   -3   15      0.06      0.00
   -2   -3   15      1.02      0.00
   -1   -3   15     -1.45      0.00
    0   -3   15     -0.60      0.00
    1   -3   15      2.64      0.00
    2   -3   15     -2.03      0.00
    3   -3   15     -0.79      0.00
    4   -3   15      2.76      0.00
    5   -3   15      1.38      0.00
    6   -3   15     -1.31      0.00
    7   -3   15     -1.30      0.00
    8   -3   15      0.33      0.00
    9   -3   15      0.04      0.00
   10   -3   15      0.54      0.00
   11   -3   15      0.69      0.00
   12   -3   15     -1.62      0.00
  -13   -2   15      0.59      0.00
  -12   -2   15     -1.61      0.00
  -11   -2   15      0.80      0.00
  -10   -2   15     -1.07      0.00
   -9   -2   15      1.61      0.00
   -8   -2   15     -0.99      0.00
   -7   -2   15     -0.72      0.00
   -6   -2   15      2.42      0.00
   -5   -2   15     -3.40      0.00
   -4   -2   15      1.03      0.00
   -3   -2   15     -1.09      0.00
   -2   -2   15      0.22      0.00
   -1   -2   15      1.18      0.00
    0   -2   15     -2.13      0.00
    1   -2   15      3.41      0.00
    2   -2   15     -3.28      0.00
    3   -2   15      0.70      0.00
    4   -2   15      3.48      0.00
    5   -2   15     -1.80      0.00
    6   -2   15      0.84      0.00
    7   -2   15     -2.41      0.00
    8   -2   15      1.25      0.00
    9   -2   15     -0.25      0.00
   10   -2   15      1.21      0.00
   11   -2   15     -0.73      0.00
   12   -2   15      0.03      0.00
  -13   -1   15      0.38      0.00
  -12   -1   15     -2.06      0.00
  -11   -1   15      0.44      0.00
  -10   -1   15      0.36      0.00
   -9   -1   15     -0.40      0.00
   -8   -1   15      0.60      0.00
   -7   -1   15      0.46      0.00
   -6   -1   15     -1.86      0.00
   -5   -1   15      0.84      0.00
   -4   -1   15     -1.35      0.00
   -3   -1   15      0.31      0.00
   -2   -1   15     -0.18      0.00
   -1   -1   15      0.34      0.00
    0   -1   15      2.08      0.00
    1   -1   15     -2.81      0.00
    2   -1   15      0.74      0.00
    3   -1   15      1.15      0.00
    4   -1   15      0.76      0.00
    5   -1   15      0.14      0.00
    6   -1   15     -2.03      0.00
    7   -1   15      2.17      0.00
    8   -1   15     -2.96      0.00
    9   -1   15      2.22      0.00
   10   -1   15      1.29      0.00
   11   -1   15     -2.23      0.00
   12   -1   15     -0.07      0.00
  -13    0   15      1.14      0.00
  -12    0   15     -4.38      0.00
  -11    0   15      3.21      0.00
  -10    0   15     -0.98      0.00
   -9    0   15     -0.33      0.00
   -8    0   15      1.91      0.00
   -7    0   15     -1.29      0.00
   -6    0   15     -1.97      0.00
   -5    0   15      3.52      0.00
   -4    0   15     -5.42      0.00
   -3    0   15      4.42      0.00
   -2    0   15     -1.43      0.00
   -1    0   15     -0.64      0.00
    0    0   15      3.16      0.00
    1    0   15     -2.72      0.00
    2    0   15     -0.30      0.00
    3    0   15      2.26      0.00
    4    0   15      0.10      0.00
    5    0   15     -0.73      0.00
    6    0   15     -0.14      0.00
    7    0   15     -0.41      0.00
    8    0   15      0.44      0.00
    9    0   15      0.28      0.00
   10    0   15      0.60      0.00
   11    0   15     -1.32      0.00
  -13    1   15      0.71      0.00
  -12    1   15     -1.36      0.00
  -11    1   15     -1.10      0.00
  -10    1   15      2.64      0.00
   -9    1   15      0.30      0.00
   -8    1   15     -2.35      0.00
   -7    1   15      1.94      0.00
   -6    1   15     -1.32      0.00
   -5    1   15     -0.85      0.00
   -4    1   15      0.75      0.00
   -3    1   15      0.54      0.00
   -2    1   15     -0.36      0.00
   -1    1   15     -0.58      0.00
    0    1   15      3.43      0.00
    1    1   15     -4.21      0.00
    2    1   15      1.50      0.00
    3    1   15      1.79      0.00
    4    1   15     -1.23      0.00
    5    1   15      0.88      0.00
    6    1   15     -1.95      0.00
    7    1   15      2.10      0.00
    8    1   15     -0.92      0.00
    9    1   15      0.15      0.00
   10    1   15     -0.10      0.00
   11    1   15     -0.38      0.00
  -14    2   15     -0.25      0.00
  -13    2   15     -1.07      0.00
  -12    2   15      2.10      0.00
  -11    2   15     -3.73      0.00
  -10    2   15      4.22      0.00
   -9    2   15     -1.13      0.00
   -8    2   15     -0.20      0.00
   -7    2   15     -0.41      0.00
   -6    2   15     -1.27      0.00
   -5    2   15      1.85      0.00
   -4    2   15     -1.24      0.00
   -3    2   15      1.13      0.00
   -2    2   15     -1.12      0.00
   -1    2   15      1.72      0.00
    0    2   15     -0.46      0.00
    1    2   15     -1.65      0.00
    2    2   15      2.40      0.00
    3    2   15     -0.24      0.00
    4    2   15     -1.33      0.00
    5    2   15      1.66      0.00
    6    2   15     -1.14      0.00
    7    2   15      0.96      0.00
    8    2   15     -0.41      0.00
    9    2   15     -1.02      0.00
   10    2   15      1.34      0.00
   11    2   15     -0.62      0.00
  -14    3   15      0.60      0.00
  -13    3   15     -1.11      0.00
  -12    3   15      1.31      0.00
  -11    3   15     -0.31      0.00
  -10    3   15     -0.85      0.00
   -9    3   15      2.55      0.00
   -8    3   15     -0.68      0.00
   -7    3   15     -2.51      0.00
   -6    3   15      1.35      0.00
   -5    3   15     -0.14      0.00
   -4    3   15      1.70      0.00
   -3    3   15     -3.72      0.00
   -2    3   15      5.33      0.00
   -1    3   15     -5.34      0.00
    0    3   15      3.55      0.00
    1    3   15     -0.58      0.00
    2    3   15      0.11      0.00
    3    3   15     -1.03      0.00
    4    3   15      1.24      0.00
    5    3   15     -0.24      0.00
    6    3   15      0.34      0.00
    7    3   15     -0.38      0.00
    8    3   15     -0.16      0.00
    9    3   15     -0.60      0.00
   10    3   15      1.83      0.00
  -14    4   15     -2.13      0.00
  -13    4   15      3.19      0.00
  -12    4   15     -2.84      0.00
  -11    4   15      2.18      0.00
  -10    4   15     -0.62      0.00
   -9    4   15      1.14      0.00
   -8    4   15     -1.30      0.00
   -7    4   15      0.33      0.00
   -6    4   15     -0.72      0.00
   -5    4   15     -0.42      0.00
   -4    4   15      3.13      0.00
   -3    4   15     -4.32      0.00
   -2    4   15      4.09      0.00
   -1    4   15     -3.77      0.00
    0    4   15      2.41      0.00
    1    4   15      2.44      0.00
    2    4   15     -4.96      0.00
    3    4   15      2.63      0.00
    4    4   15      0.04      0.00
    5    4   15      0.88      0.00
    6    4   15     -1.86      0.00
    7    4   15      1.44      0.00
    8    4   15     -0.82      0.00
    9    4   15      0.16      0.00
   10    4   15      0.19      0.00
  -14    5   15     -2.12      0.00
  -13    5   15      1.56      0.00
  -12    5   15     -1.22      0.00
  -11    5   15      1.45      0.00
  -10    5   15      0.78      0.00
   -9    5   15     -1.19      0.00
   -8    5   15      0.15      0.00
   -7    5   15     -0.66      0.00
   -6    5   15      0.95      0.00
   -5    5   15     -0.81      0.00
   -4    5   15     -0.14      0.00
   -3    5   15      0.45      0.00
   -2    5   15      0.11      0.00
   -1    5   15      0.16      0.00
    0    5   15     -0.83      0.00
    1    5   15      3.43      0.00
    2    5   15     -3.93      0.00
    3    5   15      0.68      0.00
    4    5   15      1.81      0.00
    5    5   15     -0.10      0.00
    6    5   15     -1.49      0.00
    7    5   15      0.76      0.00
    8    5   15      0.54      0.00
    9    5   15     -0.70      0.00
  -13    6   15     -1.68      0.00
  -12    6   15      2.10      0.00
  -11    6   15     -0.47      0.00
  -10    6   15      1.23      0.00
   -9    6   15     -1.10      0.00
   -8    6   15     -0.43      0.00
   -7    6   15     -0.77      0.00
   -6    6   15      2.49      0.00
   -5    6   15     -2.30      0.00
   -4    6   15     -0.74      0.00
   -3    6   15      1.57      0.00
   -2    6   15      1.41      0.00
   -1    6   15     -2.08      0.00
    0    6   15      1.02      0.00
    1    6   15      0.20      0.00
    2    6   15      0.86      0.00
    3    6   15     -3.34      0.00
    4    6   15      3.78      0.00
    5    6   15     -0.57      0.00
    6    6   15     -2.24      0.00
    7    6   15      2.45      0.00
    8    6   15     -0.86      0.00
    9    6   15     -0.62      0.00
  -13    7   15     -0.92      0.00
  -12    7   15      0.46      0.00
  -11    7   15      1.74      0.00
  -10    7   15     -1.86      0.00
   -9    7   15      0.81      0.00
   -8    7   15     -0.63      0.00
   -7    7   15     -0.59      0.00
   -6    7   15      0.82      0.00
   -5    7   15     -0.08      0.00
   -4    7   15     -2.72      0.00
   -3    7   15      4.91      0.00
   -2    7   15     -2.33      0.00
   -1    7   15      0.20      0.00
    0    7   15      0.26      0.00
    1    7   15      0.12      0.00
    2    7   15     -0.14      0.00
    3    7   15      0.07      0.00
    4    7   15      0.48      0.00
    5    7   15     -0.99      0.00
    6    7   15      1.09      0.00
    7    7   15     -0.61      0.00
    8    7   15      0.62      0.00
  -13    8   15     -0.72      0.00
  -12    8   15      1.38      0.00
  -11    8   15     -1.21      0.00
  -10    8   15      0.53      0.00
   -9    8   15     -0.96      0.00
   -8    8   15      1.11      0.00
   -7    8   15     -1.76      0.00
   -6    8   15      1.35      0.00
   -5    8   15     -1.37      0.00
   -4    8   15      0.60      0.00
   -3    8   15      2.24      0.00
   -2    8   15     -1.13      0.00
   -1    8   15     -1.75      0.00
    0    8   15      2.69      0.00
    1    8   15     -1.68      0.00
    2    8   15      1.16      0.00
    3    8   15     -0.23      0.00
    4    8   15     -0.45      0.00
    5    8   15     -0.28      0.00
    6    8   15      0.92      0.00
    7    8   15     -0.10      0.00
  -13    9   15      0.69      0.00
  -12    9   15      0.26      0.00
  -11    9   15     -1.26      0.00
  -10    9   15      0.45      0.00
   -9    9   15     -1.30      0.00
   -8    9   15      1.74      0.00
   -7    9   15     -0.73      0.00
   -6    9   15     -0.89      0.00
   -5    9   15      0.28      0.00
   -4    9   15      1.56      0.00
   -3    9   15      0.59      0.00
   -2    9   15     -1.43      0.00
   -1    9   15     -0.53      0.00
    0    9   15      1.07      0.00
    1    9   15      0.71      0.00
    2    9   15     -0.67      0.00
    3    9   15      0.39      0.00
    4    9   15     -1.62      0.00
    5    9   15      1.68      0.00
    6    9   15     -0.32      0.00
    7    9   15     -0.28      0.00
  -12   10   15      0.22      0.00
  -11   10   15     -1.31      0.00
  -10   10   15     -0.70      0.00
   -9   10   15      0.63      0.00
   -8   10   15      0.59      0.00
   -7   10   15     -0.21      0.00
   -6   10   15     -0.61      0.00
   -5   10   15      0.04      0.00
   -4   10   15      2.23      0.00
   -3   10   15     -1.05      0.00
   -2   10   15     -0.79      0.00
   -1   10   15      0.07      0.00
    0   10   15      0.59      0.00
    1   10   15      0.96      0.00
    2   10   15     -0.60      0.00
    3   10   15     -1.30      0.00
    4   10   15      1.14      0.00
    5   10   15     -0.17      0.00
    6   10   15     -0.16      0.00
  -12   11   15     -0.09      0.00
  -11   11   15     -0.20      0.00
  -10   11   15     -0.90      0.00
   -9   11   15      0.38      0.00
   -8   11   15      1.27      0.00
   -7   11   15     -0.89      0.00
   -6   11   15      0.00      0.00
   -5   11   15      0.44      0.00
   -4   11   15      1.36      0.00
   -3   11   15     -2.05      0.00
   -2   11   15      0.63      0.00
   -1   11   15      0.51      0.00
    0   11   15     -0.25      0.00
    1   11   15      0.75      0.00
    2   11   15     -1.14      0.00
    3   11   15      0.41      0.00
    4   11   15     -0.27      0.00
    5   11   15      0.23      0.00
  -11   12   15     -0.50      0.00
  -10   12   15      0.90      0.00
   -9   12   15     -0.79      0.00
   -8   12   15      1.22      0.00
   -7   12   15     -0.73      0.00
   -6   12   15      0.93      0.00
   -5   12   15     -0.86      0.00
   -4   12   15      1.00      0.00
   -3   12   15     -0.27      0.00
   -2   12   15     -2.13      0.00
   -1   12   15      4.23      0.00
    0   12   15     -2.95      0.00
    1   12   15      0.30      0.00
    2   12   15      0.82      0.00
    3   12   15     -1.25      0.00
  -10   13   15     -1.62      0.00
   -9   13   15      1.80      0.00
   -8   13   15     -0.54      0.00
   -7   13   15      0.31      0.00
   -6   13   15     -0.54      0.00
   -5   13   15      1.06      0.00
   -4   13   15     -0.76      0.00
   -3   13   15     -0.64      0.00
   -2   13   15      1.63      0.00
   -1   13   15     -1.16      0.00
    0   13   15      1.09      0.00
    1   13   15     -1.29      0.00
    2   13   15     -0.32      0.00
   -8   14   15     -0.98      0.00
   -7   14   15      1.35      0.00
   -6   14   15     -1.37      0.00
   -5   14   15      1.51      0.00
   -4   14   15     -1.98      0.00
   -3   14   15      1.70      0.00
   -2   14   15     -1.09      0.00
   -1   14   15      1.61      0.00
    0   14   15     -1.86      0.00
   -5   15   15     -1.13      0.00
   -4   15   15      0.42      0.00
   -1  -15   16     -0.08      0.00
    0  -15   16      0.88      0.00
    1  -15   16     -1.31      0.00
    2  -15   16     -0.65      0.00
    3  -15   16     -0.70      0.00
    4  -15   16      0.84      0.00
    5  -15   16      1.75      0.00
    6  -15   16     -0.79      0.00
   -3  -14   16      1.30      0.00
   -2  -14   16     -0.26      0.00
   -1  -14   16      0.73      0.00
    0  -14   16     -0.31      0.00
    1  -14   16     -1.23      0.00
    2  -14   16     -0.12      0.00
    3  -14   16     -1.00      0.00
    4  -14   16      1.81      0.00
    5  -14   16      1.16      0.00
    6  -14   16     -0.08      0.00
    7  -14   16     -2.50      0.00
   -5  -13   16     -2.62      0.00
   -4  -13   16      0.92      0.00
   -3  -13   16      1.33      0.00
   -2  -13   16     -0.82      0.00
   -1  -13   16      0.89      0.00
    0  -13   16     -1.37      0.00
    1  -13   16      0.19      0.00
    2  -13   16     -0.91      0.00
    3  -13   16     -0.34      0.00
    4  -13   16      2.87      0.00
    5  -13   16     -0.80      0.00
    6  -13   16      0.00      0.00
    7  -13   16     -0.79      0.00
    8  -13   16     -0.58      0.00
    9  -13   16      1.09      0.00
   -6  -12   16     -1.08      0.00
   -5  -12   16     -0.48      0.00
   -4  -12   16      0.54      0.00
   -3  -12   16      1.13      0.00
   -2  -12   16     -0.49      0.00
   -1  -12   16     -0.39      0.00
    0  -12   16      0.31      0.00
    1  -12   16     -1.10      0.00
    2  -12   16     -0.28      0.00
    3  -12   16      1.42      0.00
    4  -12   16      0.77      0.00
    5  -12   16     -1.04      0.00
    6  -12   16      0.72      0.00
    7  -12   16     -0.94      0.00
    8  -12   16     -1.21      0.00
    9  -12   16      1.76      0.00
   -7  -11   16     -1.23      0.00
   -6  -11   16      0.15      0.00
   -5  -11   16      0.04      0.00
   -4  -11   16      0.95      0.00
   -3  -11   16     -0.95      0.00
   -2  -11   16      1.50      0.00
   -1  -11   16     -1.64      0.00
    0  -11   16      1.28      0.00
    1  -11   16     -2.04      0.00
    2  -11   16      1.28      0.00
    3  -11   16      0.46      0.00
    4  -11   16      1.08      0.00
    5  -11   16     -2.26      0.00
    6  -11   16      1.48      0.00
    7  -11   16     -1.96      0.00
    8  -11   16      0.68      0.00
    9  -11   16     -0.41      0.00
   10  -11   16      0.43      0.00
   -8  -10   16     -0.09      0.00
   -7  -10   16     -0.42      0.00
   -6  -10   16      0.63      0.00
   -5  -10   16     -0.40      0.00
   -4  -10   16      0.68      0.00
   -3  -10   16      0.64      0.00
   -2  -10   16     -1.76      0.00
   -1  -10   16      2.22      0.00
    0  -10   16     -1.76      0.00
    1  -10   16      0.36      0.00
    2  -10   16     -0.06      0.00
    3  -10   16      0.28      0.00
    4  -10   16      1.63      0.00
    5  -10   16     -2.15      0.00
    6  -10   16     -1.44      0.00
    7  -10   16      0.89      0.00
    8  -10   16      0.97      0.00
    9  -10   16     -1.94      0.00
   10  -10   16      1.95      0.00
   11  -10   16      0.53      0.00
   -9   -9   16     -0.84      0.00
   -8   -9   16      0.16      0.00
   -7   -9   16      1.18      0.00
   -6   -9   16     -1.20      0.00
   -5   -9   16      0.54      0.00
   -4   -9   16      1.15      0.00
   -3   -9   16     -0.90      0.00
   -2   -9   16      0.16      0.00
   -1   -9   16      0.00      0.00
    0   -9   16      0.57      0.00
    1   -9   16     -0.75      0.00
    2   -9   16     -1.20      0.00
    3   -9   16      2.09      0.00
    4   -9   16      0.31      0.00
    5   -9   16     -2.39      0.00
    6   -9   16     -1.95      0.00
    7   -9   16      3.01      0.00
    8   -9   16     -0.80      0.00
    9   -9   16      0.46      0.00
   10   -9   16      0.56      0.00
   11   -9   16      0.38      0.00
  -10   -8   16     -0.29      0.00
   -9   -8   16      0.56      0.00
   -8   -8   16     -0.56      0.00
   -7   -8   16      0.32      0.00
   -6   -8   16      0.61      0.00
   -5   -8   16      0.39      0.00
   -4   -8   16     -1.00      0.00
   -3   -8   16      1.68      0.00
   -2   -8   16     -1.81      0.00
   -1   -8   16      1.46      0.00
    0   -8   16     -0.55      0.00
    1   -8   16     -0.61      0.00
    2   -8   16     -0.91      0.00
    3   -8   16      1.56      0.00
    4   -8   16      0.07      0.00
    5   -8   16     -2.80      0.00
    6   -8   16     -0.34      0.00
    7   -8   16      2.02      0.00
    8   -8   16      0.49      0.00
    9   -8   16      0.11      0.00
   10   -8   16      0.33      0.00
   11   -8   16     -0.70      0.00
  -10   -7   16      0.34      0.00
   -9   -7   16      1.59      0.00
   -8   -7   16     -1.89      0.00
   -7   -7   16     -0.11      0.00
   -6   -7   16      2.58      0.00
   -5   -7   16     -0.66      0.00
   -4   -7   16     -1.55      0.00
   -3   -7   16      1.83      0.00
   -2   -7   16     -1.61      0.00
   -1   -7   16      1.97      0.00
    0   -7   16     -1.52      0.00
    1   -7   16     -2.03      0.00
    2   -7   16      3.15      0.00
    3   -7   16     -2.82      0.00
    4   -7   16      1.07      0.00
    5   -7   16     -1.61      0.00
    6   -7   16      1.22      0.00
    7   -7   16     -1.17      0.00
    8   -7   16      3.67      0.00
    9   -7   16     -1.29      0.00
   10   -7   16     -1.01      0.00
   11   -7   16      0.90      0.00
  -11   -6   16      1.89      0.00
  -10   -6   16     -0.18      0.00
   -9   -6   16      0.46      0.00
   -8   -6   16     -1.22      0.00
   -7   -6   16      0.86      0.00
   -6   -6   16      0.90      0.00
   -5   -6   16     -0.08      0.00
   -4   -6   16     -0.72      0.00
   -3   -6   16     -0.68      0.00
   -2   -6   16      1.45      0.00
   -1   -6   16     -0.40      0.00
    0   -6   16     -1.90      0.00
    1   -6   16      1.07      0.00
    2   -6   16     -1.40      0.00
    3   -6   16      1.25      0.00
    4   -6   16     -2.66      0.00
    5   -6   16      2.96      0.00
    6   -6   16     -1.87      0.00
    7   -6   16      1.71      0.00
    8   -6   16      0.80      0.00
    9   -6   16     -1.28      0.00
   10   -6   16      1.68      0.00
   11   -6   16     -3.19      0.00
   12   -6   16      1.70      0.00
  -11   -5   16      2.50      0.00
  -10   -5   16      0.78      0.00
   -9   -5   16     -2.44      0.00
   -8   -5   16      1.36      0.00
   -7   -5   16      0.82      0.00
   -6   -5   16     -0.71      0.00
   -5   -5   16     -0.02      0.00
   -4   -5   16      0.07      0.00
   -3   -5   16     -0.51      0.00
   -2   -5   16      0.54      0.00
   -1   -5   16     -2.09      0.00
    0   -5   16      3.43      0.00
    1   -5   16     -6.31      0.00
    2   -5   16      5.77      0.00
    3   -5   16     -4.26      0.00
    4   -5   16      1.36      0.00
    5   -5   16      0.94      0.00
    6   -5   16      0.44      0.00
    7   -5   16     -0.23      0.00
    8   -5   16      0.56      0.00
    9   -5   16     -1.26      0.00
   10   -5   16      2.42      0.00
   11   -5   16     -4.11      0.00
   12   -5   16      3.00      0.00
  -12   -4   16     -0.22      0.00
  -11   -4   16      0.87      0.00
  -10   -4   16     -0.06      0.00
   -9   -4   16     -0.54      0.00
   -8   -4   16      0.78      0.00
   -7   -4   16     -0.11      0.00
   -6   -4   16      0.01      0.00
   -5   -4   16     -0.79      0.00
   -4   -4   16      0.57      0.00
   -3   -4   16      0.03      0.00
   -2   -4   16     -2.77      0.00
   -1   -4   16      4.33      0.00
    0   -4   16     -5.61      0.00
    1   -4   16      3.80      0.00
    2   -4   16     -2.24      0.00
    3   -4   16      0.65      0.00
    4   -4   16     -0.52      0.00
    5   -4   16      1.86      0.00
    6   -4   16      0.47      0.00
    7   -4   16     -1.25      0.00
    8   -4   16      0.68      0.00
    9   -4   16     -1.11      0.00
   10   -4   16      1.52      0.00
   11   -4   16     -0.98      0.00
   12   -4   16     -0.63      0.00
  -12   -3   16      0.47      0.00
  -11   -3   16     -1.57      0.00
  -10   -3   16      2.13      0.00
   -9   -3   16     -1.93      0.00
   -8   -3   16      2.21      0.00
   -7   -3   16     -2.53      0.00
   -6   -3   16      2.35      0.00
   -5   -3   16     -1.99      0.00
   -4   -3   16      0.44      0.00
   -3   -3   16     -0.70      0.00
   -2   -3   16      0.19      0.00
   -1   -3   16     -0.69      0.00
    0   -3   16      0.16      0.00
    1   -3   16     -0.05      0.00
    2   -3   16      0.14      0.00
    3   -3   16     -1.26      0.00
    4   -3   16      1.67      0.00
    5   -3   16      0.84      0.00
    6   -3   16     -0.18      0.00
    7   -3   16     -0.87      0.00
    8   -3   16      0.01      0.00
    9   -3   16      0.56      0.00
   10   -3   16     -0.63      0.00
   11   -3   16      1.05      0.00
  -13   -2   16      0.04      0.00
  -12   -2   16      0.04      0.00
  -11   -2   16     -1.43      0.00
  -10   -2   16      0.75      0.00
   -9   -2   16      0.76      0.00
   -8   -2   16     -0.79      0.00
   -7   -2   16     -0.27      0.00
   -6   -2   16      0.99      0.00
   -5   -2   16     -0.84      0.00
   -4   -2   16     -1.24      0.00
   -3   -2   16      0.49      0.00
   -2   -2   16     -0.77      0.00
   -1   -2   16      1.75      0.00
    0   -2   16     -2.79      0.00
    1   -2   16      3.01      0.00
    2   -2   16     -2.12      0.00
    3   -2   16     -0.23      0.00
    4   -2   16      2.09      0.00
    5   -2   16     -0.05      0.00
    6   -2   16      0.02      0.00
    7   -2   16     -1.68      0.00
    8   -2   16      1.34      0.00
    9   -2   16      0.11      0.00
   10   -2   16     -0.91      0.00
   11   -2   16      1.65      0.00
  -13   -1   16      0.61      0.00
  -12   -1   16     -1.24      0.00
  -11   -1   16     -0.71      0.00
  -10   -1   16      0.62      0.00
   -9   -1   16      0.16      0.00
   -8   -1   16     -0.39      0.00
   -7   -1   16      1.27      0.00
   -6   -1   16     -1.54      0.00
   -5   -1   16      0.17      0.00
   -4   -1   16     -0.64      0.00
   -3   -1   16     -0.75      0.00
   -2   -1   16      0.60      0.00
   -1   -1   16      1.33      0.00
    0   -1   16     -1.79      0.00
    1   -1   16      1.08      0.00
    2   -1   16     -0.26      0.00
    3   -1   16     -1.22      0.00
    4   -1   16      2.29      0.00
    5   -1   16      0.24      0.00
    6   -1   16     -1.46      0.00
    7   -1   16      0.73      0.00
    8   -1   16     -1.34      0.00
    9   -1   16      1.96      0.00
   10   -1   16      0.23      0.00
   11   -1   16     -1.51      0.00
  -13    0   16      0.46      0.00
  -12    0   16     -2.83      0.00
  -11    0   16      1.64      0.00
  -10    0   16     -1.09      0.00
   -9    0   16      0.41      0.00
   -8    0   16      1.23      0.00
   -7    0   16     -0.44      0.00
   -6    0   16     -1.41      0.00
   -5    0   16      1.59      0.00
   -4    0   16     -3.79      0.00
   -3    0   16      3.55      0.00
   -2    0   16     -1.00      0.00
   -1    0   16     -0.97      0.00
    0    0   16      2.15      0.00
    1    0   16     -0.56      0.00
    2    0   16     -2.59      0.00
    3    0   16      2.43      0.00
    4    0   16      0.67      0.00
    5    0   16     -0.52      0.00
    6    0   16     -0.28      0.00
    7    0   16     -0.48      0.00
    8    0   16      0.38      0.00
    9    0   16      1.00      0.00
   10    0   16      0.25      0.00
   11    0   16     -1.88      0.00
  -13    1   16      1.76      0.00
  -12    1   16     -3.66      0.00
  -11    1   16      0.78      0.00
  -10    1   16      0.81      0.00
   -9    1   16      0.87      0.00
   -8    1   16     -1.56      0.00
   -7    1   16      2.27      0.00
   -6    1   16     -2.74      0.00
   -5    1   16      0.91      0.00
   -4    1   16     -1.54      0.00
   -3    1   16      2.82      0.00
   -2    1   16     -2.00      0.00
   -1    1   16     -0.50      0.00
    0    1   16      4.29      0.00
    1    1   16     -4.85      0.00
    2    1   16      0.13      0.00
    3    1   16      3.46      0.00
    4    1   16     -1.61      0.00
    5    1   16      0.25      0.00
    6    1   16     -0.77      0.00
    7    1   16      0.95      0.00
    8    1   16      0.11      0.00
    9    1   16     -0.33      0.00
   10    1   16      0.44      0.00
   11    1   16     -0.71      0.00
  -13    2   16      0.24      0.00
  -12    2   16     -0.83      0.00
  -11    2   16     -2.44      0.00
  -10    2   16      4.27      0.00
   -9    2   16     -1.59      0.00
   -8    2   16      0.47      0.00
   -7    2   16     -0.42      0.00
   -6    2   16     -1.00      0.00
   -5    2   16      0.90      0.00
   -4    2   16     -0.33      0.00
   -3    2   16      0.10      0.00
   -2    2   16     -0.18      0.00
   -1    2   16      0.28      0.00
    0    2   16      1.41      0.00
    1    2   16     -3.07      0.00
    2    2   16      0.73      0.00
    3    2   16      3.29      0.00
    4    2   16     -3.07      0.00
    5    2   16      0.97      0.00
    6    2   16     -0.18      0.00
    7    2   16      1.49      0.00
    8    2   16     -1.73      0.00
    9    2   16      0.55      0.00
   10    2   16      0.50      0.00
  -13    3   16     -0.88      0.00
  -12    3   16      1.27      0.00
  -11    3   16     -2.00      0.00
  -10    3   16      1.65      0.00
   -9    3   16      0.76      0.00
   -8    3   16      0.62      0.00
   -7    3   16     -3.60      0.00
   -6    3   16      2.54      0.00
   -5    3   16      0.20      0.00
   -4    3   16     -1.69      0.00
   -3    3   16      1.58      0.00
   -2    3   16     -0.85      0.00
   -1    3   16     -0.46      0.00
    0    3   16      1.87      0.00
    1    3   16     -2.32      0.00
    2    3   16      1.54      0.00
    3    3   16     -0.08      0.00
    4    3   16      0.16      0.00
    5    3   16     -0.51      0.00
    6    3   16      0.98      0.00
    7    3   16     -0.57      0.00
    8    3   16      0.72      0.00
    9    3   16     -1.66      0.00
   10    3   16      2.00      0.00
  -13    4   16      0.57      0.00
  -12    4   16     -1.37      0.00
  -11    4   16      2.01      0.00
  -10    4   16     -1.16      0.00
   -9    4   16      1.64      0.00
   -8    4   16     -0.94      0.00
   -7    4   16     -0.33      0.00
   -6    4   16     -0.38      0.00
   -5    4   16      0.65      0.00
   -4    4   16      0.96      0.00
   -3    4   16     -2.94      0.00
   -2    4   16      2.73      0.00
   -1    4   16     -2.37      0.00
    0    4   16      2.04      0.00
    1    4   16      0.66      0.00
    2    4   16     -2.80      0.00
    3    4   16      2.06      0.00
    4    4   16      0.14      0.00
    5    4   16     -0.09      0.00
    6    4   16     -0.75      0.00
    7    4   16      1.57      0.00
    8    4   16     -1.22      0.00
    9    4   16      0.02      0.00
  -13    5   16     -0.03      0.00
  -12    5   16      0.08      0.00
  -11    5   16      0.81      0.00
  -10    5   16      0.69      0.00
   -9    5   16     -0.65      0.00
   -8    5   16     -0.12      0.00
   -7    5   16     -0.16      0.00
   -6    5   16      0.27      0.00
   -5    5   16     -0.32      0.00
   -4    5   16      0.13      0.00
   -3    5   16     -0.97      0.00
   -2    5   16      0.46      0.00
   -1    5   16      0.65      0.00
    0    5   16     -0.70      0.00
    1    5   16      2.45      0.00
    2    5   16     -3.14      0.00
    3    5   16      0.81      0.00
    4    5   16      1.08      0.00
    5    5   16      0.75      0.00
    6    5   16     -2.02      0.00
    7    5   16      1.42      0.00
    8    5   16      0.03      0.00
    9    5   16     -0.70      0.00
  -13    6   16     -0.32      0.00
  -12    6   16      0.39      0.00
  -11    6   16      0.52      0.00
  -10    6   16      1.17      0.00
   -9    6   16     -1.13      0.00
   -8    6   16     -0.10      0.00
   -7    6   16     -0.98      0.00
   -6    6   16      2.55      0.00
   -5    6   16     -2.89      0.00
   -4    6   16      0.54      0.00
   -3    6   16      0.11      0.00
   -2    6   16      0.69      0.00
   -1    6   16     -0.25      0.00
    0    6   16      0.51      0.00
    1    6   16      0.00      0.00
    2    6   16      0.44      0.00
    3    6   16     -3.05      0.00
    4    6   16      3.94      0.00
    5    6   16     -0.13      0.00
    6    6   16     -2.64      0.00
    7    6   16      2.39      0.00
    8    6   16     -0.88      0.00
  -13    7   16     -1.35      0.00
  -12    7   16      0.98      0.00
  -11    7   16      0.60      0.00
  -10    7   16     -0.23      0.00
   -9    7   16     -0.27      0.00
   -8    7   16      0.63      0.00
   -7    7   16     -2.15      0.00
   -6    7   16      1.92      0.00
   -5    7   16     -1.19      0.00
   -4    7   16     -0.85      0.00
   -3    7   16      1.81      0.00
   -2    7   16     -0.78      0.00
   -1    7   16      1.42      0.00
    0    7   16     -1.30      0.00
    1    7   16      0.64      0.00
    2    7   16     -0.18      0.00
    3    7   16     -0.76      0.00
    4    7   16      1.76      0.00
    5    7   16     -0.26      0.00
    6    7   16     -1.04      0.00
    7    7   16      1.03      0.00
    8    7   16     -0.24      0.00
  -13    8   16      0.53      0.00
  -12    8   16      0.83      0.00
  -11    8   16     -1.18      0.00
  -10    8   16      0.48      0.00
   -9    8   16      0.32      0.00
   -8    8   16     -0.92      0.00
   -7    8   16     -0.03      0.00
   -6    8   16      0.15      0.00
   -5    8   16     -1.05      0.00
   -4    8   16      0.67      0.00
   -3    8   16      1.10      0.00
   -2    8   16      0.53      0.00
   -1    8   16     -2.46      0.00
    0    8   16      2.70      0.00
    1    8   16     -1.47      0.00
    2    8   16      0.07      0.00
    3    8   16      0.58      0.00
    4    8   16      0.87      0.00
    5    8   16     -1.87      0.00
    6    8   16      1.52      0.00
    7    8   16     -0.35      0.00
  -12    9   16      0.55      0.00
  -11    9   16     -1.35      0.00
  -10    9   16      0.77      0.00
   -9    9   16     -1.72      0.00
   -8    9   16      2.05      0.00
   -7    9   16     -1.20      0.00
   -6    9   16     -0.46      0.00
   -5    9   16     -0.04      0.00
   -4    9   16      0.84      0.00
   -3    9   16      1.40      0.00
   -2    9   16     -0.81      0.00
   -1    9   16     -1.84      0.00
    0    9   16      1.80      0.00
    1    9   16      0.46      0.00
    2    9   16     -1.01      0.00
    3    9   16      1.21      0.00
    4    9   16     -1.28      0.00
    5    9   16      1.11      0.00
    6    9   16     -0.80      0.00
  -12   10   16      0.48      0.00
  -11   10   16     -1.59      0.00
  -10   10   16     -0.54      0.00
   -9   10   16      0.85      0.00
   -8   10   16     -0.21      0.00
   -7   10   16      0.30      0.00
   -6   10   16     -0.25      0.00
   -5   10   16     -1.07      0.00
   -4   10   16      2.68      0.00
   -3   10   16     -0.28      0.00
   -2   10   16     -1.59      0.00
   -1   10   16      0.16      0.00
    0   10   16      0.78      0.00
    1   10   16      0.38      0.00
    2   10   16      0.28      0.00
    3   10   16     -1.06      0.00
    4   10   16      0.67      0.00
    5   10   16     -0.44      0.00
  -11   11   16     -0.88      0.00
  -10   11   16     -0.74      0.00
   -9   11   16      0.85      0.00
   -8   11   16      0.31      0.00
   -7   11   16     -0.12      0.00
   -6   11   16     -0.42      0.00
   -5   11   16      0.60      0.00
   -4   11   16      1.27      0.00
   -3   11   16     -1.71      0.00
   -2   11   16      0.41      0.00
   -1   11   16     -0.27      0.00
    0   11   16      1.15      0.00
    1   11   16     -0.62      0.00
    2   11   16      0.52      0.00
    3   11   16     -0.04      0.00
    4   11   16     -1.19      0.00
  -10   12   16      0.92      0.00
   -9   12   16     -1.35      0.00
   -8   12   16      2.33      0.00
   -7   12   16     -1.52      0.00
   -6   12   16      0.46      0.00
   -5   12   16      0.33      0.00
   -4   12   16      0.80      0.00
   -3   12   16     -1.12      0.00
   -2   12   16     -1.31      0.00
   -1   12   16      3.43      0.00
    0   12   16     -2.48      0.00
    1   12   16      1.00      0.00
    2   12   16      0.33      0.00
    3   12   16     -1.02      0.00
   -9   13   16      2.08      0.00
   -8   13   16     -1.13      0.00
   -7   13   16      0.50      0.00
   -6   13   16     -0.14      0.00
   -5   13   16      0.13      0.00
   -4   13   16      0.78      0.00
   -3   13   16     -1.47      0.00
   -2   13   16      0.88      0.00
   -1   13   16     -0.51      0.00
    0   13   16      1.46      0.00
    1   13   16     -1.15      0.00
   -7   14   16      0.67      0.00
   -6   14   16     -0.73      0.00
   -5   14   16      1.04      0.00
   -4   14   16     -1.21      0.00
   -3   14   16      1.45      0.00
   -2   14   16     -1.77      0.00
   -1   14   16      1.51      0.00
    0  -15   17      1.74      0.00
    1  -15   17     -1.94      0.00
    2  -15   17      0.33      0.00
    3  -15   17     -1.26      0.00
    4  -15   17      0.32      0.00
   -2  -14   17     -0.44      0.00
   -1  -14   17      1.19      0.00
    0  -14   17     -0.05      0.00
    1  -14   17     -0.97      0.00
    2  -14   17     -0.10      0.00
    3  -14   17     -1.50      0.00
    4  -14   17      0.40      0.00
    5  -14   17      3.43      0.00
    6  -14   17     -1.71      0.00
    7  -14   17     -1.26      0.00
   -4  -13   17     -0.06      0.00
   -3  -13   17      1.15      0.00
   -2  -13   17     -0.45      0.00
   -1  -13   17      0.66      0.00
    0  -13   17     -0.16      0.00
    1  -13   17     -0.60      0.00
    2  -13   17     -0.74      0.00
    3  -13   17     -1.24      0.00
    4  -13   17      3.00      0.00
    5  -13   17     -0.31      0.00
    6  -13   17      0.58      0.00
    7  -13   17     -1.69      0.00
    8  -13   17      0.30      0.00
   -6  -12   17     -0.39      0.00
   -5  -12   17     -0.38      0.00
   -4  -12   17     -0.31      0.00
   -3  -12   17      1.55      0.00
   -2  -12   17     -0.71      0.00
   -1  -12   17      0.65      0.00
    0  -12   17     -0.61      0.00
    1  -12   17     -0.08      0.00
    2  -12   17     -1.65      0.00
    3  -12   17      1.54      0.00
    4  -12   17      1.14      0.00
    5  -12   17     -0.37      0.00
    6  -12   17     -0.41      0.00
    7  -12   17      0.95      0.00
    8  -12   17     -2.77      0.00
    9  -12   17      2.13      0.00
   -7  -11   17     -0.60      0.00
   -6  -11   17     -0.29      0.00
   -5  -11   17      0.42      0.00
   -4  -11   17     -0.35      0.00
   -3  -11   17      0.27      0.00
   -2  -11   17      1.32      0.00
   -1  -11   17     -1.26      0.00
    0  -11   17      0.61      0.00
    1  -11   17     -1.56      0.00
    2  -11   17      0.93      0.00
    3  -11   17      0.41      0.00
    4  -11   17      1.09      0.00
    5  -11   17     -1.56      0.00
    6  -11   17      1.61      0.00
    7  -11   17     -2.25      0.00
    8  -11   17      0.43      0.00
    9  -11   17      0.07      0.00
   10  -11   17     -0.55      0.00
   -8  -10   17     -0.42      0.00
   -7  -10   17      0.22      0.00
   -6  -10   17      0.30      0.00
   -5  -10   17     -0.83      0.00
   -4  -10   17      0.54      0.00
   -3  -10   17      1.22      0.00
   -2  -10   17     -1.69      0.00
   -1  -10   17      2.34      0.00
    0  -10   17     -2.69      0.00
    1  -10   17      1.44      0.00
    2  -10   17     -0.40      0.00
    3  -10   17      0.26      0.00
    4  -10   17      1.47      0.00
    5  -10   17     -1.46      0.00
    6  -10   17     -0.65      0.00
    7  -10   17     -0.55      0.00
    8  -10   17      1.25      0.00
    9  -10   17     -2.31      0.00
   10  -10   17      2.60      0.00
   -9   -9   17     -0.59      0.00
   -8   -9   17      0.37      0.00
   -7   -9   17      0.84      0.00
   -6   -9   17     -0.98      0.00
   -5   -9   17      0.22      0.00
   -4   -9   17      0.67      0.00
   -3   -9   17      0.50      0.00
   -2   -9   17     -0.87      0.00
   -1   -9   17      0.30      0.00
    0   -9   17      0.94      0.00
    1   -9   17     -1.60      0.00
    2   -9   17      0.84      0.00
    3   -9   17      0.09      0.00
    4   -9   17      1.34      0.00
    5   -9   17     -2.17      0.00
    6   -9   17     -1.11      0.00
    7   -9   17      0.77      0.00
    8   -9   17     -0.15      0.00
    9   -9   17      0.78      0.00
   10   -9   17     -0.14      0.00
   -9   -8   17     -0.33      0.00
   -8   -8   17      0.72      0.00
   -7   -8   17     -0.35      0.00
   -6   -8   17      0.38      0.00
   -5   -8   17      0.39      0.00
   -4   -8   17     -0.35      0.00
   -3   -8   17      1.32      0.00
   -2   -8   17     -2.18      0.00
   -1   -8   17      2.23      0.00
    0   -8   17     -0.88      0.00
    1   -8   17     -0.20      0.00
    2   -8   17     -0.53      0.00
    3   -8   17      1.14      0.00
    4   -8   17      0.07      0.00
    5   -8   17     -1.78      0.00
    6   -8   17     -1.84      0.00
    7   -8   17      2.47      0.00
    8   -8   17     -0.67      0.00
    9   -8   17      1.33      0.00
   10   -8   17      0.02      0.00
   11   -8   17     -0.77      0.00
  -10   -7   17      0.43      0.00
   -9   -7   17      1.34      0.00
   -8   -7   17     -1.57      0.00
   -7   -7   17     -0.07      0.00
   -6   -7   17      2.06      0.00
   -5   -7   17     -0.32      0.00
   -4   -7   17     -0.59      0.00
   -3   -7   17      0.11      0.00
   -2   -7   17     -0.04      0.00
   -1   -7   17      1.00      0.00
    0   -7   17     -0.74      0.00
    1   -7   17     -1.32      0.00
    2   -7   17      2.26      0.00
    3   -7   17     -2.47      0.00
    4   -7   17      1.69      0.00
    5   -7   17     -2.58      0.00
    6   -7   17      0.43      0.00
    7   -7   17     -0.07      0.00
    8   -7   17      2.30      0.00
    9   -7   17      0.12      0.00
   10   -7   17     -1.63      0.00
   11   -7   17      1.31      0.00
  -11   -6   17      0.18      0.00
  -10   -6   17      0.09      0.00
   -9   -6   17      1.86      0.00
   -8   -6   17     -2.62      0.00
   -7   -6   17      0.89      0.00
   -6   -6   17      1.80      0.00
   -5   -6   17     -0.04      0.00
   -4   -6   17     -1.22      0.00
   -3   -6   17     -0.58      0.00
   -2   -6   17      1.82      0.00
   -1   -6   17     -0.45      0.00
    0   -6   17     -1.30      0.00
    1   -6   17      0.45      0.00
    2   -6   17     -0.05      0.00
    3   -6   17      0.05      0.00
    4   -6   17     -2.36      0.00
    5   -6   17      2.05      0.00
    6   -6   17     -1.26      0.00
    7   -6   17      0.39      0.00
    8   -6   17      2.34      0.00
    9   -6   17     -1.43      0.00
   10   -6   17      0.88      0.00
   11   -6   17     -2.24      0.00
  -11   -5   17      1.35      0.00
  -10   -5   17      0.67      0.00
   -9   -5   17     -1.12      0.00
   -8   -5   17     -0.06      0.00
   -7   -5   17      1.35      0.00
   -6   -5   17      0.14      0.00
   -5   -5   17     -0.74      0.00
   -4   -5   17      0.42      0.00
   -3   -5   17     -0.80      0.00
   -2   -5   17      0.83      0.00
   -1   -5   17     -0.98      0.00
    0   -5   17      1.34      0.00
    1   -5   17     -3.55      0.00
    2   -5   17      3.55      0.00
    3   -5   17     -2.33      0.00
    4   -5   17     -1.23      0.00
    5   -5   17      1.89      0.00
    6   -5   17      0.61      0.00
    7   -5   17     -1.30      0.00
    8   -5   17      1.75      0.00
    9   -5   17     -0.83      0.00
   10   -5   17      0.78      0.00
   11   -5   17     -2.19      0.00
  -11   -4   17      1.79      0.00
  -10   -4   17     -0.62      0.00
   -9   -4   17     -0.84      0.00
   -8   -4   17      1.32      0.00
   -7   -4   17      0.44      0.00
   -6   -4   17     -0.98      0.00
   -5   -4   17      0.41      0.00
   -4   -4   17     -0.73      0.00
   -3   -4   17      1.28      0.00
   -2   -4   17     -1.98      0.00
   -1   -4   17      1.36      0.00
    0   -4   17     -1.50      0.00
    1   -4   17      0.32      0.00
    2   -4   17      0.10      0.00
    3   -4   17     -0.76      0.00
    4   -4   17     -0.43      0.00
    5   -4   17      1.21      0.00
    6   -4   17      0.91      0.00
    7   -4   17     -1.56      0.00
    8   -4   17      1.53      0.00
    9   -4   17     -1.89      0.00
   10   -4   17      2.87      0.00
   11   -4   17     -3.19      0.00
  -12   -3   17     -0.02      0.00
  -11   -3   17      0.03      0.00
  -10   -3   17      0.35      0.00
   -9   -3   17     -1.65      0.00
   -8   -3   17      3.76      0.00
   -7   -3   17     -3.64      0.00
   -6   -3   17      2.39      0.00
   -5   -3   17     -2.21      0.00
   -4   -3   17      1.47      0.00
   -3   -3   17     -0.40      0.00
   -2   -3   17     -1.15      0.00
   -1   -3   17      0.21      0.00
    0   -3   17      0.33      0.00
    1   -3   17     -0.61      0.00
    2   -3   17     -0.18      0.00
    3   -3   17     -0.21      0.00
    4   -3   17      0.95      0.00
    5   -3   17     -0.83      0.00
    6   -3   17      1.42      0.00
    7   -3   17     -0.81      0.00
    8   -3   17     -0.75      0.00
    9   -3   17      2.03      0.00
   10   -3   17     -1.85      0.00
   11   -3   17      0.67      0.00
  -12   -2   17      0.19      0.00
  -11   -2   17     -1.70      0.00
  -10   -2   17      1.64      0.00
   -9   -2   17     -0.89      0.00
   -8   -2   17      1.06      0.00
   -7   -2   17     -0.82      0.00
   -6   -2   17     -0.34      0.00
   -5   -2   17      0.95      0.00
   -4   -2   17     -1.70      0.00
   -3   -2   17      1.17      0.00
   -2   -2   17     -1.75      0.00
   -1   -2   17      1.43      0.00
    0   -2   17     -1.00      0.00
    1   -2   17      0.48      0.00
    2   -2   17     -0.41      0.00
    3   -2   17     -0.24      0.00
    4   -2   17      0.80      0.00
    5   -2   17      0.09      0.00
    6   -2   17     -0.54      0.00
    7   -2   17      0.15      0.00
    8   -2   17      0.11      0.00
    9   -2   17      1.04      0.00
   10   -2   17     -2.11      0.00
   11   -2   17      2.12      0.00
  -12   -1   17     -0.32      0.00
  -11   -1   17     -2.08      0.00
  -10   -1   17      1.84      0.00
   -9   -1   17     -0.39      0.00
   -8   -1   17     -0.47      0.00
   -7   -1   17      1.01      0.00
   -6   -1   17     -1.11      0.00
   -5   -1   17      0.76      0.00
   -4   -1   17     -1.49      0.00
   -3   -1   17      0.11      0.00
   -2   -1   17      0.09      0.00
   -1   -1   17      1.31      0.00
    0   -1   17     -2.22      0.00
    1   -1   17      1.02      0.00
    2   -1   17      1.53      0.00
    3   -1   17     -3.52      0.00
    4   -1   17      2.33      0.00
    5   -1   17      0.83      0.00
    6   -1   17     -1.52      0.00
    7   -1   17     -0.23      0.00
    8   -1   17      0.98      0.00
    9   -1   17      0.71      0.00
   10   -1   17     -1.01      0.00
   11   -1   17      0.18      0.00
  -13    0   17     -1.12      0.00
  -12    0   17      0.43      0.00
  -11    0   17     -1.15      0.00
  -10    0   17     -0.54      0.00
   -9    0   17      1.57      0.00
   -8    0   17     -0.83      0.00
   -7    0   17      0.68      0.00
   -6    0   17     -0.07      0.00
   -5    0   17     -1.08      0.00
   -4    0   17     -0.61      0.00
   -3    0   17      0.68      0.00
   -2    0   17      0.70      0.00
   -1    0   17     -0.92      0.00
    0    0   17     -0.20      0.00
    1    0   17      2.13      0.00
    2    0   17     -3.08      0.00
    3    0   17      0.84      0.00
    4    0   17      0.96      0.00
    5    0   17      0.08      0.00
    6    0   17     -0.61      0.00
    7    0   17     -0.49      0.00
    8    0   17      0.70      0.00
    9    0   17      1.44      0.00
   10    0   17     -0.96      0.00
   11    0   17     -1.24      0.00
  -13    1   17      1.16      0.00
  -12    1   17     -2.57      0.00
  -11    1   17      0.22      0.00
  -10    1   17     -0.18      0.00
   -9    1   17      1.24      0.00
   -8    1   17     -0.88      0.00
   -7    1   17      1.70      0.00
   -6    1   17     -2.14      0.00
   -5    1   17      0.79      0.00
   -4    1   17     -2.08      0.00
   -3    1   17      3.58      0.00
   -2    1   17     -2.92      0.00
   -1    1   17      0.93      0.00
    0    1   17      1.62      0.00
    1    1   17     -1.99      0.00
    2    1   17     -1.33      0.00
    3    1   17      2.68      0.00
    4    1   17     -0.75      0.00
    5    1   17     -0.34      0.00
    6    1   17      0.14      0.00
    7    1   17     -0.32      0.00
    8    1   17      1.51      0.00
    9    1   17     -1.07      0.00
   10    1   17      0.90      0.00
  -13    2   17      1.06      0.00
  -12    2   17     -3.96      0.00
  -11    2   17      1.16      0.00
  -10    2   17      0.93      0.00
   -9    2   17     -0.26      0.00
   -8    2   17      0.77      0.00
   -7    2   17     -0.17      0.00
   -6    2   17     -1.49      0.00
   -5    2   17      1.08      0.00
   -4    2   17      0.14      0.00
   -3    2   17     -1.56      0.00
   -2    2   17      2.37      0.00
   -1    2   17     -2.19      0.00
    0    2   17      2.41      0.00
    1    2   17     -2.50      0.00
    2    2   17     -1.17      0.00
    3    2   17      4.30      0.00
    4    2   17     -2.31      0.00
    5    2   17     -0.91      0.00
    6    2   17      1.30      0.00
    7    2   17      1.01      0.00
    8    2   17     -1.99      0.00
    9    2   17      2.02      0.00
   10    2   17     -0.97      0.00
  -13    3   17      0.65      0.00
  -12    3   17     -1.12      0.00
  -11    3   17     -1.70      0.00
  -10    3   17      3.19      0.00
   -9    3   17     -0.94      0.00
   -8    3   17      1.05      0.00
   -7    3   17     -2.56      0.00
   -6    3   17      2.01      0.00
   -5    3   17      0.22      0.00
   -4    3   17     -2.24      0.00
   -3    3   17      2.99      0.00
   -2    3   17     -3.38      0.00
   -1    3   17      2.54      0.00
    0    3   17     -0.64      0.00
    1    3   17     -1.09      0.00
    2    3   17     -0.30      0.00
    3    3   17      2.23      0.00
    4    3   17     -0.61      0.00
    5    3   17     -1.54      0.00
    6    3   17      1.58      0.00
    7    3   17     -0.27      0.00
    8    3   17      0.91      0.00
    9    3   17     -1.59      0.00
  -13    4   17     -0.63      0.00
  -12    4   17     -1.57      0.00
  -11    4   17      2.40      0.00
  -10    4   17     -1.07      0.00
   -9    4   17      1.23      0.00
   -8    4   17     -0.18      0.00
   -7    4   17     -1.56      0.00
   -6    4   17      1.33      0.00
   -5    4   17      0.86      0.00
   -4    4   17     -2.05      0.00
   -3    4   17      1.08      0.00
   -2    4   17     -1.34      0.00
   -1    4   17      0.85      0.00
    0    4   17      0.58      0.00
    1    4   17     -0.85      0.00
    2    4   17     -0.63      0.00
    3    4   17      1.50      0.00
    4    4   17      0.36      0.00
    5    4   17     -1.73      0.00
    6    4   17      0.91      0.00
    7    4   17      1.01      0.00
    8    4   17     -0.57      0.00
    9    4   17     -0.42      0.00
  -13    5   17     -2.96      0.00
  -12    5   17      2.11      0.00
  -11    5   17     -0.01      0.00
  -10    5   17      0.44      0.00
   -9    5   17      0.32      0.00
   -8    5   17     -1.09      0.00
   -7    5   17      0.74      0.00
   -6    5   17     -0.49      0.00
   -5    5   17      1.25      0.00
   -4    5   17     -1.68      0.00
   -3    5   17     -0.26      0.00
   -2    5   17     -0.02      0.00
   -1    5   17      0.84      0.00
    0    5   17     -0.36      0.00
    1    5   17      0.63      0.00
    2    5   17     -0.77      0.00
    3    5   17     -0.04      0.00
    4    5   17      0.74      0.00
    5    5   17      0.20      0.00
    6    5   17     -0.99      0.00
    7    5   17      1.47      0.00
    8    5   17     -0.33      0.00
  -13    6   17     -0.02      0.00
  -12    6   17     -0.57      0.00
  -11    6   17      1.77      0.00
  -10    6   17     -0.23      0.00
   -9    6   17      0.16      0.00
   -8    6   17     -0.56      0.00
   -7    6   17     -0.59      0.00
   -6    6   17      1.72      0.00
   -5    6   17     -1.72      0.00
   -4    6   17     -0.22      0.00
   -3    6   17      0.31      0.00
   -2    6   17     -0.48      0.00
   -1    6   17      0.39      0.00
    0    6   17      1.28      0.00
    1    6   17     -1.15      0.00
    2    6   17      0.76      0.00
    3    6   17     -1.97      0.00
    4    6   17      1.91      0.00
    5    6   17      0.95      0.00
    6    6   17     -2.17      0.00
    7    6   17      1.90      0.00
    8    6   17     -0.74      0.00
  -13    7   17     -1.31      0.00
  -12    7   17      0.86      0.00
  -11    7   17      0.10      0.00
  -10    7   17      0.51      0.00
   -9    7   17     -0.25      0.00
   -8    7   17      0.80      0.00
   -7    7   17     -2.83      0.00
   -6    7   17      2.75      0.00
   -5    7   17     -2.37      0.00
   -4    7   17      1.20      0.00
   -3    7   17     -0.84      0.00
   -2    7   17     -0.11      0.00
   -1    7   17      2.27      0.00
    0    7   17     -1.81      0.00
    1    7   17      0.34      0.00
    2    7   17      0.94      0.00
    3    7   17     -2.41      0.00
    4    7   17      2.04      0.00
    5    7   17      1.38      0.00
    6    7   17     -2.66      0.00
    7    7   17      2.10      0.00
  -12    8   17     -0.29      0.00
  -11    8   17     -0.72      0.00
  -10    8   17      0.83      0.00
   -9    8   17      0.71      0.00
   -8    8   17     -1.89      0.00
   -7    8   17      0.84      0.00
   -6    8   17     -0.82      0.00
   -5    8   17     -0.52      0.00
   -4    8   17      1.24      0.00
   -3    8   17     -0.65      0.00
   -2    8   17      0.90      0.00
   -1    8   17     -0.47      0.00
    0    8   17      0.26      0.00
    1    8   17      0.00      0.00
    2    8   17     -0.50      0.00
    3    8   17     -0.10      0.00
    4    8   17      1.80      0.00
    5    8   17     -1.48      0.00
    6    8   17      1.07      0.00
  -12    9   17      0.83      0.00
  -11    9   17     -1.60      0.00
  -10    9   17      1.31      0.00
   -9    9   17     -1.26      0.00
   -8    9   17      0.67      0.00
   -7    9   17     -0.74      0.00
   -6    9   17     -0.02      0.00
   -5    9   17     -0.47      0.00
   -4    9   17      0.70      0.00
   -3    9   17      1.06      0.00
   -2    9   17     -0.06      0.00
   -1    9   17     -1.95      0.00
    0    9   17      1.62      0.00
    1    9   17      0.14      0.00
    2    9   17     -0.94      0.00
    3    9   17      0.81      0.00
    4    9   17      0.20      0.00
    5    9   17      0.45      0.00
    6    9   17     -1.24      0.00
  -11   10   17     -1.32      0.00
  -10   10   17      0.10      0.00
   -9   10   17      0.00      0.00
   -8   10   17      0.01      0.00
   -7   10   17     -0.58      0.00
   -6   10   17      0.83      0.00
   -5   10   17     -0.73      0.00
   -4   10   17      0.76      0.00
   -3   10   17      0.86      0.00
   -2   10   17     -0.76      0.00
   -1   10   17     -0.96      0.00
    0   10   17      0.96      0.00
    1   10   17      0.26      0.00
    2   10   17     -0.13      0.00
    3   10   17      0.17      0.00
    4   10   17      0.30      0.00
    5   10   17     -0.60      0.00
  -11   11   17     -1.58      0.00
  -10   11   17     -0.01      0.00
   -9   11   17      0.98      0.00
   -8   11   17     -1.49      0.00
   -7   11   17      1.38      0.00
   -6   11   17     -0.38      0.00
   -5   11   17      0.25      0.00
   -4   11   17      0.58      0.00
   -3   11   17     -0.47      0.00
   -2   11   17     -0.36      0.00
   -1   11   17      0.16      0.00
    0   11   17      0.76      0.00
    1   11   17     -1.26      0.00
    2   11   17      1.71      0.00
    3   11   17      0.04      0.00
  -10   12   17      0.63      0.00
   -9   12   17     -1.71      0.00
   -8   12   17      2.92      0.00
   -7   12   17     -2.04      0.00
   -6   12   17      0.73      0.00
   -5   12   17      0.54      0.00
   -4   12   17      0.66      0.00
   -3   12   17     -2.06      0.00
   -2   12   17      0.88      0.00
   -1   12   17      1.05      0.00
    0   12   17     -1.40      0.00
    1   12   17      0.86      0.00
    2   12   17      0.61      0.00
   -8   13   17     -1.20      0.00
   -7   13   17      1.22      0.00
   -6   13   17     -1.03      0.00
   -5   13   17      0.42      0.00
   -4   13   17      1.36      0.00
   -3   13   17     -2.12      0.00
   -2   13   17      0.97      0.00
   -1   13   17     -0.13      0.00
    0   13   17      0.44      0.00
   -5   14   17     -0.29      0.00
   -4   14   17      0.38      0.00
   -3   14   17      0.74      0.00
   -2  -14   18     -0.19      0.00
   -1  -14   18      0.46      0.00
    0  -14   18      0.58      0.00
    1  -14   18     -0.47      0.00
    2  -14   18     -0.17      0.00
    3  -14   18     -1.30      0.00
    4  -14   18     -0.65      0.00
    5  -14   18      3.40      0.00
    6  -14   18     -1.74      0.00
   -4  -13   18     -0.28      0.00
   -3  -13   18      0.65      0.00
   -2  -13   18     -0.35      0.00
   -1  -13   18      0.46      0.00
    0  -13   18      0.48      0.00
    1  -13   18     -0.61      0.00
    2  -13   18     -0.29      0.00
    3  -13   18     -1.88      0.00
    4  -13   18      1.73      0.00
    5  -13   18      1.28      0.00
    6  -13   18     -0.27      0.00
    7  -13   18     -0.92      0.00
   -5  -12   18      0.68      0.00
   -4  -12   18     -0.63      0.00
   -3  -12   18      0.37      0.00
   -2  -12   18      0.01      0.00
   -1  -12   18      1.14      0.00
    0  -12   18     -1.15      0.00
    1  -12   18      0.64      0.00
    2  -12   18     -1.89      0.00
    3  -12   18      0.36      0.00
    4  -12   18      2.18      0.00
    5  -12   18     -1.06      0.00
    6  -12   18      0.31      0.00
    7  -12   18      1.26      0.00
    8  -12   18     -2.85      0.00
   -6  -11   18     -0.36      0.00
   -5  -11   18      1.24      0.00
   -4  -11   18     -1.61      0.00
   -3  -11   18      0.53      0.00
   -2  -11   18      1.44      0.00
   -1  -11   18     -0.60      0.00
    0  -11   18     -0.48      0.00
    1  -11   18     -0.05      0.00
    2  -11   18     -0.70      0.00
    3  -11   18      0.91      0.00
    4  -11   18      0.94      0.00
    5  -11   18     -0.34      0.00
    6  -11   18     -0.19      0.00
    7  -11   18      0.45      0.00
    8  -11   18     -1.58      0.00
    9  -11   18      0.69      0.00
   -7  -10   18      1.20      0.00
   -6  -10   18     -0.37      0.00
   -5  -10   18     -0.17      0.00
   -4  -10   18     -0.68      0.00
   -3  -10   18      1.68      0.00
   -2  -10   18     -0.88      0.00
   -1  -10   18      1.49      0.00
    0  -10   18     -2.34      0.00
    1  -10   18      1.41      0.00
    2  -10   18     -0.60      0.00
    3  -10   18      0.57      0.00
    4  -10   18      0.89      0.00
    5  -10   18     -0.37      0.00
    6  -10   18     -0.48      0.00
    7  -10   18     -0.88      0.00
    8  -10   18      0.91      0.00
    9  -10   18     -2.04      0.00
   -8   -9   18     -0.13      0.00
   -7   -9   18      1.14      0.00
   -6   -9   18     -0.91      0.00
   -5   -9   18      0.23      0.00
   -4   -9   18     -0.56      0.00
   -3   -9   18      2.02      0.00
   -2   -9   18     -1.41      0.00
   -1   -9   18      0.49      0.00
    0   -9   18      0.40      0.00
    1   -9   18     -1.39      0.00
    2   -9   18      1.82      0.00
    3   -9   18     -0.99      0.00
    4   -9   18      1.71      0.00
    5   -9   18     -1.67      0.00
    6   -9   18      0.10      0.00
    7   -9   18     -1.33      0.00
    8   -9   18      0.32      0.00
    9   -9   18      0.68      0.00
   10   -9   18     -0.07      0.00
   -9   -8   18     -1.14      0.00
   -8   -8   18      1.46      0.00
   -7   -8   18     -0.74      0.00
   -6   -8   18      0.68      0.00
   -5   -8   18     -0.57      0.00
   -4   -8   18      0.69      0.00
   -3   -8   18      0.60      0.00
   -2   -8   18     -1.26      0.00
   -1   -8   18      1.34      0.00
    0   -8   18     -0.35      0.00
    1   -8   18     -0.80      0.00
    2   -8   18      1.16      0.00
    3   -8   18      0.16      0.00
    4   -8   18     -0.47      0.00
    5   -8   18      0.11      0.00
    6   -8   18     -2.23      0.00
    7   -8   18      0.78      0.00
    8   -8   18     -0.36      0.00
    9   -8   18      1.91      0.00
   10   -8   18     -0.50      0.00
  -10   -7   18      0.44      0.00
   -9   -7   18      0.38      0.00
   -8   -7   18     -0.55      0.00
   -7   -7   18     -0.15      0.00
   -6   -7   18      1.36      0.00
   -5   -7   18     -0.44      0.00
   -4   -7   18      0.63      0.00
   -3   -7   18     -0.60      0.00
   -2   -7   18     -0.25      0.00
   -1   -7   18      1.41      0.00
    0   -7   18     -1.01      0.00
    1   -7   18     -0.42      0.00
    2   -7   18      1.61      0.00
    3   -7   18     -1.42      0.00
    4   -7   18      0.99      0.00
    5   -7   18     -1.88      0.00
    6   -7   18     -0.60      0.00
    7   -7   18      0.04      0.00
    8   -7   18      1.62      0.00
    9   -7   18      0.85      0.00
   10   -7   18     -1.28      0.00
  -10   -6   18      0.31      0.00
   -9   -6   18      1.71      0.00
   -8   -6   18     -2.48      0.00
   -7   -6   18      0.74      0.00
   -6   -6   18      1.74      0.00
   -5   -6   18      0.09      0.00
   -4   -6   18     -0.62      0.00
   -3   -6   18     -1.18      0.00
   -2   -6   18      2.20      0.00
   -1   -6   18     -1.72      0.00
    0   -6   18      1.74      0.00
    1   -6   18     -2.69      0.00
    2   -6   18      3.18      0.00
    3   -6   18     -2.14      0.00
    4   -6   18     -0.68      0.00
    5   -6   18      0.65      0.00
    6   -6   18     -1.72      0.00
    7   -6   18      1.01      0.00
    8   -6   18      1.85      0.00
    9   -6   18     -0.43      0.00
   10   -6   18     -0.24      0.00
   11   -6   18     -1.51      0.00
  -11   -5   18     -0.03      0.00
  -10   -5   18      0.61      0.00
   -9   -5   18      0.10      0.00
   -8   -5   18     -1.07      0.00
   -7   -5   18      1.14      0.00
   -6   -5   18      0.90      0.00
   -5   -5   18     -0.28      0.00
   -4   -5   18     -0.10      0.00
   -3   -5   18     -0.91      0.00
   -2   -5   18      0.33      0.00
   -1   -5   18      1.49      0.00
    0   -5   18     -2.43      0.00
    1   -5   18      1.38      0.00
    2   -5   18     -0.53      0.00
    3   -5   18      0.88      0.00
    4   -5   18     -3.40      0.00
    5   -5   18      1.66      0.00
    6   -5   18      1.52      0.00
    7   -5   18     -2.59      0.00
    8   -5   18      2.60      0.00
    9   -5   18      0.41      0.00
   10   -5   18     -2.37      0.00
   11   -5   18      1.06      0.00
  -11   -4   18      1.97      0.00
  -10   -4   18     -1.13      0.00
   -9   -4   18     -0.26      0.00
   -8   -4   18      0.40      0.00
   -7   -4   18      1.48      0.00
   -6   -4   18     -1.20      0.00
   -5   -4   18      0.79      0.00
   -4   -4   18     -1.13      0.00
   -3   -4   18      0.88      0.00
   -2   -4   18     -0.21      0.00
   -1   -4   18     -1.16      0.00
    0   -4   18      1.39      0.00
    1   -4   18     -1.38      0.00
    2   -4   18      1.21      0.00
    3   -4   18     -1.61      0.00
    4   -4   18     -0.24      0.00
    5   -4   18      0.56      0.00
    6   -4   18      1.19      0.00
    7   -4   18     -1.68      0.00
    8   -4   18      1.93      0.00
    9   -4   18     -2.30      0.00
   10   -4   18      3.17      0.00
   11   -4   18     -3.41      0.00
  -12   -3   18      0.10      0.00
  -11   -3   18      0.87      0.00
  -10   -3   18     -0.76      0.00
   -9   -3   18     -0.94      0.00
   -8   -3   18      2.72      0.00
   -7   -3   18     -1.49      0.00
   -6   -3   18      0.61      0.00
   -5   -3   18     -1.24      0.00
   -4   -3   18      0.65      0.00
   -3   -3   18      1.11      0.00
   -2   -3   18     -2.20      0.00
   -1   -3   18      0.27      0.00
    0   -3   18      0.77      0.00
    1   -3   18      0.04      0.00
    2   -3   18     -1.62      0.00
    3   -3   18      0.82      0.00
    4   -3   18      0.50      0.00
    5   -3   18     -1.36      0.00
    6   -3   18      1.60      0.00
    7   -3   18     -0.52      0.00
    8   -3   18     -1.29      0.00
    9   -3   18      2.72      0.00
   10   -3   18     -2.27      0.00
   11   -3   18      0.65      0.00
  -12   -2   18     -0.42      0.00
  -11   -2   18      0.02      0.00
  -10   -2   18      0.23      0.00
   -9   -2   18     -1.10      0.00
   -8   -2   18      2.38      0.00
   -7   -2   18     -1.29      0.00
   -6   -2   18     -0.75      0.00
   -5   -2   18      0.61      0.00
   -4   -2   18     -0.10      0.00
   -3   -2   18      0.50      0.00
   -2   -2   18     -1.68      0.00
   -1   -2   18      0.46      0.00
    0   -2   18      0.84      0.00
    1   -2   18     -0.74      0.00
    2   -2   18     -0.54      0.00
    3   -2   18      0.50      0.00
    4   -2   18      0.70      0.00
    5   -2   18     -1.17      0.00
    6   -2   18     -0.35      0.00
    7   -2   18      1.51      0.00
    8   -2   18     -1.69      0.00
    9   -2   18      2.30      0.00
   10   -2   18     -2.08      0.00
  -12   -1   18     -0.27      0.00
  -11   -1   18     -1.91      0.00
  -10   -1   18      2.11      0.00
   -9   -1   18     -1.16      0.00
   -8   -1   18      0.71      0.00
   -7   -1   18     -0.33      0.00
   -6   -1   18     -0.77      0.00
   -5   -1   18      1.60      0.00
   -4   -1   18     -2.48      0.00
   -3   -1   18      1.95      0.00
   -2   -1   18     -1.32      0.00
   -1   -1   18      0.42      0.00
    0   -1   18      0.15      0.00
    1   -1   18     -1.20      0.00
    2   -1   18      2.91      0.00
    3   -1   18     -3.66      0.00
    4   -1   18      1.79      0.00
    5   -1   18      0.43      0.00
    6   -1   18     -1.48      0.00
    7   -1   18     -0.23      0.00
    8   -1   18      1.95      0.00
    9   -1   18     -0.15      0.00
   10   -1   18     -1.25      0.00
  -12    0   18      2.68      0.00
  -11    0   18     -3.18      0.00
  -10    0   18      0.35      0.00
   -9    0   18      2.11      0.00
   -8    0   18     -2.17      0.00
   -7    0   18      0.74      0.00
   -6    0   18      0.93      0.00
   -5    0   18     -1.84      0.00
   -4    0   18      0.65      0.00
   -3    0   18     -0.70      0.00
   -2    0   18      1.95      0.00
   -1    0   18     -2.13      0.00
    0    0   18      0.51      0.00
    1    0   18      1.05      0.00
    2    0   18     -0.68      0.00
    3    0   18     -0.97      0.00
    4    0   18      0.36      0.00
    5    0   18      0.92      0.00
    6    0   18     -1.27      0.00
    7    0   18     -0.32      0.00
    8    0   18      1.46      0.00
    9    0   18      1.04      0.00
   10    0   18     -2.04      0.00
  -13    1   18     -0.21      0.00
  -12    1   18      0.60      0.00
  -11    1   18     -2.40      0.00
  -10    1   18      0.77      0.00
   -9    1   18      0.80      0.00
   -8    1   18     -0.69      0.00
   -7    1   18      0.85      0.00
   -6    1   18     -0.31      0.00
   -5    1   18     -1.05      0.00
   -4    1   18      0.12      0.00
   -3    1   18      1.41      0.00
   -2    1   18     -1.66      0.00
   -1    1   18      1.61      0.00
    0    1   18     -1.38      0.00
    1    1   18      0.97      0.00
    2    1   18     -1.51      0.00
    3    1   18      1.06      0.00
    4    1   18     -0.45      0.00
    5    1   18     -0.31      0.00
    6    1   18      0.43      0.00
    7    1   18     -0.73      0.00
    8    1   18      1.89      0.00
    9    1   18     -1.05      0.00
   10    1   18      0.69      0.00
  -13    2   18      0.29      0.00
  -12    2   18     -3.79      0.00
  -11    2   18      2.87      0.00
  -10    2   18     -2.35      0.00
   -9    2   18      1.45      0.00
   -8    2   18      0.70      0.00
   -7    2   18     -0.35      0.00
   -6    2   18     -1.26      0.00
   -5    2   18      1.23      0.00
   -4    2   18     -0.02      0.00
   -3    2   18     -1.66      0.00
   -2    2   18      2.98      0.00
   -1    2   18     -2.54      0.00
    0    2   18      1.39      0.00
    1    2   18     -1.17      0.00
    2    2   18     -0.75      0.00
    3    2   18      1.71      0.00
    4    2   18     -0.25      0.00
    5    2   18     -1.75      0.00
    6    2   18      1.45      0.00
    7    2   18      0.44      0.00
    8    2   18     -1.08      0.00
    9    2   18      1.92      0.00
  -13    3   18      2.00      0.00
  -12    3   18     -4.14      0.00
  -11    3   18      0.87      0.00
  -10    3   18      1.76      0.00
   -9    3   18     -0.93      0.00
   -8    3   18      0.50      0.00
   -7    3   18     -0.18      0.00
   -6    3   18     -0.27      0.00
   -5    3   18      0.91      0.00
   -4    3   18     -0.90      0.00
   -3    3   18      0.63      0.00
   -2    3   18     -1.37      0.00
   -1    3   18      2.05      0.00
    0    3   18     -2.16      0.00
    1    3   18      1.31      0.00
    2    3   18     -2.74      0.00
    3    3   18      3.26      0.00
    4    3   18     -0.21      0.00
    5    3   18     -2.56      0.00
    6    3   18      1.87      0.00
    7    3   18     -0.22      0.00
    8    3   18      0.82      0.00
    9    3   18     -0.50      0.00
  -13    4   18      0.16      0.00
  -12    4   18     -3.60      0.00
  -11    4   18      3.32      0.00
  -10    4   18     -0.62      0.00
   -9    4   18      0.24      0.00
   -8    4   18      0.55      0.00
   -7    4   18     -2.26      0.00
   -6    4   18      2.95      0.00
   -5    4   18     -0.19      0.00
   -4    4   18     -2.42      0.00
   -3    4   18      2.61      0.00
   -2    4   18     -3.57      0.00
   -1    4   18      3.25      0.00
    0    4   18     -1.38      0.00
    1    4   18     -0.65      0.00
    2    4   18     -0.26      0.00
    3    4   18      1.51      0.00
    4    4   18      0.50      0.00
    5    4   18     -2.54      0.00
    6    4   18      1.41      0.00
    7    4   18      0.42      0.00
    8    4   18      0.56      0.00
    9    4   18     -0.68      0.00
  -13    5   18     -3.70      0.00
  -12    5   18      1.62      0.00
  -11    5   18      0.36      0.00
  -10    5   18      0.42      0.00
   -9    5   18      0.48      0.00
   -8    5   18     -1.36      0.00
   -7    5   18      0.89      0.00
   -6    5   18     -0.35      0.00
   -5    5   18      2.46      0.00
   -4    5   18     -3.79      0.00
   -3    5   18      1.12      0.00
   -2    5   18     -0.63      0.00
   -1    5   18      1.23      0.00
    0    5   18     -1.01      0.00
    1    5   18      0.06      0.00
    2    5   18      0.60      0.00
    3    5   18     -0.76      0.00
    4    5   18      1.34      0.00
    5    5   18     -1.60      0.00
    6    5   18      0.67      0.00
    7    5   18      0.70      0.00
    8    5   18      0.20      0.00
  -12    6   18     -0.23      0.00
  -11    6   18      2.12      0.00
  -10    6   18     -1.25      0.00
   -9    6   18      1.33      0.00
   -8    6   18     -1.01      0.00
   -7    6   18     -0.24      0.00
   -6    6   18      0.93      0.00
   -5    6   18      0.10      0.00
   -4    6   18     -1.86      0.00
   -3    6   18      0.70      0.00
   -2    6   18     -0.56      0.00
   -1    6   18      0.23      0.00
    0    6   18      1.31      0.00
    1    6   18     -1.59      0.00
    2    6   18      1.11      0.00
    3    6   18     -0.79      0.00
    4    6   18      0.04      0.00
    5    6   18      0.94      0.00
    6    6   18     -1.16      0.00
    7    6   18      1.62      0.00
  -12    7   18      0.63      0.00
  -11    7   18      0.32      0.00
  -10    7   18     -0.22      0.00
   -9    7   18      1.43      0.00
   -8    7   18     -0.83      0.00
   -7    7   18     -1.68      0.00
   -6    7   18      2.46      0.00
   -5    7   18     -2.59      0.00
   -4    7   18      1.58      0.00
   -3    7   18     -1.43      0.00
   -2    7   18      0.28      0.00
   -1    7   18      1.10      0.00
    0    7   18     -0.23      0.00
    1    7   18     -1.13      0.00
    2    7   18      2.29      0.00
    3    7   18     -2.80      0.00
    4    7   18      0.84      0.00
    5    7   18      2.23      0.00
    6    7   18     -2.56      0.00
    7    7   18      2.22      0.00
  -12    8   18     -1.20      0.00
  -11    8   18      0.10      0.00
  -10    8   18      0.78      0.00
   -9    8   18      0.80      0.00
   -8    8   18     -1.77      0.00
   -7    8   18      0.52      0.00
   -6    8   18     -0.73      0.00
   -5    8   18     -0.39      0.00
   -4    8   18      1.01      0.00
   -3    8   18     -0.45      0.00
   -2    8   18     -0.31      0.00
   -1    8   18      1.55      0.00
    0    8   18     -1.81      0.00
    1    8   18      1.18      0.00
    2    8   18     -0.24      0.00
    3    8   18     -0.76      0.00
    4    8   18      0.58      0.00
    5    8   18      0.88      0.00
    6    8   18     -0.10      0.00
  -11    9   18     -1.47      0.00
  -10    9   18      1.60      0.00
   -9    9   18     -0.34      0.00
   -8    9   18     -1.35      0.00
   -7    9   18      0.72      0.00
   -6    9   18     -0.75      0.00
   -5    9   18     -0.54      0.00
   -4    9   18      1.45      0.00
   -3    9   18     -0.09      0.00
   -2    9   18      0.21      0.00
   -1    9   18     -1.10      0.00
    0    9   18      0.82      0.00
    1    9   18     -0.06      0.00
    2    9   18     -0.09      0.00
    3    9   18     -0.67      0.00
    4    9   18      1.36      0.00
    5    9   18      0.33      0.00
  -11   10   18     -0.98      0.00
  -10   10   18      1.02      0.00
   -9   10   18     -0.95      0.00
   -8   10   18      0.33      0.00
   -7   10   18     -1.82      0.00
   -6   10   18      1.78      0.00
   -5   10   18      0.15      0.00
   -4   10   18     -1.12      0.00
   -3   10   18      1.38      0.00
   -2   10   18      0.69      0.00
   -1   10   18     -2.76      0.00
    0   10   18      1.96      0.00
    1   10   18     -0.04      0.00
    2   10   18     -0.89      0.00
    3   10   18      0.90      0.00
    4   10   18      0.44      0.00
  -10   11   18      1.06      0.00
   -9   11   18      0.33      0.00
   -8   11   18     -2.57      0.00
   -7   11   18      2.01      0.00
   -6   11   18     -0.30      0.00
   -5   11   18      0.98      0.00
   -4   11   18     -0.94      0.00
   -3   11   18      0.52      0.00
   -2   11   18     -0.73      0.00
   -1   11   18      1.17      0.00
    0   11   18     -1.01      0.00
    1   11   18     -0.22      0.00
    2   11   18      1.08      0.00
    3   11   18      0.49      0.00
   -9   12   18     -1.46      0.00
   -8   12   18      1.96      0.00
   -7   12   18     -2.20      0.00
   -6   12   18      2.61      0.00
   -5   12   18     -1.09      0.00
   -4   12   18      1.19      0.00
   -3   12   18     -2.62      0.00
   -2   12   18      2.05      0.00
   -1   12   18      0.25      0.00
    0   12   18     -1.43      0.00
    1   12   18      0.64      0.00
   -7   13   18      1.44      0.00
   -6   13   18     -1.51      0.00
   -5   13   18      1.25      0.00
   -4   13   18      0.25      0.00
   -3   13   18     -1.74      0.00
   -2   13   18      1.56      0.00
   -1   13   18     -0.22      0.00
    0  -14   19      0.89      0.00
    1  -14   19     -0.08      0.00
    2  -14   19     -0.01      0.00
    3  -14   19     -0.83      0.00
    4  -14   19     -0.82      0.00
   -3  -13   19      0.53      0.00
   -2  -13   19     -0.65      0.00
   -1  -13   19      0.33      0.00
    0  -13   19      0.30      0.00
    1  -13   19      0.21      0.00
    2  -13   19     -0.23      0.00
    3  -13   19     -1.42      0.00
    4  -13   19     -0.17      0.00
    5  -13   19      2.41      0.00
    6  -13   19     -1.48      0.00
   -4  -12   19     -0.27      0.00
   -3  -12   19     -0.75      0.00
   -2  -12   19      0.18      0.00
   -1  -12   19      1.59      0.00
    0  -12   19     -1.53      0.00
    1  -12   19      0.60      0.00
    2  -12   19     -0.25      0.00
    3  -12   19     -1.70      0.00
    4  -12   19      2.55      0.00
    5  -12   19     -1.43      0.00
    6  -12   19      1.44      0.00
    7  -12   19      0.30      0.00
   -6  -11   19     -0.40      0.00
   -5  -11   19      2.12      0.00
   -4  -11   19     -1.66      0.00
   -3  -11   19     -0.47      0.00
   -2  -11   19      1.56      0.00
   -1  -11   19      0.34      0.00
    0  -11   19     -1.75      0.00
    1  -11   19      1.66      0.00
    2  -11   19     -2.06      0.00
    3  -11   19      0.99      0.00
    4  -11   19      0.75      0.00
    5  -11   19      0.63      0.00
    6  -11   19     -1.84      0.00
    7  -11   19      3.13      0.00
    8  -11   19     -3.12      0.00
   -7  -10   19      1.56      0.00
   -6  -10   19     -1.11      0.00
   -5  -10   19      1.19      0.00
   -4  -10   19     -1.44      0.00
   -3  -10   19      0.73      0.00
   -2  -10   19      0.73      0.00
   -1  -10   19     -0.17      0.00
    0  -10   19     -0.79      0.00
    1  -10   19      0.78      0.00
    2  -10   19     -1.09      0.00
    3  -10   19      0.93      0.00
    4  -10   19      0.54      0.00
    5  -10   19      0.81      0.00
    6  -10   19     -1.58      0.00
    7  -10   19      0.74      0.00
    8  -10   19     -0.33      0.00
    9  -10   19     -1.47      0.00
   -8   -9   19     -0.87      0.00
   -7   -9   19      1.55      0.00
   -6   -9   19     -1.14      0.00
   -5   -9   19      1.19      0.00
   -4   -9   19     -2.24      0.00
   -3   -9   19      2.98      0.00
   -2   -9   19     -1.71      0.00
   -1   -9   19      1.14      0.00
    0   -9   19     -0.90      0.00
    1   -9   19     -0.01      0.00
    2   -9   19      0.82      0.00
    3   -9   19     -0.66      0.00
    4   -9   19      1.64      0.00
    5   -9   19     -0.93      0.00
    6   -9   19      0.35      0.00
    7   -9   19     -1.50      0.00
    8   -9   19     -0.19      0.00
    9   -9   19      0.49      0.00
   -8   -8   19      0.79      0.00
   -7   -8   19     -0.44      0.00
   -6   -8   19      1.08      0.00
   -5   -8   19     -1.27      0.00
   -4   -8   19      1.12      0.00
   -3   -8   19     -0.71      0.00
   -2   -8   19      1.46      0.00
   -1   -8   19     -1.20      0.00
    0   -8   19      0.78      0.00
    1   -8   19     -1.31      0.00
    2   -8   19      1.85      0.00
    3   -8   19     -0.01      0.00
    4   -8   19     -0.81      0.00
    5   -8   19      1.09      0.00
    6   -8   19     -1.18      0.00
    7   -8   19     -1.49      0.00
    8   -8   19      0.22      0.00
    9   -8   19      1.87      0.00
   10   -8   19     -0.74      0.00
   -9   -7   19     -0.45      0.00
   -8   -7   19      0.01      0.00
   -7   -7   19     -0.34      0.00
   -6   -7   19      1.63      0.00
   -5   -7   19     -1.36      0.00
   -4   -7   19      1.19      0.00
   -3   -7   19     -0.18      0.00
   -2   -7   19     -0.92      0.00
   -1   -7   19      2.37      0.00
    0   -7   19     -2.40      0.00
    1   -7   19      0.70      0.00
    2   -7   19      1.00      0.00
    3   -7   19      0.16      0.00
    4   -7   19     -0.65      0.00
    5   -7   19     -0.25      0.00
    6   -7   19     -0.53      0.00
    7   -7   19     -2.12      0.00
    8   -7   19      2.78      0.00
    9   -7   19      0.15      0.00
   10   -7   19     -0.08      0.00
  -10   -6   19      0.61      0.00
   -9   -6   19      0.51      0.00
   -8   -6   19     -1.45      0.00
   -7   -6   19      0.58      0.00
   -6   -6   19      1.37      0.00
   -5   -6   19     -0.48      0.00
   -4   -6   19      0.70      0.00
   -3   -6   19     -1.48      0.00
   -2   -6   19      1.89      0.00
   -1   -6   19     -2.40      0.00
    0   -6   19      3.97      0.00
    1   -6   19     -5.48      0.00
    2   -6   19      5.57      0.00
    3   -6   19     -2.75      0.00
    4   -6   19      0.16      0.00
    5   -6   19     -0.02      0.00
    6   -6   19     -2.49      0.00
    7   -6   19      1.64      0.00
    8   -6   19      0.81      0.00
    9   -6   19      0.93      0.00
   10   -6   19     -0.96      0.00
  -10   -5   19      1.01      0.00
   -9   -5   19     -0.33      0.00
   -8   -5   19     -0.50      0.00
   -7   -5   19      0.47      0.00
   -6   -5   19      0.59      0.00
   -5   -5   19      1.20      0.00
   -4   -5   19     -1.06      0.00
   -3   -5   19     -0.48      0.00
   -2   -5   19     -0.19      0.00
   -1   -5   19      2.14      0.00
    0   -5   19     -3.04      0.00
    1   -5   19      2.57      0.00
    2   -5   19     -1.62      0.00
    3   -5   19      2.30      0.00
    4   -5   19     -3.45      0.00
    5   -5   19      0.39      0.00
    6   -5   19      1.65      0.00
    7   -5   19     -2.70      0.00
    8   -5   19      2.84      0.00
    9   -5   19      1.52      0.00
   10   -5   19     -4.65      0.00
  -11   -4   19      1.59      0.00
  -10   -4   19     -1.30      0.00
   -9   -4   19      0.48      0.00
   -8   -4   19     -0.50      0.00
   -7   -4   19      1.50      0.00
   -6   -4   19     -0.55      0.00
   -5   -4   19      0.88      0.00
   -4   -4   19     -0.65      0.00
   -3   -4   19     -0.74      0.00
   -2   -4   19      1.07      0.00
   -1   -4   19     -1.03      0.00
    0   -4   19      0.49      0.00
    1   -4   19      0.21      0.00
    2   -4   19      0.35      0.00
    3   -4   19     -1.23      0.00
    4   -4   19      0.17      0.00
    5   -4   19     -1.04      0.00
    6   -4   19      1.98      0.00
    7   -4   19     -1.53      0.00
    8   -4   19      1.32      0.00
    9   -4   19     -0.89      0.00
   10   -4   19      1.03      0.00
  -11   -3   19      0.66      0.00
  -10   -3   19     -0.40      0.00
   -9   -3   19     -0.67      0.00
   -8   -3   19      0.39      0.00
   -7   -3   19      1.95      0.00
   -6   -3   19     -1.51      0.00
   -5   -3   19      0.15      0.00
   -4   -3   19     -0.59      0.00
   -3   -3   19      2.01      0.00
   -2   -3   19     -2.60      0.00
   -1   -3   19      0.42      0.00
    0   -3   19      0.88      0.00
    1   -3   19      0.53      0.00
    2   -3   19     -1.62      0.00
    3   -3   19      0.29      0.00
    4   -3   19      0.49      0.00
    5   -3   19     -0.91      0.00
    6   -3   19      0.86      0.00
    7   -3   19     -0.20      0.00
    8   -3   19     -0.90      0.00
    9   -3   19      1.69      0.00
   10   -3   19     -1.66      0.00
  -11   -2   19      1.63      0.00
  -10   -2   19     -1.62      0.00
   -9   -2   19     -0.11      0.00
   -8   -2   19      1.67      0.00
   -7   -2   19     -0.43      0.00
   -6   -2   19     -0.39      0.00
   -5   -2   19     -0.94      0.00
   -4   -2   19      1.46      0.00
   -3   -2   19     -0.30      0.00
   -2   -2   19     -0.73      0.00
   -1   -2   19     -0.98      0.00
    0   -2   19      2.07      0.00
    1   -2   19     -0.41      0.00
    2   -2   19     -1.31      0.00
    3   -2   19      0.47      0.00
    4   -2   19      1.18      0.00
    5   -2   19     -1.46      0.00
    6   -2   19     -0.62      0.00
    7   -2   19      2.01      0.00
    8   -2   19     -2.61      0.00
    9   -2   19      2.64      0.00
   10   -2   19     -1.50      0.00
  -12   -1   19     -0.65      0.00
  -11   -1   19      0.14      0.00
  -10   -1   19      0.05      0.00
   -9   -1   19     -0.69      0.00
   -8   -1   19      1.93      0.00
   -7   -1   19     -1.83      0.00
   -6   -1   19      0.14      0.00
   -5   -1   19      0.81      0.00
   -4   -1   19     -1.64      0.00
   -3   -1   19      2.28      0.00
   -2   -1   19     -1.77      0.00
   -1   -1   19     -0.46      0.00
    0   -1   19      1.63      0.00
    1   -1   19     -1.01      0.00
    2   -1   19      0.96      0.00
    3   -1   19     -1.76      0.00
    4   -1   19      1.87      0.00
    5   -1   19     -1.41      0.00
    6   -1   19     -0.25      0.00
    7   -1   19     -0.41      0.00
    8   -1   19      1.39      0.00
    9   -1   19     -0.05      0.00
   10   -1   19     -0.53      0.00
  -12    0   19      2.86      0.00
  -11    0   19     -2.88      0.00
  -10    0   19     -0.11      0.00
   -9    0   19      2.59      0.00
   -8    0   19     -2.11      0.00
   -7    0   19     -0.16      0.00
   -6    0   19      0.88      0.00
   -5    0   19     -0.40      0.00
   -4    0   19     -0.66      0.00
   -3    0   19      0.58      0.00
   -2    0   19      1.42      0.00
   -1    0   19     -3.39      0.00
    0    0   19      3.32      0.00
    1    0   19     -2.08      0.00
    2    0   19      1.76      0.00
    3    0   19     -1.55      0.00
    4    0   19     -0.16      0.00
    5    0   19      0.91      0.00
    6    0   19     -1.67      0.00
    7    0   19      0.12      0.00
    8    0   19      1.70      0.00
    9    0   19      0.18      0.00
   10    0   19     -1.69      0.00
  -12    1   19      2.37      0.00
  -11    1   19     -3.93      0.00
  -10    1   19      1.90      0.00
   -9    1   19      0.06      0.00
   -8    1   19     -0.39      0.00
   -7    1   19     -0.29      0.00
   -6    1   19      1.06      0.00
   -5    1   19     -2.25      0.00
   -4    1   19      2.67      0.00
   -3    1   19     -2.02      0.00
   -2    1   19      1.55      0.00
   -1    1   19     -0.19      0.00
    0    1   19     -1.17      0.00
    1    1   19      0.84      0.00
    2    1   19     -0.12      0.00
    3    1   19      0.02      0.00
    4    1   19     -0.84      0.00
    5    1   19     -0.37      0.00
    6    1   19      0.66      0.00
    7    1   19     -0.53      0.00
    8    1   19      1.09      0.00
    9    1   19     -0.07      0.00
  -12    2   19     -0.71      0.00
  -11    2   19      0.99      0.00
  -10    2   19     -2.35      0.00
   -9    2   19      1.72      0.00
   -8    2   19      0.34      0.00
   -7    2   19     -0.81      0.00
   -6    2   19      0.03      0.00
   -5    2   19      0.22      0.00
   -4    2   19      0.35      0.00
   -3    2   19     -0.79      0.00
   -2    2   19      1.58      0.00
   -1    2   19     -0.80      0.00
    0    2   19     -0.65      0.00
    1    2   19     -0.33      0.00
    2    2   19      1.12      0.00
    3    2   19     -1.25      0.00
    4    2   19      0.55      0.00
    5    2   19     -0.79      0.00
    6    2   19      0.03      0.00
    7    2   19      0.84      0.00
    8    2   19     -0.35      0.00
    9    2   19      0.76      0.00
  -12    3   19     -4.86      0.00
  -11    3   19      3.04      0.00
  -10    3   19     -0.88      0.00
   -9    3   19      0.05      0.00
   -8    3   19     -0.23      0.00
   -7    3   19      1.61      0.00
   -6    3   19     -2.30      0.00
   -5    3   19      2.00      0.00
   -4    3   19     -0.10      0.00
   -3    3   19     -1.24      0.00
   -2    3   19      1.31      0.00
   -1    3   19     -0.18      0.00
    0    3   19     -1.70      0.00
    1    3   19      1.76      0.00
    2    3   19     -2.37      0.00
    3    3   19      1.70      0.00
    4    3   19      0.64      0.00
    5    3   19     -2.31      0.00
    6    3   19      1.06      0.00
    7    3   19      0.14      0.00
    8    3   19      0.38      0.00
  -12    4   19     -4.95      0.00
  -11    4   19      3.86      0.00
  -10    4   19     -0.62      0.00
   -9    4   19     -0.33      0.00
   -8    4   19      0.49      0.00
   -7    4   19     -1.24      0.00
   -6    4   19      2.48      0.00
   -5    4   19     -1.01      0.00
   -4    4   19     -0.26      0.00
   -3    4   19      0.64      0.00
   -2    4   19     -2.29      0.00
   -1    4   19      2.94      0.00
    0    4   19     -2.39      0.00
    1    4   19      0.50      0.00
    2    4   19     -0.82      0.00
    3    4   19      1.36      0.00
    4    4   19      0.31      0.00
    5    4   19     -1.89      0.00
    6    4   19      0.87      0.00
    7    4   19     -0.30      0.00
    8    4   19      1.53      0.00
  -12    5   19     -1.20      0.00
  -11    5   19      1.74      0.00
  -10    5   19      0.29      0.00
   -9    5   19     -0.11      0.00
   -8    5   19     -0.54      0.00
   -7    5   19      0.23      0.00
   -6    5   19      0.37      0.00
   -5    5   19      2.37      0.00
   -4    5   19     -3.94      0.00
   -3    5   19      1.45      0.00
   -2    5   19     -0.96      0.00
   -1    5   19      1.51      0.00
    0    5   19     -1.86      0.00
    1    5   19      0.71      0.00
    2    5   19      0.34      0.00
    3    5   19     -0.91      0.00
    4    5   19      1.74      0.00
    5    5   19     -2.22      0.00
    6    5   19      1.04      0.00
    7    5   19     -0.19      0.00
  -12    6   19      0.05      0.00
  -11    6   19      1.38      0.00
  -10    6   19     -0.67      0.00
   -9    6   19      0.85      0.00
   -8    6   19     -0.05      0.00
   -7    6   19     -0.98      0.00
   -6    6   19      1.04      0.00
   -5    6   19      1.06      0.00
   -4    6   19     -2.32      0.00
   -3    6   19     -0.23      0.00
   -2    6   19      0.41      0.00
   -1    6   19      0.47      0.00
    0    6   19     -0.40      0.00
    1    6   19     -0.34      0.00
    2    6   19      0.79      0.00
    3    6   19     -0.56      0.00
    4    6   19      0.02      0.00
    5    6   19     -0.09      0.00
    6    6   19     -0.34      0.00
    7    6   19      1.22      0.00
  -12    7   19      0.51      0.00
  -11    7   19      0.58      0.00
  -10    7   19     -1.23      0.00
   -9    7   19      3.12      0.00
   -8    7   19     -2.42      0.00
   -7    7   19     -0.06      0.00
   -6    7   19      1.33      0.00
   -5    7   19     -1.54      0.00
   -4    7   19      0.61      0.00
   -3    7   19     -1.43      0.00
   -2    7   19      1.30      0.00
   -1    7   19     -0.66      0.00
    0    7   19      1.12      0.00
    1    7   19     -2.03      0.00
    2    7   19      2.53      0.00
    3    7   19     -1.92      0.00
    4    7   19     -0.10      0.00
    5    7   19      1.30      0.00
    6    7   19     -1.21      0.00
  -11    8   19      0.85      0.00
  -10    8   19      0.11      0.00
   -9    8   19      1.28      0.00
   -8    8   19     -1.55      0.00
   -7    8   19     -0.28      0.00
   -6    8   19      0.65      0.00
   -5    8   19     -1.23      0.00
   -4    8   19     -0.06      0.00
   -3    8   19      1.40      0.00
   -2    8   19     -1.50      0.00
   -1    8   19      1.68      0.00
    0    8   19     -1.90      0.00
    1    8   19      1.22      0.00
    2    8   19     -0.15      0.00
    3    8   19      0.10      0.00
    4    8   19     -1.92      0.00
    5    8   19      2.96      0.00
  -11    9   19     -0.77      0.00
  -10    9   19      1.29      0.00
   -9    9   19      0.35      0.00
   -8    9   19     -2.28      0.00
   -7    9   19      1.63      0.00
   -6    9   19     -1.72      0.00
   -5    9   19      0.09      0.00
   -4    9   19      1.01      0.00
   -3    9   19     -0.09      0.00
   -2    9   19      0.36      0.00
   -1    9   19     -0.70      0.00
    0    9   19     -0.23      0.00
    1    9   19      0.50      0.00
    2    9   19      0.29      0.00
    3    9   19     -1.21      0.00
    4    9   19      0.82      0.00
  -10   10   19      1.50      0.00
   -9   10   19     -0.85      0.00
   -8   10   19     -0.58      0.00
   -7   10   19     -1.33      0.00
   -6   10   19      1.38      0.00
   -5   10   19      0.32      0.00
   -4   10   19     -1.13      0.00
   -3   10   19      1.27      0.00
   -2   10   19      1.27      0.00
   -1   10   19     -3.89      0.00
    0   10   19      3.12      0.00
    1   10   19     -0.86      0.00
    2   10   19     -0.70      0.00
    3   10   19      0.64      0.00
   -9   11   19     -0.61      0.00
   -8   11   19     -2.18      0.00
   -7   11   19      1.30      0.00
   -6   11   19     -0.54      0.00
   -5   11   19      2.42      0.00
   -4   11   19     -2.12      0.00
   -3   11   19      0.65      0.00
   -2   11   19     -0.09      0.00
   -1   11   19      0.73      0.00
    0   11   19     -1.62      0.00
    1   11   19      1.15      0.00
    2   11   19     -0.43      0.00
   -8   12   19      0.16      0.00
   -7   12   19     -1.97      0.00
   -6   12   19      4.15      0.00
   -5   12   19     -2.62      0.00
   -4   12   19      2.09      0.00
   -3   12   19     -2.85      0.00
   -2   12   19      1.47      0.00
   -1   12   19      1.44      0.00
    0   12   19     -2.53      0.00
   -2  -13   20     -0.68      0.00
   -1  -13   20     -0.05      0.00
    0  -13   20     -0.02      0.00
    1  -13   20      0.78      0.00
    2  -13   20     -0.34      0.00
    3  -13   20     -0.25      0.00
    4  -13   20     -1.37      0.00
    5  -13   20      1.84      0.00
   -4  -12   20      0.21      0.00
   -3  -12   20     -0.49      0.00
   -2  -12   20     -0.57      0.00
   -1  -12   20      1.94      0.00
    0  -12   20     -1.83      0.00
    1  -12   20      0.27      0.00
    2  -12   20      1.51      0.00
    3  -12   20     -2.52      0.00
    4  -12   20      1.32      0.00
    5  -12   20     -0.84      0.00
    6  -12   20      1.65      0.00
   -5  -11   20      2.36      0.00
   -4  -11   20     -0.92      0.00
   -3  -11   20     -1.00      0.00
   -2  -11   20      0.79      0.00
   -1  -11   20      1.36      0.00
    0  -11   20     -2.54      0.00
    1  -11   20      2.05      0.00
    2  -11   20     -1.41      0.00
    3  -11   20      0.19      0.00
    4  -11   20      0.10      0.00
    5  -11   20      1.36      0.00
    6  -11   20     -1.98      0.00
    7  -11   20      3.34      0.00
   -6  -10   20     -1.63      0.00
   -5  -10   20      2.03      0.00
   -4  -10   20     -0.63      0.00
   -3  -10   20     -1.15      0.00
   -2  -10   20      2.08      0.00
   -1  -10   20     -1.70      0.00
    0  -10   20      0.95      0.00
    1  -10   20      0.04      0.00
    2  -10   20     -1.30      0.00
    3  -10   20      0.89      0.00
    4  -10   20      0.16      0.00
    5  -10   20      1.87      0.00
    6  -10   20     -2.74      0.00
    7  -10   20      2.48      0.00
    8  -10   20     -1.30      0.00
   -7   -9   20      1.37      0.00
   -6   -9   20     -1.48      0.00
   -5   -9   20      2.10      0.00
   -4   -9   20     -2.45      0.00
   -3   -9   20      2.48      0.00
   -2   -9   20     -1.98      0.00
   -1   -9   20      1.99      0.00
    0   -9   20     -1.98      0.00
    1   -9   20      1.59      0.00
    2   -9   20     -0.96      0.00
    3   -9   20     -0.12      0.00
    4   -9   20      1.56      0.00
    5   -9   20      0.18      0.00
    6   -9   20     -0.70      0.00
    7   -9   20     -0.03      0.00
    8   -9   20     -1.06      0.00
    9   -9   20      0.22      0.00
   -8   -8   20     -0.45      0.00
   -7   -8   20      0.05      0.00
   -6   -8   20      0.78      0.00
   -5   -8   20     -0.39      0.00
   -4   -8   20      0.37      0.00
   -3   -8   20     -1.62      0.00
   -2   -8   20      3.58      0.00
   -1   -8   20     -3.25      0.00
    0   -8   20      1.73      0.00
    1   -8   20     -0.92      0.00
    2   -8   20      0.49      0.00
    3   -8   20      0.80      0.00
    4   -8   20     -0.54      0.00
    5   -8   20      0.88      0.00
    6   -8   20      0.21      0.00
    7   -8   20     -2.49      0.00
    8   -8   20      0.08      0.00
    9   -8   20      1.40      0.00
   -9   -7   20     -0.38      0.00
   -8   -7   20     -0.51      0.00
   -7   -7   20     -0.35      0.00
   -6   -7   20      2.26      0.00
   -5   -7   20     -1.91      0.00
   -4   -7   20      0.96      0.00
   -3   -7   20     -0.27      0.00
   -2   -7   20     -0.08      0.00
   -1   -7   20      2.03      0.00
    0   -7   20     -3.04      0.00
    1   -7   20      1.42      0.00
    2   -7   20      0.09      0.00
    3   -7   20      1.40      0.00
    4   -7   20     -1.29      0.00
    5   -7   20      0.42      0.00
    6   -7   20      0.79      0.00
    7   -7   20     -4.61      0.00
    8   -7   20      3.92      0.00
    9   -7   20     -1.02      0.00
   -9   -6   20     -0.43      0.00
   -8   -6   20     -0.95      0.00
   -7   -6   20      0.53      0.00
   -6   -6   20      1.53      0.00
   -5   -6   20     -1.45      0.00
   -4   -6   20      1.40      0.00
   -3   -6   20     -1.18      0.00
   -2   -6   20      1.17      0.00
   -1   -6   20     -1.14      0.00
    0   -6   20      2.40      0.00
    1   -6   20     -4.32      0.00
    2   -6   20      4.00      0.00
    3   -6   20     -0.37      0.00
    4   -6   20     -0.46      0.00
    5   -6   20     -0.11      0.00
    6   -6   20     -1.90      0.00
    7   -6   20      0.37      0.00
    8   -6   20      0.67      0.00
    9   -6   20      1.61      0.00
  -10   -5   20      1.39      0.00
   -9   -5   20     -1.65      0.00
   -8   -5   20      0.75      0.00
   -7   -5   20     -0.04      0.00
   -6   -5   20      0.05      0.00
   -5   -5   20      1.72      0.00
   -4   -5   20     -1.19      0.00
   -3   -5   20     -0.03      0.00
   -2   -5   20     -0.21      0.00
   -1   -5   20      0.88      0.00
    0   -5   20     -0.45      0.00
    1   -5   20     -0.69      0.00
    2   -5   20      0.91      0.00
    3   -5   20      1.37      0.00
    4   -5   20     -1.62      0.00
    5   -5   20     -0.72      0.00
    6   -5   20      0.39      0.00
    7   -5   20     -1.76      0.00
    8   -5   20      2.87      0.00
    9   -5   20      1.21      0.00
   10   -5   20     -3.97      0.00
  -10   -4   20     -0.74      0.00
   -9   -4   20      0.53      0.00
   -8   -4   20     -0.65      0.00
   -7   -4   20      0.78      0.00
   -6   -4   20      0.05      0.00
   -5   -4   20      1.08      0.00
   -4   -4   20     -0.31      0.00
   -3   -4   20     -1.50      0.00
   -2   -4   20      1.12      0.00
   -1   -4   20      0.13      0.00
    0   -4   20     -1.38      0.00
    1   -4   20      2.17      0.00
    2   -4   20     -1.08      0.00
    3   -4   20      0.20      0.00
    4   -4   20      0.62      0.00
    5   -4   20     -2.69      0.00
    6   -4   20      2.15      0.00
    7   -4   20     -0.84      0.00
    8   -4   20      0.17      0.00
    9   -4   20      1.65      0.00
   10   -4   20     -2.11      0.00
  -11   -3   20      0.19      0.00
  -10   -3   20      0.80      0.00
   -9   -3   20     -1.15      0.00
   -8   -3   20     -0.83      0.00
   -7   -3   20      3.39      0.00
   -6   -3   20     -2.25      0.00
   -5   -3   20      1.12      0.00
   -4   -3   20     -0.94      0.00
   -3   -3   20      1.36      0.00
   -2   -3   20     -2.34      0.00
   -1   -3   20      1.28      0.00
    0   -3   20      0.05      0.00
    1   -3   20      0.41      0.00
    2   -3   20      0.16      0.00
    3   -3   20     -1.24      0.00
    4   -3   20      1.00      0.00
    5   -3   20     -0.96      0.00
    6   -3   20      0.63      0.00
    7   -3   20     -0.38      0.00
    8   -3   20      0.16      0.00
    9   -3   20      0.26      0.00
  -11   -2   20      1.62      0.00
  -10   -2   20     -1.35      0.00
   -9   -2   20      0.09      0.00
   -8   -2   20     -0.08      0.00
   -7   -2   20      1.36      0.00
   -6   -2   20     -0.07      0.00
   -5   -2   20     -1.79      0.00
   -4   -2   20      1.57      0.00
   -3   -2   20     -0.51      0.00
   -2   -2   20      0.24      0.00
   -1   -2   20     -2.19      0.00
    0   -2   20      3.04      0.00
    1   -2   20     -0.83      0.00
    2   -2   20      0.02      0.00
    3   -2   20     -1.11      0.00
    4   -2   20      1.09      0.00
    5   -2   20      0.25      0.00
    6   -2   20     -1.87      0.00
    7   -2   20      1.86      0.00
    8   -2   20     -1.84      0.00
    9   -2   20      1.41      0.00
  -11   -1   20      2.31      0.00
  -10   -1   20     -2.30      0.00
   -9   -1   20      0.13      0.00
   -8   -1   20      2.34      0.00
   -7   -1   20     -2.68      0.00
   -6   -1   20      1.92      0.00
   -5   -1   20     -1.66      0.00
   -4   -1   20      0.58      0.00
   -3   -1   20      0.60      0.00
   -2   -1   20     -0.37      0.00
   -1   -1   20     -1.23      0.00
    0   -1   20      1.01      0.00
    1   -1   20      1.92      0.00
    2   -1   20     -2.34      0.00
    3   -1   20     -0.22      0.00
    4   -1   20      2.42      0.00
    5   -1   20     -2.86      0.00
    6   -1   20      1.31      0.00
    7   -1   20     -1.32      0.00
    8   -1   20      0.82      0.00
    9   -1   20      0.18      0.00
  -12    0   20      1.95      0.00
  -11    0   20     -0.76      0.00
  -10    0   20     -2.24      0.00
   -9    0   20      3.46      0.00
   -8    0   20     -1.49      0.00
   -7    0   20     -0.92      0.00
   -6    0   20      0.38      0.00
   -5    0   20      0.89      0.00
   -4    0   20     -2.00      0.00
   -3    0   20      2.27      0.00
   -2    0   20     -0.20      0.00
   -1    0   20     -2.71      0.00
    0    0   20      3.89      0.00
    1    0   20     -2.29      0.00
    2    0   20      1.07      0.00
    3    0   20     -0.63      0.00
    4    0   20      0.00      0.00
    5    0   20     -0.10      0.00
    6    0   20     -1.20      0.00
    7    0   20      0.51      0.00
    8    0   20      0.75      0.00
    9    0   20     -0.21      0.00
  -12    1   20      1.57      0.00
  -11    1   20     -2.42      0.00
  -10    1   20      0.76      0.00
   -9    1   20      0.39      0.00
   -8    1   20      0.18      0.00
   -7    1   20     -1.45      0.00
   -6    1   20      0.91      0.00
   -5    1   20     -1.19      0.00
   -4    1   20      2.82      0.00
   -3    1   20     -3.61      0.00
   -2    1   20      3.93      0.00
   -1    1   20     -2.61      0.00
    0    1   20      1.44      0.00
    1    1   20     -1.52      0.00
    2    1   20      1.72      0.00
    3    1   20     -0.79      0.00
    4    1   20     -0.36      0.00
    5    1   20     -1.43      0.00
    6    1   20      1.41      0.00
    7    1   20     -0.44      0.00
    8    1   20     -0.02      0.00
    9    1   20      0.83      0.00
  -12    2   20      1.64      0.00
  -11    2   20     -1.58      0.00
  -10    2   20     -0.34      0.00
   -9    2   20      0.84      0.00
   -8    2   20     -0.02      0.00
   -7    2   20     -1.20      0.00
   -6    2   20      1.15      0.00
   -5    2   20     -0.94      0.00
   -4    2   20      1.34      0.00
   -3    2   20     -0.68      0.00
   -2    2   20      0.62      0.00
   -1    2   20      0.75      0.00
    0    2   20     -1.78      0.00
    1    2   20     -0.12      0.00
    2    2   20      1.76      0.00
    3    2   20     -1.44      0.00
    4    2   20     -0.42      0.00
    5    2   20      0.38      0.00
    6    2   20     -1.01      0.00
    7    2   20      1.28      0.00
    8    2   20     -0.21      0.00
  -12    3   20     -2.88      0.00
  -11    3   20      2.58      0.00
  -10    3   20     -1.60      0.00
   -9    3   20      0.32      0.00
   -8    3   20     -0.51      0.00
   -7    3   20      1.49      0.00
   -6    3   20     -1.99      0.00
   -5    3   20      1.93      0.00
   -4    3   20     -0.23      0.00
   -3    3   20     -0.72      0.00
   -2    3   20      1.87      0.00
   -1    3   20     -1.60      0.00
    0    3   20     -0.09      0.00
    1    3   20     -0.23      0.00
    2    3   20      0.28      0.00
    3    3   20     -0.54      0.00
    4    3   20      0.76      0.00
    5    3   20     -0.79      0.00
    6    3   20     -0.96      0.00
    7    3   20      1.66      0.00
    8    3   20     -0.80      0.00
  -12    4   20     -4.03      0.00
  -11    4   20      3.25      0.00
  -10    4   20     -0.65      0.00
   -9    4   20     -0.55      0.00
   -8    4   20     -0.34      0.00
   -7    4   20      1.05      0.00
   -6    4   20      0.18      0.00
   -5    4   20     -0.53      0.00
   -4    4   20      1.67      0.00
   -3    4   20     -1.89      0.00
   -2    4   20      0.78      0.00
   -1    4   20      0.37      0.00
    0    4   20     -1.72      0.00
    1    4   20      0.84      0.00
    2    4   20     -0.56      0.00
    3    4   20      0.58      0.00
    4    4   20     -0.15      0.00
    5    4   20     -0.48      0.00
    6    4   20      0.08      0.00
    7    4   20     -0.84      0.00
  -12    5   20     -3.16      0.00
  -11    5   20      2.82      0.00
  -10    5   20     -0.50      0.00
   -9    5   20     -0.33      0.00
   -8    5   20      0.11      0.00
   -7    5   20      0.17      0.00
   -6    5   20      0.48      0.00
   -5    5   20      1.29      0.00
   -4    5   20     -1.88      0.00
   -3    5   20      0.60      0.00
   -2    5   20     -0.76      0.00
   -1    5   20      0.88      0.00
    0    5   20     -1.71      0.00
    1    5   20      1.31      0.00
    2    5   20     -0.34      0.00
    3    5   20     -0.58      0.00
    4    5   20      0.75      0.00
    5    5   20     -0.56      0.00
    6    5   20     -0.23      0.00
    7    5   20     -0.41      0.00
  -11    6   20      0.27      0.00
  -10    6   20      0.65      0.00
   -9    6   20     -0.81      0.00
   -8    6   20      1.97      0.00
   -7    6   20     -2.19      0.00
   -6    6   20      1.63      0.00
   -5    6   20      0.49      0.00
   -4    6   20     -0.85      0.00
   -3    6   20     -1.51      0.00
   -2    6   20      0.67      0.00
   -1    6   20      1.00      0.00
    0    6   20     -1.77      0.00
    1    6   20      0.95      0.00
    2    6   20      0.49      0.00
    3    6   20     -1.26      0.00
    4    6   20      0.73      0.00
    5    6   20     -0.49      0.00
    6    6   20     -0.18      0.00
  -11    7   20      0.21      0.00
  -10    7   20     -1.21      0.00
   -9    7   20      2.96      0.00
   -8    7   20     -1.77      0.00
   -7    7   20      0.26      0.00
   -6    7   20      0.06      0.00
   -5    7   20      0.38      0.00
   -4    7   20     -0.68      0.00
   -3    7   20     -1.62      0.00
   -2    7   20      2.02      0.00
   -1    7   20     -0.89      0.00
    0    7   20      0.45      0.00
    1    7   20     -1.02      0.00
    2    7   20      1.50      0.00
    3    7   20     -1.29      0.00
    4    7   20      0.27      0.00
    5    7   20     -0.30      0.00
  -11    8   20      1.08      0.00
  -10    8   20     -0.47      0.00
   -9    8   20      1.65      0.00
   -8    8   20     -1.25      0.00
   -7    8   20     -0.74      0.00
   -6    8   20      1.94      0.00
   -5    8   20     -2.40      0.00
   -4    8   20     -0.32      0.00
   -3    8   20      1.84      0.00
   -2    8   20     -1.14      0.00
   -1    8   20      0.72      0.00
    0    8   20     -0.86      0.00
    1    8   20      0.46      0.00
    2    8   20     -0.45      0.00
    3    8   20      1.40      0.00
    4    8   20     -3.15      0.00
  -10    9   20      0.68      0.00
   -9    9   20      0.35      0.00
   -8    9   20     -1.21      0.00
   -7    9   20      0.31      0.00
   -6    9   20     -0.88      0.00
   -5    9   20      0.57      0.00
   -4    9   20     -1.20      0.00
   -3    9   20      1.31      0.00
   -2    9   20      0.92      0.00
   -1    9   20     -1.22      0.00
    0    9   20     -1.13      0.00
    1    9   20      1.89      0.00
    2    9   20     -0.96      0.00
    3    9   20      0.06      0.00
   -9   10   20      0.12      0.00
   -8   10   20     -2.20      0.00
   -7   10   20      0.54      0.00
   -6   10   20     -0.08      0.00
   -5   10   20      0.24      0.00
   -4   10   20     -0.76      0.00
   -3   10   20      1.60      0.00
   -2   10   20      0.62      0.00
   -1   10   20     -3.17      0.00
    0   10   20      2.64      0.00
    1   10   20     -1.22      0.00
    2   10   20      0.02      0.00
   -8   11   20     -1.27      0.00
   -7   11   20      0.29      0.00
   -6   11   20     -0.68      0.00
   -5   11   20      2.53      0.00
   -4   11   20     -1.70      0.00
   -3   11   20      0.36      0.00
   -2   11   20      0.76      0.00
   -1   11   20     -1.01      0.00
    0   11   20     -0.33      0.00
   -6   12   20      3.48      0.00
   -5   12   20     -2.18      0.00
   -4   12   20      2.34      0.00
   -3   12   20     -2.58      0.00
   -2   12   20      0.51      0.00
    0  -13   21      0.03      0.00
    1  -13   21      0.44      0.00
    2  -13   21     -0.05      0.00
    3  -13   21      0.40      0.00
   -2  -12   21     -1.10      0.00
   -1  -12   21      1.72      0.00
    0  -12   21     -1.82      0.00
    1  -12   21      0.23      0.00
    2  -12   21      1.61      0.00
    3  -12   21     -1.22      0.00
    4  -12   21     -0.59      0.00
    5  -12   21     -0.20      0.00
   -4  -11   21     -0.44      0.00
   -3  -11   21     -0.17      0.00
   -2  -11   21     -0.42      0.00
   -1  -11   21      1.66      0.00
    0  -11   21     -2.24      0.00
    1  -11   21      1.07      0.00
    2  -11   21      0.24      0.00
    3  -11   21     -0.33      0.00
    4  -11   21     -1.17      0.00
    5  -11   21      1.76      0.00
    6  -11   21     -1.04      0.00
   -5  -10   21      1.81      0.00
   -4  -10   21      0.48      0.00
   -3  -10   21     -1.64      0.00
   -2  -10   21      1.75      0.00
   -1  -10   21     -2.08      0.00
    0  -10   21      1.91      0.00
    1  -10   21     -0.79      0.00
    2  -10   21     -0.62      0.00
    3  -10   21      0.56      0.00
    4  -10   21     -0.79      0.00
    5  -10   21      2.70      0.00
    6  -10   21     -2.78      0.00
    7  -10   21      2.70      0.00
   -6   -9   21     -1.50      0.00
   -5   -9   21      1.40      0.00
   -4   -9   21     -0.08      0.00
   -3   -9   21      0.39      0.00
   -2   -9   21     -1.52      0.00
   -1   -9   21      1.70      0.00
    0   -9   21     -1.71      0.00
    1   -9   21      2.04      0.00
    2   -9   21     -1.63      0.00
    3   -9   21     -0.44      0.00
    4   -9   21      1.53      0.00
    5   -9   21      1.07      0.00
    6   -9   21     -1.43      0.00
    7   -9   21      0.92      0.00
    8   -9   21     -1.14      0.00
   -7   -8   21     -0.01      0.00
   -6   -8   21     -0.02      0.00
   -5   -8   21      1.16      0.00
   -4   -8   21     -0.79      0.00
   -3   -8   21     -0.74      0.00
   -2   -8   21      2.46      0.00
   -1   -8   21     -2.89      0.00
    0   -8   21      1.71      0.00
    1   -8   21      0.18      0.00
    2   -8   21     -1.57      0.00
    3   -8   21      1.53      0.00
    4   -8   21     -0.11      0.00
    5   -8   21      0.56      0.00
    6   -8   21      0.94      0.00
    7   -8   21     -2.20      0.00
    8   -8   21     -0.23      0.00
   -8   -7   21     -1.34      0.00
   -7   -7   21     -0.16      0.00
   -6   -7   21      1.89      0.00
   -5   -7   21     -1.10      0.00
   -4   -7   21      0.57      0.00
   -3   -7   21     -1.30      0.00
   -2   -7   21      1.79      0.00
   -1   -7   21      0.04      0.00
    0   -7   21     -1.51      0.00
    1   -7   21      0.93      0.00
    2   -7   21     -0.58      0.00
    3   -7   21      1.37      0.00
    4   -7   21     -0.10      0.00
    5   -7   21     -0.43      0.00
    6   -7   21      2.21      0.00
    7   -7   21     -5.02      0.00
    8   -7   21      3.20      0.00
    9   -7   21     -1.40      0.00
   -9   -6   21     -0.61      0.00
   -8   -6   21     -1.27      0.00
   -7   -6   21      0.62      0.00
   -6   -6   21      1.63      0.00
   -5   -6   21     -1.42      0.00
   -4   -6   21      0.81      0.00
   -3   -6   21     -0.85      0.00
   -2   -6   21      0.89      0.00
   -1   -6   21      0.67      0.00
    0   -6   21     -1.14      0.00
    1   -6   21     -0.07      0.00
    2   -6   21     -0.78      0.00
    3   -6   21      3.19      0.00
    4   -6   21     -1.09      0.00
    5   -6   21     -0.67      0.00
    6   -6   21      0.28      0.00
    7   -6   21     -1.97      0.00
    8   -6   21      1.09      0.00
    9   -6   21      1.40      0.00
   -9   -5   21     -2.11      0.00
   -8   -5   21      1.16      0.00
   -7   -5   21     -0.32      0.00
   -6   -5   21      0.42      0.00
   -5   -5   21      0.61      0.00
   -4   -5   21     -0.35      0.00
   -3   -5   21     -0.17      0.00
   -2   -5   21      0.13      0.00
   -1   -5   21      0.21      0.00
    0   -5   21      1.04      0.00
    1   -5   21     -3.44      0.00
    2   -5   21      3.23      0.00
    3   -5   21     -0.30      0.00
    4   -5   21      0.93      0.00
    5   -5   21     -1.32      0.00
    6   -5   21     -1.02      0.00
    7   -5   21     -0.72      0.00
    8   -5   21      2.62      0.00
    9   -5   21     -0.21      0.00
  -10   -4   21      0.03      0.00
   -9   -4   21      0.16      0.00
   -8   -4   21     -0.57      0.00
   -7   -4   21      0.46      0.00
   -6   -4   21      0.20      0.00
   -5   -4   21      0.85      0.00
   -4   -4   21     -0.21      0.00
   -3   -4   21     -0.84      0.00
   -2   -4   21      0.40      0.00
   -1   -4   21      0.54      0.00
    0   -4   21     -1.39      0.00
    1   -4   21      1.67      0.00
    2   -4   21     -1.35      0.00
    3   -4   21      1.47      0.00
    4   -4   21      0.91      0.00
    5   -4   21     -2.83      0.00
    6   -4   21      0.80      0.00
    7   -4   21      0.05      0.00
    8   -4   21     -0.22      0.00
    9   -4   21      2.63      0.00
  -10   -3   21      1.62      0.00
   -9   -3   21     -1.62      0.00
   -8   -3   21     -0.39      0.00
   -7   -3   21      2.07      0.00
   -6   -3   21     -1.21      0.00
   -5   -3   21      1.13      0.00
   -4   -3   21     -0.61      0.00
   -3   -3   21      0.39      0.00
   -2   -3   21     -1.83      0.00
   -1   -3   21      1.96      0.00
    0   -3   21     -0.91      0.00
    1   -3   21     -0.01      0.00
    2   -3   21      1.70      0.00
    3   -3   21     -1.83      0.00
    4   -3   21      1.54      0.00
    5   -3   21     -1.60      0.00
    6   -3   21      0.84      0.00
    7   -3   21     -0.77      0.00
    8   -3   21      0.85      0.00
    9   -3   21     -0.03      0.00
  -11   -2   21      0.42      0.00
  -10   -2   21      0.80      0.00
   -9   -2   21     -0.97      0.00
   -8   -2   21     -1.03      0.00
   -7   -2   21      2.36      0.00
   -6   -2   21     -0.22      0.00
   -5   -2   21     -1.02      0.00
   -4   -2   21      0.51      0.00
   -3   -2   21     -0.43      0.00
   -2   -2   21      0.72      0.00
   -1   -2   21     -2.51      0.00
    0   -2   21      3.66      0.00
    1   -2   21     -2.68      0.00
    2   -2   21      3.20      0.00
    3   -2   21     -2.80      0.00
    4   -2   21      0.15      0.00
    5   -2   21      2.35      0.00
    6   -2   21     -2.67      0.00
    7   -2   21      0.85      0.00
    8   -2   21      0.04      0.00
    9   -2   21     -0.28      0.00
  -11   -1   21      2.58      0.00
  -10   -1   21     -1.97      0.00
   -9   -1   21     -0.44      0.00
   -8   -1   21      2.14      0.00
   -7   -1   21     -2.61      0.00
   -6   -1   21      3.49      0.00
   -5   -1   21     -3.63      0.00
   -4   -1   21      2.08      0.00
   -3   -1   21     -1.35      0.00
   -2   -1   21      1.57      0.00
   -1   -1   21     -1.88      0.00
    0   -1   21      0.13      0.00
    1   -1   21      3.62      0.00
    2   -1   21     -2.81      0.00
    3   -1   21     -0.61      0.00
    4   -1   21      2.26      0.00
    5   -1   21     -2.00      0.00
    6   -1   21      1.48      0.00
    7   -1   21     -2.26      0.00
    8   -1   21      1.31      0.00
    9   -1   21     -0.38      0.00
  -11    0   21      1.17      0.00
  -10    0   21     -3.66      0.00
   -9    0   21      3.43      0.00
   -8    0   21     -0.87      0.00
   -7    0   21     -1.02      0.00
   -6    0   21      0.49      0.00
   -5    0   21      0.31      0.00
   -4    0   21     -1.44      0.00
   -3    0   21      1.98      0.00
   -2    0   21     -1.03      0.00
   -1    0   21     -0.52      0.00
    0    0   21      1.17      0.00
    1    0   21      1.03      0.00
    2    0   21     -1.56      0.00
    3    0   21      0.59      0.00
    4    0   21      0.07      0.00
    5    0   21     -0.54      0.00
    6    0   21     -0.51      0.00
    7    0   21      0.51      0.00
    8    0   21     -0.62      0.00
  -11    1   21      0.44      0.00
  -10    1   21     -2.12      0.00
   -9    1   21      1.83      0.00
   -8    1   21      0.42      0.00
   -7    1   21     -1.87      0.00
   -6    1   21     -0.18      0.00
   -5    1   21      0.91      0.00
   -4    1   21      0.81      0.00
   -3    1   21     -2.36      0.00
   -2    1   21      3.21      0.00
   -1    1   21     -2.42      0.00
    0    1   21      2.49      0.00
    1    1   21     -2.53      0.00
    2    1   21      2.62      0.00
    3    1   21     -2.03      0.00
    4    1   21      1.36      0.00
    5    1   21     -2.79      0.00
    6    1   21      2.10      0.00
    7    1   21     -0.42      0.00
    8    1   21     -0.93      0.00
  -11    2   21     -1.59      0.00
  -10    2   21      0.18      0.00
   -9    2   21      0.54      0.00
   -8    2   21     -0.12      0.00
   -7    2   21     -1.31      0.00
   -6    2   21      0.69      0.00
   -5    2   21     -0.28      0.00
   -4    2   21      1.32      0.00
   -3    2   21     -1.19      0.00
   -2    2   21      0.99      0.00
   -1    2   21      0.87      0.00
    0    2   21     -1.29      0.00
    1    2   21     -0.07      0.00
    2    2   21      0.56      0.00
    3    2   21      0.14      0.00
    4    2   21     -1.16      0.00
    5    2   21      0.00      0.00
    6    2   21     -0.07      0.00
    7    2   21      0.37      0.00
    8    2   21      0.06      0.00
  -11    3   21      0.41      0.00
  -10    3   21     -0.28      0.00
   -9    3   21     -0.06      0.00
   -8    3   21     -0.46      0.00
   -7    3   21     -0.14      0.00
   -6    3   21      0.31      0.00
   -5    3   21      0.49      0.00
   -4    3   21     -0.25      0.00
   -3    3   21      0.51      0.00
   -2    3   21      0.86      0.00
   -1    3   21     -1.11      0.00
    0    3   21      0.94      0.00
    1    3   21     -2.05      0.00
    2    3   21      1.68      0.00
    3    3   21     -0.93      0.00
    4    3   21      0.13      0.00
    5    3   21      0.37      0.00
    6    3   21     -2.30      0.00
    7    3   21      2.94      0.00
  -11    4   21      1.57      0.00
  -10    4   21      0.23      0.00
   -9    4   21     -1.07      0.00
   -8    4   21     -0.99      0.00
   -7    4   21      2.31      0.00
   -6    4   21     -1.27      0.00
   -5    4   21      0.33      0.00
   -4    4   21      1.80      0.00
   -3    4   21     -2.48      0.00
   -2    4   21      2.82      0.00
   -1    4   21     -1.85      0.00
    0    4   21     -0.33      0.00
    1    4   21     -0.05      0.00
    2    4   21      0.47      0.00
    3    4   21     -0.26      0.00
    4    4   21     -0.50      0.00
    5    4   21      0.65      0.00
    6    4   21     -0.71      0.00
    7    4   21     -0.54      0.00
  -11    5   21      2.67      0.00
  -10    5   21     -1.33      0.00
   -9    5   21      0.08      0.00
   -8    5   21     -0.45      0.00
   -7    5   21      1.37      0.00
   -6    5   21     -0.33      0.00
   -5    5   21      0.18      0.00
   -4    5   21      0.64      0.00
   -3    5   21     -0.68      0.00
   -2    5   21      0.43      0.00
   -1    5   21     -0.94      0.00
    0    5   21     -0.53      0.00
    1    5   21      1.18      0.00
    2    5   21     -0.56      0.00
    3    5   21      0.01      0.00
    4    5   21     -0.96      0.00
    5    5   21      1.71      0.00
    6    5   21     -1.81      0.00
  -11    6   21     -0.27      0.00
  -10    6   21      0.96      0.00
   -9    6   21     -1.86      0.00
   -8    6   21      3.17      0.00
   -7    6   21     -2.34      0.00
   -6    6   21      1.94      0.00
   -5    6   21     -1.29      0.00
   -4    6   21      1.59      0.00
   -3    6   21     -1.65      0.00
   -2    6   21     -0.39      0.00
   -1    6   21      0.85      0.00
    0    6   21     -1.01      0.00
    1    6   21      0.55      0.00
    2    6   21      0.95      0.00
    3    6   21     -1.78      0.00
    4    6   21      0.35      0.00
    5    6   21      0.41      0.00
  -10    7   21     -0.50      0.00
   -9    7   21      1.39      0.00
   -8    7   21      0.35      0.00
   -7    7   21     -0.25      0.00
   -6    7   21     -0.83      0.00
   -5    7   21      1.79      0.00
   -4    7   21     -1.66      0.00
   -3    7   21     -0.64      0.00
   -2    7   21      0.70      0.00
   -1    7   21      0.28      0.00
    0    7   21     -0.94      0.00
    1    7   21      0.88      0.00
    2    7   21      0.15      0.00
    3    7   21     -1.28      0.00
    4    7   21      0.81      0.00
    5    7   21     -0.95      0.00
  -10    8   21     -0.32      0.00
   -9    8   21      0.92      0.00
   -8    8   21     -0.14      0.00
   -7    8   21     -0.51      0.00
   -6    8   21      1.35      0.00
   -5    8   21     -2.31      0.00
   -4    8   21      0.52      0.00
   -3    8   21     -0.02      0.00
   -2    8   21      0.17      0.00
   -1    8   21      0.31      0.00
    0    8   21     -0.26      0.00
    1    8   21     -0.14      0.00
    2    8   21     -0.44      0.00
    3    8   21      1.25      0.00
    4    8   21     -2.26      0.00
   -9    9   21     -0.23      0.00
   -8    9   21      1.00      0.00
   -7    9   21     -2.27      0.00
   -6    9   21      1.43      0.00
   -5    9   21     -0.06      0.00
   -4    9   21     -2.63      0.00
   -3    9   21      1.90      0.00
   -2    9   21      1.76      0.00
   -1    9   21     -1.71      0.00
    0    9   21     -1.34      0.00
    1    9   21      2.82      0.00
    2    9   21     -2.73      0.00
   -8   10   21     -2.51      0.00
   -7   10   21      1.25      0.00
   -6   10   21     -0.94      0.00
   -5   10   21      0.78      0.00
   -4   10   21     -1.93      0.00
   -3   10   21      2.75      0.00
   -2   10   21     -0.47      0.00
   -1   10   21     -1.00      0.00
    0   10   21      0.39      0.00
    1   10   21     -0.37      0.00
   -6   11   21     -0.31      0.00
   -5   11   21      1.01      0.00
   -4   11   21     -0.31      0.00
   -3   11   21      0.27      0.00
   -2   11   21      0.70      0.00
   -1   11   21     -1.65      0.00
   -1  -12   22      1.10      0.00
    0  -12   22     -1.43      0.00
    1  -12   22      0.35      0.00
    2  -12   22      0.67      0.00
    3  -12   22      0.37      0.00
    4  -12   22     -1.46      0.00
   -3  -11   22      0.73      0.00
   -2  -11   22     -0.64      0.00
   -1  -11   22      0.79      0.00
    0  -11   22     -1.13      0.00
    1  -11   22      0.17      0.00
    2  -11   22      0.68      0.00
    3  -11   22      0.31      0.00
    4  -11   22     -2.22      0.00
    5  -11   22      1.48      0.00
   -5  -10   22      1.11      0.00
   -4  -10   22      0.25      0.00
   -3  -10   22      0.15      0.00
   -2  -10   22     -0.18      0.00
   -1  -10   22     -1.13      0.00
    0  -10   22      1.68      0.00
    1  -10   22     -1.17      0.00
    2  -10   22      0.11      0.00
    3  -10   22      0.58      0.00
    4  -10   22     -2.12      0.00
    5  -10   22      3.12      0.00
    6  -10   22     -2.07      0.00
   -6   -9   22     -1.06      0.00
   -5   -9   22     -0.53      0.00
   -4   -9   22      2.91      0.00
   -3   -9   22     -1.86      0.00
   -2   -9   22      0.11      0.00
   -1   -9   22     -0.36      0.00
    0   -9   22      0.20      0.00
    1   -9   22      0.73      0.00
    2   -9   22     -0.60      0.00
    3   -9   22     -1.37      0.00
    4   -9   22      1.38      0.00
    5   -9   22      1.08      0.00
    6   -9   22     -0.70      0.00
    7   -9   22      0.40      0.00
   -7   -8   22     -0.48      0.00
   -6   -8   22     -0.33      0.00
   -5   -8   22      1.23      0.00
   -4   -8   22     -1.01      0.00
   -3   -8   22      1.43      0.00
   -2   -8   22     -0.98      0.00
   -1   -8   22     -0.74      0.00
    0   -8   22      0.71      0.00
    1   -8   22      1.22      0.00
    2   -8   22     -2.55      0.00
    3   -8   22      1.36      0.00
    4   -8   22      0.08      0.00
    5   -8   22      0.50      0.00
    6   -8   22      1.33      0.00
    7   -8   22     -1.87      0.00
   -7   -7   22     -0.07      0.00
   -6   -7   22      0.63      0.00
   -5   -7   22      0.25      0.00
   -4   -7   22      0.28      0.00
   -3   -7   22     -1.62      0.00
   -2   -7   22      2.44      0.00
   -1   -7   22     -2.02      0.00
    0   -7   22      1.06      0.00
    1   -7   22     -0.39      0.00
    2   -7   22     -0.44      0.00
    3   -7   22      0.23      0.00
    4   -7   22      1.55      0.00
    5   -7   22     -1.49      0.00
    6   -7   22      2.77      0.00
    7   -7   22     -3.43      0.00
    8   -7   22      1.15      0.00
   -8   -6   22     -1.48      0.00
   -7   -6   22      0.78      0.00
   -6   -6   22      0.71      0.00
   -5   -6   22     -0.01      0.00
   -4   -6   22     -0.24      0.00
   -3   -6   22     -0.76      0.00
   -2   -6   22      1.12      0.00
   -1   -6   22      0.78      0.00
    0   -6   22     -2.32      0.00
    1   -6   22      2.65      0.00
    2   -6   22     -4.23      0.00
    3   -6   22      4.62      0.00
    4   -6   22     -0.45      0.00
    5   -6   22     -1.75      0.00
    6   -6   22      2.41      0.00
    7   -6   22     -3.15      0.00
    8   -6   22      1.10      0.00
   -9   -5   22     -1.46      0.00
   -8   -5   22      0.49      0.00
   -7   -5   22     -0.42      0.00
   -6   -5   22      1.26      0.00
   -5   -5   22     -0.60      0.00
   -4   -5   22      0.29      0.00
   -3   -5   22     -0.47      0.00
   -2   -5   22      0.20      0.00
   -1   -5   22      0.99      0.00
    0   -5   22     -0.39      0.00
    1   -5   22     -2.10      0.00
    2   -5   22      2.11      0.00
    3   -5   22     -0.96      0.00
    4   -5   22      3.09      0.00
    5   -5   22     -1.95      0.00
    6   -5   22     -1.24      0.00
    7   -5   22      0.08      0.00
    8   -5   22      1.56      0.00
   -9   -4   22     -0.02      0.00
   -8   -4   22     -0.68      0.00
   -7   -4   22      0.67      0.00
   -6   -4   22      0.22      0.00
   -5   -4   22      0.09      0.00
   -4   -4   22     -0.05      0.00
   -3   -4   22      0.10      0.00
   -2   -4   22     -0.32      0.00
   -1   -4   22      0.40      0.00
    0   -4   22     -0.18      0.00
    1   -4   22     -0.44      0.00
    2   -4   22     -0.25      0.00
    3   -4   22      1.26      0.00
    4   -4   22      1.38      0.00
    5   -4   22     -1.61      0.00
    6   -4   22     -1.04      0.00
    7   -4   22      0.45      0.00
    8   -4   22      0.65      0.00
  -10   -3   22      1.37      0.00
   -9   -3   22     -1.33      0.00
   -8   -3   22      0.41      0.00
   -7   -3   22      0.04      0.00
   -6   -3   22      0.49      0.00
   -5   -3   22      0.08      0.00
   -4   -3   22     -0.08      0.00
   -3   -3   22      0.26      0.00
   -2   -3   22     -1.49      0.00
   -1   -3   22      1.68      0.00
    0   -3   22     -1.01      0.00
    1   -3   22     -0.29      0.00
    2   -3   22      1.53      0.00
    3   -3   22     -0.84      0.00
    4   -3   22      1.45      0.00
    5   -3   22     -1.48      0.00
    6   -3   22      0.29      0.00
    7   -3   22     -0.53      0.00
    8   -3   22      0.71      0.00
  -10   -2   22      2.39      0.00
   -9   -2   22     -1.85      0.00
   -8   -2   22     -0.53      0.00
   -7   -2   22      1.59      0.00
   -6   -2   22     -0.31      0.00
   -5   -2   22      0.37      0.00
   -4   -2   22     -0.69      0.00
   -3   -2   22     -0.19      0.00
   -2   -2   22      0.70      0.00
   -1   -2   22     -2.10      0.00
    0   -2   22      3.36      0.00
    1   -2   22     -3.88      0.00
    2   -2   22      5.01      0.00
    3   -2   22     -2.80      0.00
    4   -2   22     -0.79      0.00
    5   -2   22      2.85      0.00
    6   -2   22     -1.87      0.00
    7   -2   22     -0.79      0.00
    8   -2   22      1.59      0.00
  -10   -1   22      0.65      0.00
   -9   -1   22     -1.84      0.00
   -8   -1   22      1.60      0.00
   -7   -1   22     -1.83      0.00
   -6   -1   22      3.44      0.00
   -5   -1   22     -3.35      0.00
   -4   -1   22      1.77      0.00
   -3   -1   22     -1.92      0.00
   -2   -1   22      2.13      0.00
   -1   -1   22     -1.87      0.00
    0   -1   22      0.21      0.00
    1   -1   22      2.17      0.00
    2   -1   22     -0.12      0.00
    3   -1   22     -1.70      0.00
    4   -1   22      0.85      0.00
    5   -1   22      0.47      0.00
    6   -1   22      0.42      0.00
    7   -1   22     -2.59      0.00
    8   -1   22      2.22      0.00
  -10    0   22     -2.32      0.00
   -9    0   22      1.46      0.00
   -8    0   22     -0.08      0.00
   -7    0   22     -0.76      0.00
   -6    0   22      0.99      0.00
   -5    0   22     -1.01      0.00
   -4    0   22      0.09      0.00
   -3    0   22      0.18      0.00
   -2    0   22     -0.56      0.00
   -1    0   22      1.03      0.00
    0    0   22     -1.40      0.00
    1    0   22      3.30      0.00
    2    0   22     -2.16      0.00
    3    0   22      0.73      0.00
    4    0   22     -0.83      0.00
    5    0   22      0.85      0.00
    6    0   22     -0.59      0.00
    7    0   22      0.09      0.00
    8    0   22     -1.09      0.00
  -11    1   22      1.75      0.00
  -10    1   22     -3.56      0.00
   -9    1   22      2.63      0.00
   -8    1   22      0.02      0.00
   -7    1   22     -1.21      0.00
   -6    1   22     -0.86      0.00
   -5    1   22      1.70      0.00
   -4    1   22     -0.84      0.00
   -3    1   22     -0.25      0.00
   -2    1   22      0.31      0.00
   -1    1   22      0.60      0.00
    0    1   22      0.45      0.00
    1    1   22     -0.87      0.00
    2    1   22      2.29      0.00
    3    1   22     -2.98      0.00
    4    1   22      2.23      0.00
    5    1   22     -2.36      0.00
    6    1   22      1.49      0.00
    7    1   22     -0.02      0.00
  -11    2   22      0.33      0.00
  -10    2   22     -1.35      0.00
   -9    2   22      1.18      0.00
   -8    2   22     -0.01      0.00
   -7    2   22     -1.12      0.00
   -6    2   22     -0.92      0.00
   -5    2   22      1.94      0.00
   -4    2   22     -0.28      0.00
   -3    2   22     -1.15      0.00
   -2    2   22      1.44      0.00
   -1    2   22      0.36      0.00
    0    2   22     -0.04      0.00
    1    2   22     -0.08      0.00
    2    2   22     -0.38      0.00
    3    2   22      0.46      0.00
    4    2   22     -0.29      0.00
    5    2   22     -1.34      0.00
    6    2   22      1.62      0.00
    7    2   22     -1.08      0.00
  -11    3   22     -0.92      0.00
  -10    3   22      0.54      0.00
   -9    3   22      0.19      0.00
   -8    3   22     -0.63      0.00
   -7    3   22     -1.52      0.00
   -6    3   22      1.83      0.00
   -5    3   22     -0.21      0.00
   -4    3   22     -0.27      0.00
   -3    3   22      0.71      0.00
   -2    3   22      0.05      0.00
   -1    3   22      0.36      0.00
    0    3   22      0.76      0.00
    1    3   22     -1.86      0.00
    2    3   22      0.60      0.00
    3    3   22      0.16      0.00
    4    3   22     -0.13      0.00
    5    3   22     -0.14      0.00
    6    3   22     -1.18      0.00
  -11    4   22     -0.16      0.00
  -10    4   22      1.47      0.00
   -9    4   22     -1.53      0.00
   -8    4   22     -0.76      0.00
   -7    4   22      0.93      0.00
   -6    4   22      0.00      0.00
   -5    4   22      0.23      0.00
   -4    4   22      0.87      0.00
   -3    4   22     -1.29      0.00
   -2    4   22      2.23      0.00
   -1    4   22     -1.18      0.00
    0    4   22     -0.21      0.00
    1    4   22     -0.52      0.00
    2    4   22      0.67      0.00
    3    4   22     -0.39      0.00
    4    4   22     -0.41      0.00
    5    4   22      0.90      0.00
    6    4   22     -1.10      0.00
  -10    5   22     -1.04      0.00
   -9    5   22      0.39      0.00
   -8    5   22     -1.60      0.00
   -7    5   22      2.51      0.00
   -6    5   22     -1.02      0.00
   -5    5   22     -0.19      0.00
   -4    5   22      1.81      0.00
   -3    5   22     -1.62      0.00
   -2    5   22      2.29      0.00
   -1    5   22     -3.05      0.00
    0    5   22      1.04      0.00
    1    5   22      0.32      0.00
    2    5   22     -0.42      0.00
    3    5   22      0.49      0.00
    4    5   22     -1.78      0.00
    5    5   22      2.55      0.00
  -10    6   22      0.11      0.00
   -9    6   22     -1.70      0.00
   -8    6   22      2.84      0.00
   -7    6   22     -1.56      0.00
   -6    6   22      2.07      0.00
   -5    6   22     -3.08      0.00
   -4    6   22      3.37      0.00
   -3    6   22     -0.85      0.00
   -2    6   22     -1.33      0.00
   -1    6   22     -0.15      0.00
    0    6   22      0.77      0.00
    1    6   22     -0.70      0.00
    2    6   22      1.52      0.00
    3    6   22     -1.36      0.00
    4    6   22     -0.82      0.00
    5    6   22      1.37      0.00
  -10    7   22     -0.36      0.00
   -9    7   22      0.53      0.00
   -8    7   22      1.05      0.00
   -7    7   22      0.21      0.00
   -6    7   22     -1.02      0.00
   -5    7   22      1.30      0.00
   -4    7   22     -1.72      0.00
   -3    7   22      1.78      0.00
   -2    7   22     -2.15      0.00
   -1    7   22      1.12      0.00
    0    7   22     -1.02      0.00
    1    7   22      1.79      0.00
    2    7   22     -0.68      0.00
    3    7   22     -0.91      0.00
    4    7   22      0.33      0.00
   -9    8   22     -0.60      0.00
   -8    8   22      1.44      0.00
   -7    8   22      0.15      0.00
   -6    8   22     -0.57      0.00
   -5    8   22     -0.82      0.00
   -4    8   22      0.85      0.00
   -3    8   22     -1.37      0.00
   -2    8   22      0.55      0.00
   -1    8   22      0.69      0.00
    0    8   22     -0.50      0.00
    1    8   22      0.10      0.00
    2    8   22      0.01      0.00
    3    8   22     -0.17      0.00
   -8    9   22      2.40      0.00
   -7    9   22     -3.23      0.00
   -6    9   22      2.58      0.00
   -5    9   22     -1.25      0.00
   -4    9   22     -1.59      0.00
   -3    9   22      0.53      0.00
   -2    9   22      2.13      0.00
   -1    9   22     -1.26      0.00
    0    9   22     -0.88      0.00
    1    9   22      2.25      0.00
   -7   10   22      0.01      0.00
   -6   10   22     -0.45      0.00
   -5   10   22      1.36      0.00
   -4   10   22     -3.56      0.00
   -3   10   22      3.54      0.00
   -2   10   22     -1.13      0.00
   -1   10   22      0.94      0.00
   -2  -11   23      0.16      0.00
   -1  -11   23     -0.42      0.00
    0  -11   23     -0.06      0.00
    1  -11   23      0.11      0.00
    2  -11   23     -0.12      0.00
    3  -11   23      1.06      0.00
    4  -11   23     -2.13      0.00
   -3  -10   23      2.09      0.00
   -2  -10   23     -1.97      0.00
   -1  -10   23      0.34      0.00
    0  -10   23      0.50      0.00
    1  -10   23     -0.34      0.00
    2  -10   23     -0.31      0.00
    3  -10   23      1.06      0.00
    4  -10   23     -2.83      0.00
    5  -10   23      2.81      0.00
   -5   -9   23     -1.65      0.00
   -4   -9   23      3.58      0.00
   -3   -9   23     -2.46      0.00
   -2   -9   23      1.74      0.00
   -1   -9   23     -2.73      0.00
    0   -9   23      2.52      0.00
    1   -9   23     -1.27      0.00
    2   -9   23      0.87      0.00
    3   -9   23     -1.99      0.00
    4   -9   23      1.03      0.00
    5   -9   23      0.52      0.00
    6   -9   23      0.46      0.00
   -6   -8   23      0.12      0.00
   -5   -8   23     -0.38      0.00
   -4   -8   23     -0.05      0.00
   -3   -8   23      2.61      0.00
   -2   -8   23     -3.16      0.00
   -1   -8   23      0.97      0.00
    0   -8   23     -0.36      0.00
    1   -8   23      1.48      0.00
    2   -8   23     -2.04      0.00
    3   -8   23      0.45      0.00
    4   -8   23      0.27      0.00
    5   -8   23      0.06      0.00
    6   -8   23      1.90      0.00
    7   -8   23     -1.77      0.00
   -7   -7   23     -0.16      0.00
   -6   -7   23     -0.16      0.00
   -5   -7   23      0.58      0.00
   -4   -7   23     -0.04      0.00
   -3   -7   23     -0.27      0.00
   -2   -7   23      1.24      0.00
   -1   -7   23     -2.53      0.00
    0   -7   23      2.17      0.00
    1   -7   23     -0.97      0.00
    2   -7   23     -0.17      0.00
    3   -7   23     -0.51      0.00
    4   -7   23      1.81      0.00
    5   -7   23     -1.62      0.00
    6   -7   23      2.57      0.00
    7   -7   23     -1.61      0.00
   -7   -6   23      0.71      0.00
   -6   -6   23     -0.70      0.00
   -5   -6   23      1.49      0.00
   -4   -6   23     -0.98      0.00
   -3   -6   23     -0.28      0.00
   -2   -6   23      1.15      0.00
   -1   -6   23     -0.81      0.00
    0   -6   23     -0.27      0.00
    1   -6   23      1.31      0.00
    2   -6   23     -3.04      0.00
    3   -6   23      2.48      0.00
    4   -6   23      1.01      0.00
    5   -6   23     -2.25      0.00
    6   -6   23      2.83      0.00
    7   -6   23     -2.39      0.00
   -8   -5   23     -0.36      0.00
   -7   -5   23     -0.19      0.00
   -6   -5   23      1.24      0.00
   -5   -5   23     -0.64      0.00
   -4   -5   23      0.11      0.00
   -3   -5   23     -0.14      0.00
   -2   -5   23     -0.14      0.00
   -1   -5   23      1.45      0.00
    0   -5   23     -2.16      0.00
    1   -5   23      1.33      0.00
    2   -5   23     -1.20      0.00
    3   -5   23     -0.36      0.00
    4   -5   23      3.88      0.00
    5   -5   23     -2.49      0.00
    6   -5   23     -0.49      0.00
    7   -5   23      0.78      0.00
   -9   -4   23     -0.08      0.00
   -8   -4   23     -0.73      0.00
   -7   -4   23      0.80      0.00
   -6   -4   23      0.23      0.00
   -5   -4   23     -0.29      0.00
   -4   -4   23     -0.22      0.00
   -3   -4   23      0.85      0.00
   -2   -4   23     -0.77      0.00
   -1   -4   23      0.15      0.00
    0   -4   23      0.57      0.00
    1   -4   23     -1.54      0.00
    2   -4   23      0.79      0.00
    3   -4   23     -0.33      0.00
    4   -4   23      2.38      0.00
    5   -4   23     -0.73      0.00
    6   -4   23     -1.63      0.00
    7   -4   23      0.22      0.00
   -9   -3   23     -0.53      0.00
   -8   -3   23      0.46      0.00
   -7   -3   23     -0.61      0.00
   -6   -3   23      1.35      0.00
   -5   -3   23     -1.14      0.00
   -4   -3   23      0.45      0.00
   -3   -3   23      0.61      0.00
   -2   -3   23     -1.28      0.00
   -1   -3   23      0.76      0.00
    0   -3   23     -0.42      0.00
    1   -3   23     -0.33      0.00
    2   -3   23      0.46      0.00
    3   -3   23      0.36      0.00
    4   -3   23      0.82      0.00
    5   -3   23     -0.13      0.00
    6   -3   23     -1.06      0.00
    7   -3   23      0.28      0.00
   -9   -2   23     -1.64      0.00
   -8   -2   23      0.65      0.00
   -7   -2   23     -0.18      0.00
   -6   -2   23      0.25      0.00
   -5   -2   23      0.72      0.00
   -4   -2   23     -1.18      0.00
   -3   -2   23      0.33      0.00
   -2   -2   23      0.31      0.00
   -1   -2   23     -1.44      0.00
    0   -2   23      1.88      0.00
    1   -2   23     -2.58      0.00
    2   -2   23      3.56      0.00
    3   -2   23     -1.27      0.00
    4   -2   23     -0.81      0.00
    5   -2   23      1.78      0.00
    6   -2   23     -0.44      0.00
    7   -2   23     -1.71      0.00
  -10   -1   23      2.45      0.00
   -9   -1   23     -2.04      0.00
   -8   -1   23      0.81      0.00
   -7   -1   23     -0.86      0.00
   -6   -1   23      1.96      0.00
   -5   -1   23     -1.52      0.00
   -4   -1   23      0.40      0.00
   -3   -1   23     -0.97      0.00
   -2   -1   23      1.00      0.00
   -1   -1   23     -1.00      0.00
    0   -1   23      0.34      0.00
    1   -1   23      0.11      0.00
    2   -1   23      2.16      0.00
    3   -1   23     -1.62      0.00
    4   -1   23     -0.74      0.00
    5   -1   23      2.09      0.00
    6   -1   23     -0.28      0.00
    7   -1   23     -2.30      0.00
  -10    0   23      0.53      0.00
   -9    0   23     -0.99      0.00
   -8    0   23      0.67      0.00
   -7    0   23     -0.41      0.00
   -6    0   23      0.73      0.00
   -5    0   23     -1.08      0.00
   -4    0   23      0.61      0.00
   -3    0   23     -0.90      0.00
   -2    0   23     -0.10      0.00
   -1    0   23      1.14      0.00
    0    0   23     -1.29      0.00
    1    0   23      1.75      0.00
    2    0   23      0.53      0.00
    3    0   23     -0.36      0.00
    4    0   23     -2.01      0.00
    5    0   23      2.85      0.00
    6    0   23     -1.07      0.00
    7    0   23     -0.57      0.00
  -10    1   23     -2.09      0.00
   -9    1   23      1.68      0.00
   -8    1   23     -0.49      0.00
   -7    1   23     -0.01      0.00
   -6    1   23     -0.96      0.00
   -5    1   23      0.95      0.00
   -4    1   23     -0.88      0.00
   -3    1   23      0.76      0.00
   -2    1   23     -2.08      0.00
   -1    1   23      3.36      0.00
    0    1   23     -2.00      0.00
    1    1   23      1.17      0.00
    2    1   23      1.59      0.00
    3    1   23     -2.49      0.00
    4    1   23      0.64      0.00
    5    1   23      0.46      0.00
    6    1   23     -0.40      0.00
    7    1   23      0.45      0.00
  -10    2   23     -2.22      0.00
   -9    2   23      1.43      0.00
   -8    2   23      0.20      0.00
   -7    2   23     -0.97      0.00
   -6    2   23     -1.63      0.00
   -5    2   23      2.91      0.00
   -4    2   23     -1.49      0.00
   -3    2   23     -0.59      0.00
   -2    2   23      0.96      0.00
   -1    2   23      0.25      0.00
    0    2   23      0.92      0.00
    1    2   23     -0.39      0.00
    2    2   23      0.24      0.00
    3    2   23     -0.85      0.00
    4    2   23      0.88      0.00
    5    2   23     -1.47      0.00
    6    2   23      1.67      0.00
  -10    3   23     -0.17      0.00
   -9    3   23      1.17      0.00
   -8    3   23     -1.11      0.00
   -7    3   23     -1.40      0.00
   -6    3   23      0.86      0.00
   -5    3   23      1.18      0.00
   -4    3   23     -0.98      0.00
   -3    3   23      0.08      0.00
   -2    3   23      0.15      0.00
   -1    3   23      1.14      0.00
    0    3   23      0.59      0.00
    1    3   23     -1.05      0.00
    2    3   23     -0.39      0.00
    3    3   23      0.38      0.00
    4    3   23      0.47      0.00
    5    3   23     -1.40      0.00
    6    3   23      1.12      0.00
  -10    4   23      1.43      0.00
   -9    4   23     -0.95      0.00
   -8    4   23     -0.11      0.00
   -7    4   23     -1.90      0.00
   -6    4   23      2.48      0.00
   -5    4   23     -0.39      0.00
   -4    4   23      0.01      0.00
   -3    4   23      0.08      0.00
   -2    4   23     -0.12      0.00
   -1    4   23      2.08      0.00
    0    4   23     -2.07      0.00
    1    4   23      0.80      0.00
    2    4   23     -0.60      0.00
    3    4   23      0.00      0.00
    4    4   23      0.07      0.00
    5    4   23      0.37      0.00
  -10    5   23      0.05      0.00
   -9    5   23      0.37      0.00
   -8    5   23     -2.10      0.00
   -7    5   23      2.14      0.00
   -6    5   23     -0.81      0.00
   -5    5   23      0.30      0.00
   -4    5   23      1.22      0.00
   -3    5   23     -1.68      0.00
   -2    5   23      3.25      0.00
   -1    5   23     -3.88      0.00
    0    5   23      2.44      0.00
    1    5   23     -0.98      0.00
    2    5   23     -0.12      0.00
    3    5   23      0.53      0.00
    4    5   23     -1.21      0.00
   -9    6   23     -1.30      0.00
   -8    6   23      2.21      0.00
   -7    6   23     -1.42      0.00
   -6    6   23      2.39      0.00
   -5    6   23     -3.41      0.00
   -4    6   23      3.29      0.00
   -3    6   23     -0.13      0.00
   -2    6   23     -1.02      0.00
   -1    6   23     -1.12      0.00
    0    6   23      1.53      0.00
    1    6   23     -1.01      0.00
    2    6   23      1.15      0.00
    3    6   23     -0.48      0.00
    4    6   23     -1.14      0.00
   -9    7   23      1.07      0.00
   -8    7   23     -0.47      0.00
   -7    7   23      1.73      0.00
   -6    7   23     -0.56      0.00
   -5    7   23     -0.65      0.00
   -4    7   23     -0.64      0.00
   -3    7   23      3.46      0.00
   -2    7   23     -3.92      0.00
   -1    7   23      0.81      0.00
    0    7   23      0.02      0.00
    1    7   23      1.35      0.00
    2    7   23     -0.87      0.00
    3    7   23      0.07      0.00
   -8    8   23      2.08      0.00
   -7    8   23      0.69      0.00
   -6    8   23     -1.50      0.00
   -5    8   23      0.25      0.00
   -4    8   23      0.05      0.00
   -3    8   23     -0.35      0.00
   -2    8   23     -0.47      0.00
   -1    8   23      0.99      0.00
    0    8   23     -0.95      0.00
    1    8   23      1.00      0.00
   -7    9   23     -1.71      0.00
   -6    9   23      1.58      0.00
   -5    9   23     -1.60      0.00
   -4    9   23      0.05      0.00
   -3    9   23     -0.92      0.00
   -2    9   23      1.50      0.00
   -1    9   23     -0.12      0.00
    0    9   23     -0.41      0.00
   -2  -10   24     -2.16      0.00
   -1  -10   24      1.13      0.00
    0  -10   24     -0.68      0.00
    1  -10   24      1.18      0.00
    2  -10   24     -1.33      0.00
    3  -10   24      1.19      0.00
   -4   -9   24      1.85      0.00
   -3   -9   24     -1.22      0.00
   -2   -9   24      1.71      0.00
   -1   -9   24     -3.30      0.00
    0   -9   24      3.48      0.00
    1   -9   24     -2.12      0.00
    2   -9   24      1.32      0.00
    3   -9   24     -1.91      0.00
    4   -9   24      0.57      0.00
    5   -9   24      0.19      0.00
   -5   -8   24     -1.62      0.00
   -4   -8   24      0.96      0.00
   -3   -8   24      1.76      0.00
   -2   -8   24     -2.56      0.00
   -1   -8   24      1.15      0.00
    0   -8   24     -0.49      0.00
    1   -8   24      0.71      0.00
    2   -8   24     -0.75      0.00
    3   -8   24     -0.70      0.00
    4   -8   24      0.83      0.00
    5   -8   24     -0.85      0.00
   -6   -7   24      0.10      0.00
   -5   -7   24     -0.27      0.00
   -4   -7   24     -0.18      0.00
   -3   -7   24      1.07      0.00
   -2   -7   24     -0.03      0.00
   -1   -7   24     -1.51      0.00
    0   -7   24      1.08      0.00
    1   -7   24     -0.17      0.00
    2   -7   24     -0.83      0.00
    3   -7   24      0.32      0.00
    4   -7   24      0.44      0.00
    5   -7   24     -1.00      0.00
    6   -7   24      2.09      0.00
   -7   -6   24      0.27      0.00
   -6   -6   24     -1.19      0.00
   -5   -6   24      1.89      0.00
   -4   -6   24     -1.65      0.00
   -3   -6   24      1.03      0.00
   -2   -6   24      0.53      0.00
   -1   -6   24     -1.78      0.00
    0   -6   24      1.62      0.00
    1   -6   24     -1.69      0.00
    2   -6   24      1.01      0.00
    3   -6   24     -1.11      0.00
    4   -6   24      1.93      0.00
    5   -6   24     -1.65      0.00
    6   -6   24      1.69      0.00
   -7   -5   24      0.23      0.00
   -6   -5   24      0.32      0.00
   -5   -5   24      0.03      0.00
   -4   -5   24     -0.44      0.00
   -3   -5   24      0.73      0.00
   -2   -5   24     -0.40      0.00
   -1   -5   24      0.57      0.00
    0   -5   24     -2.17      0.00
    1   -5   24      2.89      0.00
    2   -5   24     -2.78      0.00
    3   -5   24      0.28      0.00
    4   -5   24      2.85      0.00
    5   -5   24     -1.98      0.00
    6   -5   24      0.01      0.00
    7   -5   24      1.26      0.00
   -8   -4   24     -0.53      0.00
   -7   -4   24      0.69      0.00
   -6   -4   24      0.04      0.00
   -5   -4   24      0.03      0.00
   -4   -4   24     -0.88      0.00
   -3   -4   24      1.71      0.00
   -2   -4   24     -0.93      0.00
   -1   -4   24     -0.63      0.00
    0   -4   24      0.69      0.00
    1   -4   24     -0.72      0.00
    2   -4   24      0.55      0.00
    3   -4   24     -1.66      0.00
    4   -4   24      3.21      0.00
    5   -4   24     -1.04      0.00
    6   -4   24     -0.61      0.00
    7   -4   24     -0.06      0.00
   -8   -3   24     -0.10      0.00
   -7   -3   24      0.19      0.00
   -6   -3   24      0.78      0.00
   -5   -3   24     -1.32      0.00
   -4   -3   24      0.52      0.00
   -3   -3   24      0.98      0.00
   -2   -3   24     -1.04      0.00
   -1   -3   24     -0.44      0.00
    0   -3   24      0.41      0.00
    1   -3   24     -0.33      0.00
    2   -3   24     -0.01      0.00
    3   -3   24      0.31      0.00
    4   -3   24      0.39      0.00
    5   -3   24      1.21      0.00
    6   -3   24     -1.78      0.00
    7   -3   24      0.64      0.00
   -9   -2   24     -0.96      0.00
   -8   -2   24      1.41      0.00
   -7   -2   24     -1.34      0.00
   -6   -2   24      1.07      0.00
   -5   -2   24     -0.21      0.00
   -4   -2   24     -0.71      0.00
   -3   -2   24      0.83      0.00
   -2   -2   24     -0.32      0.00
   -1   -2   24     -0.75      0.00
    0   -2   24     -0.15      0.00
    1   -2   24      0.41      0.00
    2   -2   24      0.38      0.00
    3   -2   24      0.23      0.00
    4   -2   24     -0.16      0.00
    5   -2   24      0.75      0.00
    6   -2   24     -0.03      0.00
    7   -2   24     -1.06      0.00
   -9   -1   24     -0.77      0.00
   -8   -1   24      0.24      0.00
   -7   -1   24     -0.39      0.00
   -6   -1   24      0.68      0.00
   -5   -1   24     -0.15      0.00
   -4   -1   24     -0.72      0.00
   -3   -1   24      0.46      0.00
   -2   -1   24     -0.56      0.00
   -1   -1   24     -0.02      0.00
    0   -1   24     -0.32      0.00
    1   -1   24      0.03      0.00
    2   -1   24      1.80      0.00
    3   -1   24     -0.50      0.00
    4   -1   24     -1.13      0.00
    5   -1   24      1.79      0.00
    6   -1   24     -0.15      0.00
   -9    0   24     -1.65      0.00
   -8    0   24      0.84      0.00
   -7    0   24     -0.01      0.00
   -6    0   24     -0.33      0.00
   -5    0   24      0.05      0.00
   -4    0   24     -0.13      0.00
   -3    0   24     -0.41      0.00
   -2    0   24     -0.57      0.00
   -1    0   24      0.79      0.00
    0    0   24     -0.04      0.00
    1    0   24     -1.14      0.00
    2    0   24      3.82      0.00
    3    0   24     -1.91      0.00
    4    0   24     -1.86      0.00
    5    0   24      3.21      0.00
    6    0   24     -0.90      0.00
   -9    1   24      0.14      0.00
   -8    1   24     -0.59      0.00
   -7    1   24      1.12      0.00
   -6    1   24     -1.49      0.00
   -5    1   24      0.48      0.00
   -4    1   24     -0.42      0.00
   -3    1   24      0.69      0.00
   -2    1   24     -2.50      0.00
   -1    1   24      3.40      0.00
    0    1   24     -2.16      0.00
    1    1   24      1.42      0.00
    2    1   24      1.38      0.00
    3    1   24     -1.12      0.00
    4    1   24     -1.82      0.00
    5    1   24      3.30      0.00
    6    1   24     -1.88      0.00
   -9    2   24      0.57      0.00
   -8    2   24      0.47      0.00
   -7    2   24     -1.12      0.00
   -6    2   24     -0.50      0.00
   -5    2   24      1.02      0.00
   -4    2   24     -0.57      0.00
   -3    2   24     -0.41      0.00
   -2    2   24      0.02      0.00
   -1    2   24      0.41      0.00
    0    2   24      1.39      0.00
    1    2   24     -0.74      0.00
    2    2   24      1.11      0.00
    3    2   24     -1.45      0.00
    4    2   24      0.53      0.00
    5    2   24      0.11      0.00
   -9    3   24      1.63      0.00
   -8    3   24     -1.35      0.00
   -7    3   24     -0.53      0.00
   -6    3   24     -0.90      0.00
   -5    3   24      2.70      0.00
   -4    3   24     -1.70      0.00
   -3    3   24     -0.43      0.00
   -2    3   24      0.59      0.00
   -1    3   24      0.60      0.00
    0    3   24      1.59      0.00
    1    3   24     -1.72      0.00
    2    3   24      0.86      0.00
    3    3   24     -0.89      0.00
    4    3   24      0.97      0.00
    5    3   24     -1.41      0.00
   -9    4   24      0.38      0.00
   -8    4   24      0.16      0.00
   -7    4   24     -3.52      0.00
   -6    4   24      3.30      0.00
   -5    4   24     -0.21      0.00
   -4    4   24     -0.46      0.00
   -3    4   24      0.36      0.00
   -2    4   24     -1.72      0.00
   -1    4   24      4.77      0.00
    0    4   24     -4.13      0.00
    1    4   24      2.86      0.00
    2    4   24     -1.93      0.00
    3    4   24      0.16      0.00
    4    4   24      0.50      0.00
   -9    5   24      0.56      0.00
   -8    5   24     -1.73      0.00
   -7    5   24      0.58      0.00
   -6    5   24     -0.21      0.00
   -5    5   24      1.25      0.00
   -4    5   24     -0.10      0.00
   -3    5   24     -0.93      0.00
   -2    5   24      2.37      0.00
   -1    5   24     -2.84      0.00
    0    5   24      3.03      0.00
    1    5   24     -2.02      0.00
    2    5   24      0.34      0.00
    3    5   24      0.07      0.00
   -8    6   24      2.12      0.00
   -7    6   24     -2.24      0.00
   -6    6   24      2.50      0.00
   -5    6   24     -1.93      0.00
   -4    6   24      1.63      0.00
   -3    6   24      0.25      0.00
   -2    6   24     -0.22      0.00
   -1    6   24     -1.28      0.00
    0    6   24      1.18      0.00
    1    6   24     -0.29      0.00
    2    6   24      0.08      0.00
   -8    7   24     -1.91      0.00
   -7    7   24      2.51      0.00
   -6    7   24      0.03      0.00
   -5    7   24     -1.87      0.00
   -4    7   24      0.56      0.00
   -3    7   24      2.98      0.00
   -2    7   24     -3.34      0.00
   -1    7   24      0.13      0.00
    0    7   24      0.66      0.00
    1    7   24      0.66      0.00
   -6    8   24     -0.60      0.00
   -5    8   24     -0.15      0.00
   -4    8   24     -0.56      0.00
   -3    8   24      1.20      0.00
   -2    8   24     -1.41      0.00
   -1    8   24      0.78      0.00
    0    8   24     -1.07      0.00
   -2   -9   25      0.18      0.00
   -1   -9   25     -1.87      0.00
    0   -9   25      2.49      0.00
    1   -9   25     -1.18      0.00
    2   -9   25      0.68      0.00
    3   -9   25     -1.49      0.00
   -4   -8   25      1.09      0.00
   -3   -8   25      0.33      0.00
   -2   -8   25     -1.11      0.00
   -1   -8   25      0.62      0.00
    0   -8   25      0.25      0.00
    1   -8   25     -0.45      0.00
    2   -8   25      0.41      0.00
    3   -8   25     -1.59      0.00
    4   -8   25      1.36      0.00
   -5   -7   25     -1.01      0.00
   -4   -7   25      0.20      0.00
   -3   -7   25      0.62      0.00
   -2   -7   25     -0.02      0.00
   -1   -7   25     -0.22      0.00
    0   -7   25     -0.31      0.00
    1   -7   25      0.67      0.00
    2   -7   25     -1.92      0.00
    3   -7   25      1.89      0.00
    4   -7   25     -1.16      0.00
    5   -7   25     -0.34      0.00
   -6   -6   25     -0.59      0.00
   -5   -6   25      1.48      0.00
   -4   -6   25     -2.42      0.00
   -3   -6   25      2.27      0.00
   -2   -6   25     -0.32      0.00
   -1   -6   25     -0.68      0.00
    0   -6   25      0.85      0.00
    1   -6   25     -2.77      0.00
    2   -6   25      3.25      0.00
    3   -6   25     -2.61      0.00
    4   -6   25      1.56      0.00
    5   -6   25     -0.75      0.00
   -6   -5   25     -0.35      0.00
   -5   -5   25      0.56      0.00
   -4   -5   25     -1.06      0.00
   -3   -5   25      1.44      0.00
   -2   -5   25     -0.28      0.00
   -1   -5   25     -0.06      0.00
    0   -5   25     -1.74      0.00
    1   -5   25      1.74      0.00
    2   -5   25     -1.06      0.00
    3   -5   25     -0.11      0.00
    4   -5   25      0.92      0.00
    5   -5   25     -0.39      0.00
   -7   -4   25      0.59      0.00
   -6   -4   25     -0.24      0.00
   -5   -4   25      0.28      0.00
   -4   -4   25     -1.24      0.00
   -3   -4   25      2.27      0.00
   -2   -4   25     -0.53      0.00
   -1   -4   25     -1.81      0.00
    0   -4   25      0.44      0.00
    1   -4   25      0.80      0.00
    2   -4   25     -0.44      0.00
    3   -4   25     -1.49      0.00
    4   -4   25      2.68      0.00
    5   -4   25     -1.54      0.00
    6   -4   25      0.72      0.00
   -7   -3   25      1.13      0.00
   -6   -3   25     -0.33      0.00
   -5   -3   25     -0.51      0.00
   -4   -3   25     -0.08      0.00
   -3   -3   25      1.63      0.00
   -2   -3   25     -0.78      0.00
   -1   -3   25     -1.92      0.00
    0   -3   25      1.33      0.00
    1   -3   25     -0.38      0.00
    2   -3   25      0.36      0.00
    3   -3   25     -0.82      0.00
    4   -3   25      0.59      0.00
    5   -3   25      1.18      0.00
    6   -3   25     -0.96      0.00
   -8   -2   25      1.13      0.00
   -7   -2   25     -1.06      0.00
   -6   -2   25      1.29      0.00
   -5   -2   25     -1.23      0.00
   -4   -2   25      0.27      0.00
   -3   -2   25      0.96      0.00
   -2   -2   25     -0.86      0.00
   -1   -2   25     -0.45      0.00
    0   -2   25     -1.46      0.00
    1   -2   25      2.83      0.00
    2   -2   25     -2.05      0.00
    3   -2   25      0.89      0.00
    4   -2   25      0.15      0.00
    5   -2   25      0.70      0.00
    6   -2   25     -0.54      0.00
   -8   -1   25      0.31      0.00
   -7   -1   25     -0.54      0.00
   -6   -1   25      0.41      0.00
   -5   -1   25      0.12      0.00
   -4   -1   25     -1.09      0.00
   -3   -1   25      1.45      0.00
   -2   -1   25     -1.45      0.00
   -1   -1   25      0.18      0.00
    0   -1   25     -0.96      0.00
    1   -1   25      1.12      0.00
    2   -1   25      0.16      0.00
    3   -1   25      0.33      0.00
    4   -1   25     -0.46      0.00
    5   -1   25      0.77      0.00
   -8    0   25      0.51      0.00
   -7    0   25      0.12      0.00
   -6    0   25     -0.82      0.00
   -5    0   25      0.58      0.00
   -4    0   25     -0.64      0.00
   -3    0   25      0.37      0.00
   -2    0   25     -1.24      0.00
   -1    0   25      0.73      0.00
    0    0   25      0.04      0.00
    1    0   25     -2.00      0.00
    2    0   25      5.05      0.00
    3    0   25     -3.19      0.00
    4    0   25     -0.16      0.00
    5    0   25      1.76      0.00
   -8    1   25     -0.38      0.00
   -7    1   25      1.84      0.00
   -6    1   25     -2.63      0.00
   -5    1   25      1.16      0.00
   -4    1   25     -0.60      0.00
   -3    1   25      0.27      0.00
   -2    1   25     -1.33      0.00
   -1    1   25      1.28      0.00
    0    1   25     -0.66      0.00
    1    1   25      0.45      0.00
    2    1   25      1.76      0.00
    3    1   25     -0.67      0.00
    4    1   25     -2.27      0.00
    5    1   25      3.65      0.00
   -8    2   25      0.72      0.00
   -7    2   25     -1.16      0.00
   -6    2   25      0.88      0.00
   -5    2   25     -1.73      0.00
   -4    2   25      1.32      0.00
   -3    2   25     -0.80      0.00
   -2    2   25     -0.36      0.00
   -1    2   25      0.12      0.00
    0    2   25      1.57      0.00
    1    2   25     -0.61      0.00
    2    2   25      0.77      0.00
    3    2   25     -0.35      0.00
    4    2   25     -0.73      0.00
   -8    3   25     -0.93      0.00
   -7    3   25     -0.44      0.00
   -6    3   25     -0.74      0.00
   -5    3   25      1.68      0.00
   -4    3   25     -1.17      0.00
   -3    3   25     -0.39      0.00
   -2    3   25      0.42      0.00
   -1    3   25     -0.20      0.00
    0    3   25      2.89      0.00
    1    3   25     -3.25      0.00
    2    3   25      2.82      0.00
    3    3   25     -1.79      0.00
    4    3   25      0.52      0.00
   -8    4   25     -0.02      0.00
   -7    4   25     -2.95      0.00
   -6    4   25      1.92      0.00
   -5    4   25      0.67      0.00
   -4    4   25     -0.55      0.00
   -3    4   25     -0.44      0.00
   -2    4   25     -0.98      0.00
   -1    4   25      4.25      0.00
    0    4   25     -4.06      0.00
    1    4   25      3.41      0.00
    2    4   25     -1.87      0.00
    3    4   25     -0.03      0.00
   -8    5   25     -1.02      0.00
   -7    5   25     -0.71      0.00
   -6    5   25     -0.08      0.00
   -5    5   25      1.98      0.00
   -4    5   25     -0.96      0.00
   -3    5   25     -0.16      0.00
   -2    5   25      0.77      0.00
   -1    5   25     -0.98      0.00
    0    5   25      2.36      0.00
    1    5   25     -1.97      0.00
    2    5   25      0.76      0.00
   -7    6   25     -2.54      0.00
   -6    6   25      1.70      0.00
   -5    6   25      0.12      0.00
   -4    6   25      0.06      0.00
   -3    6   25      0.31      0.00
   -2    6   25      0.06      0.00
   -1    6   25     -0.81      0.00
    0    6   25      0.77      0.00
    1    6   25      0.24      0.00
   -6    7   25      0.30      0.00
   -5    7   25     -1.26      0.00
   -4    7   25      0.71      0.00
   -3    7   25      1.60      0.00
   -2    7   25     -1.88      0.00
   -1    7   25     -0.07      0.00
   -2   -8   26     -0.71      0.00
   -1   -8   26      0.36      0.00
    0   -8   26      0.84      0.00
    1   -8   26     -0.85      0.00
    2   -8   26      0.75      0.00
   -3   -7   26     -0.81      0.00
   -2   -7   26      0.49      0.00
   -1   -7   26      0.36      0.00
    0   -7   26     -0.18      0.00
    1   -7   26      0.19      0.00
    2   -7   26     -1.92      0.00
    3   -7   26      2.26      0.00
   -4   -6   26     -2.58      0.00
   -3   -6   26      2.18      0.00
   -2   -6   26     -0.76      0.00
   -1   -6   26      1.20      0.00
    0   -6   26     -0.89      0.00
    1   -6   26     -1.67      0.00
    2   -6   26      1.80      0.00
    3   -6   26     -0.92      0.00
    4   -6   26      0.28      0.00
   -5   -5   26      0.90      0.00
   -4   -5   26     -1.72      0.00
   -3   -5   26      1.55      0.00
   -2   -5   26     -0.18      0.00
   -1   -5   26      1.06      0.00
    0   -5   26     -2.51      0.00
    1   -5   26      0.04      0.00
    2   -5   26      1.53      0.00
    3   -5   26     -0.99      0.00
    4   -5   26     -0.33      0.00
   -6   -4   26     -0.31      0.00
   -5   -4   26      0.04      0.00
   -4   -4   26     -0.85      0.00
   -3   -4   26      1.71      0.00
   -2   -4   26      0.46      0.00
   -1   -4   26     -1.98      0.00
    0   -4   26     -0.62      0.00
    1   -4   26      1.49      0.00
    2   -4   26     -0.71      0.00
    3   -4   26     -0.41      0.00
    4   -4   26      0.79      0.00
   -6   -3   26     -0.69      0.00
   -5   -3   26     -0.04      0.00
   -4   -3   26     -0.66      0.00
   -3   -3   26      2.35      0.00
   -2   -3   26     -0.48      0.00
   -1   -3   26     -3.04      0.00
    0   -3   26      1.65      0.00
    1   -3   26     -0.26      0.00
    2   -3   26      0.81      0.00
    3   -3   26     -1.73      0.00
    4   -3   26      1.04      0.00
   -7   -2   26     -0.10      0.00
   -6   -2   26      0.86      0.00
   -5   -2   26     -1.56      0.00
   -4   -2   26      0.98      0.00
   -3   -2   26      0.95      0.00
   -2   -2   26     -0.90      0.00
   -1   -2   26     -1.11      0.00
    0   -2   26     -1.27      0.00
    1   -2   26      3.46      0.00
    2   -2   26     -2.84      0.00
    3   -2   26      0.99      0.00
    4   -2   26     -0.14      0.00
   -7   -1   26     -0.73      0.00
   -6   -1   26      0.43      0.00
   -5   -1   26      0.16      0.00
   -4   -1   26     -1.01      0.00
   -3   -1   26      1.84      0.00
   -2   -1   26     -1.66      0.00
   -1   -1   26     -0.54      0.00
    0   -1   26     -0.49      0.00
    1   -1   26      1.41      0.00
    2   -1   26     -0.83      0.00
    3   -1   26      0.64      0.00
    4   -1   26     -0.16      0.00
   -7    0   26     -0.36      0.00
   -6    0   26     -0.01      0.00
   -5    0   26     -0.15      0.00
   -4    0   26      0.01      0.00
   -3    0   26      0.12      0.00
   -2    0   26     -1.10      0.00
   -1    0   26      0.50      0.00
    0    0   26     -0.70      0.00
    1    0   26     -1.05      0.00
    2    0   26      4.34      0.00
    3    0   26     -3.75      0.00
    4    0   26      1.48      0.00
   -7    1   26      1.78      0.00
   -6    1   26     -2.95      0.00
   -5    1   26      1.69      0.00
   -4    1   26     -0.76      0.00
   -3    1   26     -0.43      0.00
   -2    1   26      0.32      0.00
   -1    1   26     -0.91      0.00
    0    1   26      0.36      0.00
    1    1   26     -0.07      0.00
    2    1   26      2.16      0.00
    3    1   26     -1.58      0.00
    4    1   26     -0.49      0.00
   -7    2   26     -0.61      0.00
   -6    2   26      0.77      0.00
   -5    2   26     -2.41      0.00
   -4    2   26      1.96      0.00
   -3    2   26     -1.35      0.00
   -2    2   26      0.27      0.00
   -1    2   26     -0.81      0.00
    0    2   26      1.55      0.00
    1    2   26     -0.08      0.00
    2    2   26     -0.16      0.00
    3    2   26      0.73      0.00
   -7    3   26     -1.14      0.00
   -6    3   26      1.14      0.00
   -5    3   26     -1.17      0.00
   -4    3   26      0.16      0.00
   -3    3   26     -0.04      0.00
   -2    3   26     -0.41      0.00
   -1    3   26     -0.06      0.00
    0    3   26      2.78      0.00
    1    3   26     -3.36      0.00
    2    3   26      2.92      0.00
   -7    4   26     -1.49      0.00
   -6    4   26      0.36      0.00
   -5    4   26      0.87      0.00
   -4    4   26     -0.33      0.00
   -3    4   26     -1.38      0.00
   -2    4   26      1.09      0.00
   -1    4   26      1.37      0.00
    0    4   26     -1.85      0.00
    1    4   26      1.94      0.00
    2    4   26     -0.78      0.00
   -6    5   26     -0.41      0.00
   -5    5   26      1.95      0.00
   -4    5   26     -1.02      0.00
   -3    5   26      0.06      0.00
   -2    5   26      0.10      0.00
   -1    5   26      0.18      0.00
    0    5   26      0.87      0.00
   -5    6   26      1.16      0.00
   -4    6   26     -0.16      0.00
   -3    6   26     -0.08      0.00
   -2    6   26      0.10      0.00
   -1    6   26     -0.34      0.00
   -2   -6   27     -0.70      0.00
   -1   -6   27      1.82      0.00
    0   -6   27     -0.91      0.00
    1   -6   27     -0.64      0.00
    2   -6   27     -0.76      0.00
   -4   -5   27     -1.84      0.00
   -3   -5   27      0.99      0.00
   -2   -5   27     -0.32      0.00
   -1   -5   27      2.73      0.00
    0   -5   27     -3.28      0.00
    1   -5   27     -0.53      0.00
    2   -5   27      1.92      0.00
   -4   -4   27     -0.33      0.00
   -3   -4   27      0.39      0.00
   -2   -4   27      1.26      0.00
   -1   -4   27     -0.50      0.00
    0   -4   27     -2.09      0.00
    1   -4   27      0.93      0.00
    2   -4   27      0.12      0.00
    3   -4   27      0.22      0.00
   -5   -3   27     -0.44      0.00
   -4   -3   27     -0.49      0.00
   -3   -3   27      2.20      0.00
   -2   -3   27     -0.04      0.00
   -1   -3   27     -2.61      0.00
    0   -3   27      0.57      0.00
    1   -3   27      0.14      0.00
    2   -3   27      0.80      0.00
    3   -3   27     -1.62      0.00
   -6   -2   27      0.61      0.00
   -5   -2   27     -1.49      0.00
   -4   -2   27      1.11      0.00
   -3   -2   27      1.05      0.00
   -2   -2   27     -0.36      0.00
   -1   -2   27     -2.31      0.00
    0   -2   27     -0.25      0.00
    1   -2   27      2.70      0.00
    2   -2   27     -2.48      0.00
    3   -2   27      0.82      0.00
   -6   -1   27     -0.01      0.00
   -5   -1   27      0.49      0.00
   -4   -1   27     -0.82      0.00
   -3   -1   27      1.96      0.00
   -2   -1   27     -1.56      0.00
   -1   -1   27     -1.53      0.00
    0   -1   27      0.64      0.00
    1   -1   27      0.73      0.00
    2   -1   27     -1.04      0.00
    3   -1   27      1.03      0.00
   -6    0   27      0.97      0.00
   -5    0   27     -1.00      0.00
   -4    0   27      1.15      0.00
   -3    0   27     -0.78      0.00
   -2    0   27     -0.29      0.00
   -1    0   27     -0.44      0.00
    0    0   27     -0.66      0.00
    1    0   27     -0.31      0.00
    2    0   27      3.09      0.00
    3    0   27     -3.25      0.00
   -6    1   27     -1.62      0.00
   -5    1   27      0.90      0.00
   -4    1   27     -0.02      0.00
   -3    1   27     -1.29      0.00
   -2    1   27      1.33      0.00
   -1    1   27     -2.01      0.00
    0    1   27      0.41      0.00
    1    1   27      0.20      0.00
    2    1   27      1.98      0.00
   -6    2   27     -0.28      0.00
   -5    2   27     -1.05      0.00
   -4    2   27      1.21      0.00
   -3    2   27     -1.82      0.00
   -2    2   27      1.32      0.00
   -1    2   27     -1.79      0.00
    0    2   27      1.34      0.00
    1    2   27      0.32      0.00
   -5    3   27     -2.63      0.00
   -4    3   27      0.77      0.00
   -3    3   27      0.00      0.00
   -2    3   27     -0.90      0.00
   -1    3   27      0.63      0.00
    0    3   27      1.22      0.00
    1    3   27     -1.65      0.00
   -5    4   27      0.07      0.00
   -4    4   27     -0.15      0.00
   -3    4   27     -1.60      0.00
   -2    4   27      2.35      0.00
   -1    4   27     -0.95      0.00
   -2   -4   28      1.15      0.00
   -1   -4   28      1.11      0.00
    0   -4   28     -2.34      0.00
   -3   -3   28      0.94      0.00
   -2   -3   28      0.44      0.00
   -1   -3   28     -0.81      0.00
    0   -3   28     -1.14      0.00
    1   -3   28      0.50      0.00
   -4   -2   28      0.82      0.00
   -3   -2   28      0.98      0.00
   -2   -2   28      0.37      0.00
   -1   -2   28     -2.69      0.00
    0   -2   28      0.32      0.00
    1   -2   28      1.53      0.00
   -4   -1   28     -0.50      0.00
   -3   -1   28      1.82      0.00
   -2   -1   28     -1.24      0.00
   -1   -1   28     -1.89      0.00
    0   -1   28      1.11      0.00
    1   -1   28      0.07      0.00
   -4    0   28      1.67      0.00
   -3    0   28     -1.24      0.00
   -2    0   28      0.47      0.00
   -1    0   28     -1.55      0.00
    0    0   28      0.09      0.00
   -4    1   28      0.96      0.00
   -3    1   28     -1.46      0.00
   -2    1   28      1.21      0.00
   -1    1   28     -2.22      0.00
    0    1   28      0.36      0.00
   -3    2   28     -1.84      0.00
   -2    2   28      1.58      0.00
    1    0    0   -199.19      0.00
    0    1    0     34.35      0.00
   13    6    0      0.14      0.00
  -15   10    0     -1.26      0.00
  -13   14    0      1.67      0.00
  -11   16    0     -0.92      0.00
    4   16    0     -1.56      0.00
    2   17    0      1.06      0.00
   -7   18    0      0.92      0.00
   -1   18    0      0.81      0.00
    7  -18    1      2.02      0.00
   -2  -17    1     -0.04      0.00
   -4  -16    1     -1.20      0.00
   11  -16    1      0.30      0.00
   13  -14    1      0.60      0.00
    1  -10    1     -2.27      0.00
   15  -10    1      0.07      0.00
  -13   -6    1     -0.35      0.00
  -14   -4    1     -3.09      0.00
   -6   -3    1     -0.66      0.00
    0   -2    1      8.30      0.00
  -15   -1    1     -1.04      0.00
    0   -1    1    -27.67      0.00
   -1    0    1   -151.89      0.00
    0    0    1    224.24      0.00
    1    0    1   -139.20      0.00
    0    1    1     94.55      0.00
  -15   10    1     -1.52      0.00
  -13   14    1      2.12      0.00
  -11   16    1     -1.72      0.00
    2   17    1      0.73      0.00
   -7   18    1      0.30      0.00
   -1   18    1      0.46      0.00
    7  -18    2      2.73      0.00
   -4  -16    2     -0.47      0.00
   11  -16    2      0.97      0.00
   12  -15    2     -0.61      0.00
   13  -14    2     -0.43      0.00
   -8  -13    2     -0.13      0.00
    4  -13    2     -2.08      0.00
   -9  -12    2      0.04      0.00
  -12   -8    2      0.96      0.00
   -2   -7    2      2.02      0.00
    1   -5    2     -4.07      0.00
  -14   -4    2     -1.95      0.00
    4   -3    2     -0.91      0.00
  -15   -1    2     -2.50      0.00
   15    0    2      1.57      0.00
    3    2    2     27.20      0.00
   11    9    2     -0.31      0.00
  -15   10    2     -1.26      0.00
  -13   14    2      1.57      0.00
  -11   16    2     -0.92      0.00
   -7   18    2      0.11      0.00
    7  -18    3      2.05      0.00
   -4  -16    3     -0.03      0.00
   11  -16    3      1.42      0.00
   12  -15    3     -0.72      0.00
   -8  -13    3      0.25      0.00
   -9  -12    3      1.13      0.00
   14  -12    3     -1.19      0.00
    1  -10    3     -0.28      0.00
   15   -9    3     -0.03      0.00
  -12   -8    3      1.86      0.00
   -2   -6    3      1.09      0.00
  -14   -4    3     -0.22      0.00
   -1   -4    3     -2.17      0.00
  -15   -1    3     -2.30      0.00
   14    3    3     -0.79      0.00
  -15   10    3     -0.90      0.00
  -13   14    3      0.59      0.00
  -12   15    3      0.37      0.00
    5   15    3     -0.22      0.00
  -11   16    3      0.62      0.00
   -6   18    3     -0.07      0.00
   -2   18    3      0.74      0.00
    1  -18    4     -0.84      0.00
    7  -18    4      0.43      0.00
   -2  -17    4      0.72      0.00
   -4  -16    4      0.21      0.00
   -8  -13    4      0.56      0.00
   -9  -12    4      1.13      0.00
  -12   -8    4      2.93      0.00
  -14   -4    4      0.51      0.00
  -15   -1    4     -0.71      0.00
   15   -1    4      0.96      0.00
   13    5    4     -2.61      0.00
   12    7    4     -1.07      0.00
  -15   10    4     -0.47      0.00
   10   10    4      1.05      0.00
  -13   14    4      0.06      0.00
    6   14    4     -0.48      0.00
  -12   15    4      0.41      0.00
    3   16    4     -0.84      0.00
   -9   17    4     -1.12      0.00
    1   17    4     -0.10      0.00
   -6   18    4     -0.75      0.00
   -5   18    4     -0.48      0.00
   -4   18    4      1.95      0.00
   -3   18    4     -1.04      0.00
    1  -18    5     -0.58      0.00
   -2  -17    5      1.37      0.00
    9  -17    5      0.37      0.00
   -4  -16    5      0.98      0.00
   -8  -13    5      0.07      0.00
   -9  -12    5      0.26      0.00
  -12   -8    5      3.26      0.00
   15   -8    5     -1.18      0.00
   -1   -6    5      3.56      0.00
  -14   -4    5     -0.18      0.00
   15   -2    5      2.85      0.00
  -15   -1    5      0.02      0.00
   14    2    5      0.25      0.00
  -15   10    5     -0.34      0.00
    9   11    5     -0.41      0.00
    8   12    5     -2.58      0.00
    7   13    5     -1.11      0.00
  -12   15    5      0.44      0.00
   -9   17    5     -0.45      0.00
   -5   18    5     -0.09      0.00
   -4   18    5      1.29      0.00
    1  -18    6     -0.24      0.00
    6  -18    6      0.66      0.00
   -2  -17    6      0.81      0.00
    9  -17    6      0.40      0.00
   -4  -16    6      1.98      0.00
   13  -13    6     -0.13      0.00
   14  -11    6      0.08      0.00
  -12   -8    6      1.98      0.00
   15   -7    6      0.43      0.00
   15   -6    6     -0.99      0.00
   15   -5    6     -3.15      0.00
  -14   -4    6     -1.54      0.00
   15   -4    6     -1.56      0.00
   15   -3    6      0.13      0.00
    3   -2    6    -11.49      0.00
  -15   -1    6     -1.18      0.00
   11    8    6      0.69      0.00
  -14   12    6      0.61      0.00
    0   17    6     -1.97      0.00
    2  -18    7      0.34      0.00
    5  -18    7     -0.47      0.00
   10  -16    7      1.27      0.00
  -13   -6    7      0.67      0.00
   -5   -3    7      1.43      0.00
    0   -3    7    -15.86      0.00
    2   -2    7      9.09      0.00
   -1    0    7      3.62      0.00
   14    1    7     -1.70      0.00
    2    6    7      0.87      0.00
   12    6    7      0.08      0.00
  -15    9    7     -0.97      0.00
  -10   16    7      0.23      0.00
    2   16    7      0.23      0.00
   -8   17    7      0.24      0.00
    3  -18    8     -0.20      0.00
    4  -18    8      0.39      0.00
    8  -17    8     -0.54      0.00
   11  -15    8      0.69      0.00
   14  -10    8     -0.54      0.00
  -13   -6    8     -1.11      0.00
   14    0    8      0.39      0.00
  -15    9    8     -0.92      0.00
    9   10    8      0.16      0.00
  -13   13    8     -1.01      0.00
    5   14    8     -1.63      0.00
   -1  -17    9      0.93      0.00
   -5  -15    9     -2.68      0.00
  -11   -9    9      0.09      0.00
   14   -9    9      0.81      0.00
   -2   -5    9      2.15      0.00
   -4   -2    9      0.26      0.00
   14   -1    9      0.71      0.00
  -15    0    9     -3.17      0.00
   12    5    9     -1.25      0.00
  -15    8    9     -0.53      0.00
  -14   11    9     -0.88      0.00
    7   12    9     -2.25      0.00
  -12   14    9     -0.67      0.00
  -11   15    9      0.39      0.00
    3   15    9      0.48      0.00
    1   16    9      1.20      0.00
   -6   17    9     -0.12      0.00
   -3   17    9     -0.21      0.00
    7  -17   10     -0.68      0.00
   -3  -16   10      0.51      0.00
    9  -16   10      0.80      0.00
   12  -13   10      0.90      0.00
   13  -11   10      0.01      0.00
  -11   -9   10     -0.65      0.00
   14   -8   10      1.51      0.00
   14   -7   10      1.22      0.00
   -2   -6   10      1.04      0.00
   -4   -5   10      0.98      0.00
  -14   -3   10     -3.01      0.00
   14   -2   10     -0.74      0.00
  -15    1   10     -3.93      0.00
   13    2   10      0.00      0.00
   10    8   10      0.26      0.00
    4   14   10      0.62      0.00
    0   16   10     -0.87      0.00
    0  -17   11      0.28      0.00
    6  -17   11      1.33      0.00
   10  -15   11      0.77      0.00
   -6  -14   11      1.74      0.00
   11  -14   11      1.43      0.00
  -10  -10   11     -0.73      0.00
  -12   -7   11      0.15      0.00
   -4   -6   11     -0.29      0.00
  -13   -5   11      1.24      0.00
    1   -5   11     -2.59      0.00
   -4   -4   11     -1.38      0.00
   13    1   11     -1.55      0.00
  -15    2   11     -1.26      0.00
    1    5   11      1.12      0.00
  -15    6   11     -0.69      0.00
    9    9   11      1.25      0.00
  -14   10   11      0.17      0.00
  -13   12   11     -0.09      0.00
    5   13   11      0.65      0.00
  -10   15   11     -1.34      0.00
   -8   16   11     -0.29      0.00
    1  -17   12     -0.37      0.00
    5  -17   12     -0.79      0.00
    8  -16   12     -0.96      0.00
   -7  -13   12      1.43      0.00
   -8  -12   12     -0.34      0.00
   12  -12   12     -0.40      0.00
   -9  -11   12     -0.72      0.00
    1   -6   12      1.70      0.00
    1   -4   12     -2.61      0.00
    2   -3   12      3.97      0.00
  -14   -2   12      0.23      0.00
   13    0   12      0.43      0.00
  -15    3   12     -0.96      0.00
   12    3   12      0.32      0.00
  -15    4   12     -2.24      0.00
   10    7   12      1.04      0.00
  -12   13   12     -1.15      0.00
  -11   14   12      0.73      0.00
    3   14   12      1.20      0.00
    1   15   12      0.33      0.00
   -7   16   12     -0.35      0.00
   -2   16   12      0.81      0.00
    3  -17   13     -0.19      0.00
    7  -16   13      0.13      0.00
    9  -15   13      0.18      0.00
   10  -14   13     -0.03      0.00
   12  -11   13     -1.11      0.00
  -11   -8   13      2.00      0.00
   13   -8   13     -0.48      0.00
   12    2   13     -0.07      0.00
    9    8   13     -1.23      0.00
  -13   11   13     -0.59      0.00
    4   13   13      0.25      0.00
    0   15   13      0.35      0.00
   -4   16   13     -1.17      0.00
   -1  -16   14     -0.84      0.00
    6  -16   14     -1.05      0.00
   -5  -14   14     -0.13      0.00
   11  -12   14      1.25      0.00
   12  -10   14     -2.09      0.00
  -12   -6   14     -1.62      0.00
    2   -5   14     -2.18      0.00
   13   -5   14      0.68      0.00
   13   -4   14      1.95      0.00
   12    1   14      0.85      0.00
  -14    8   14      1.92      0.00
  -12   12   14     -0.75      0.00
  -11   13   14      1.44      0.00
   -1   15   14     -1.68      0.00
    0  -16   15      0.93      0.00
    5  -16   15      2.23      0.00
    9  -14   15      0.28      0.00
   -6  -13   15      1.22      0.00
   10  -13   15     -0.80      0.00
   -7  -12   15      2.11      0.00
   -9  -10   15     -0.09      0.00
   12   -9   15     -0.18      0.00
  -13   -3   15     -0.03      0.00
   12    0   15     -0.39      0.00
  -14    1   15     -0.87      0.00
   11    3   15     -2.13      0.00
   10    5   15     -0.42      0.00
  -14    6   15      0.04      0.00
    8    8   15     -0.47      0.00
    4   12   15      0.95      0.00
   -9   14   15      0.91      0.00
   -6   15   15      0.70      0.00
   -3   15   15     -0.48      0.00
   -2  -15   16      0.49      0.00
   -4  -14   16     -1.35      0.00
    8  -14   16      1.60      0.00
   10  -12   16     -1.53      0.00
   12   -7   16     -1.17      0.00
  -12   -5   16     -1.97      0.00
   12   -3   16     -1.35      0.00
   12   -2   16     -1.33      0.00
  -14    3   16     -0.11      0.00
  -14    4   16     -0.34      0.00
   10    4   16      0.65      0.00
    9    6   16      0.10      0.00
   -8   14   16     -0.42      0.00
   -1  -15   17     -0.28      0.00
    5  -15   17      1.48      0.00
   -3  -14   17      0.58      0.00
   -5  -13   17     -1.21      0.00
   11   -9   17      0.96      0.00
  -12   -4   17     -0.76      0.00
  -13   -1   17      0.93      0.00
   10    3   17      1.34      0.00
    9    5   17     -0.71      0.00
    7    8   17     -0.61      0.00
    4   11   17     -1.64      0.00
   -9   13   17      1.66      0.00
   -6   14   17      0.34      0.00
   -2   14   17     -1.90      0.00
    1  -15   18     -1.47      0.00
    2  -15   18      0.94      0.00
    3  -15   18     -1.50      0.00
   10  -10   18      1.98      0.00
   11   -7   18      0.48      0.00
   11   -2   18      0.92      0.00
  -13    0   18     -1.79      0.00
   10    2   18     -1.35      0.00
  -13    6   18     -1.11      0.00
    8    6   18     -0.57      0.00
  -12    9   18      0.70      0.00
   -1  -14   19     -0.54      0.00
    5  -14   19      1.50      0.00
    7  -13   19      0.84      0.00
   -5  -12   19      1.55      0.00
    8  -12   19     -1.28      0.00
   10   -9   19      0.18      0.00
   -9   -8   19     -0.99      0.00
  -12   -2   19     -0.55      0.00
    9    3   19      0.51      0.00
    8    5   19      1.14      0.00
   -5   13   19      1.20      0.00
   -4   13   19     -1.12      0.00
   -3   13   19     -0.68      0.00
    1  -14   20      0.12      0.00
    2  -14   20      0.27      0.00
    3  -14   20     -0.39      0.00
    7  -12   20     -0.34      0.00
    8  -11   20     -2.54      0.00
   10   -6   20     -1.07      0.00
  -11   -4   20      0.83      0.00
   10   -3   20     -0.93      0.00
   10   -2   20     -0.89      0.00
  -12   -1   20     -0.84      0.00
    8    4   20      1.76      0.00
  -12    6   20     -0.31      0.00
    6    7   20      0.09      0.00
    5    8   20      2.96      0.00
    4    9   20     -0.55      0.00
    1   11   20      1.20      0.00
   -7   12   20     -1.48      0.00
   -1   12   20      2.03      0.00
   -1  -13   21     -0.49      0.00
    4  -13   21     -1.24      0.00
   -3  -12   21      0.48      0.00
    6  -12   21      1.18      0.00
   -5  -11   21      1.79      0.00
    7  -11   21      1.74      0.00
   -6  -10   21     -1.74      0.00
    8  -10   21     -1.27      0.00
   -7   -9   21      0.72      0.00
   -8   -8   21     -0.84      0.00
    9   -8   21      0.59      0.00
  -10   -5   21      1.15      0.00
    9    0   21      0.23      0.00
    6    6   21     -0.54      0.00
  -11    7   21     -0.61      0.00
    3    9   21      1.56      0.00
   -9   10   21      0.75      0.00
   -7   11   21     -0.28      0.00
   -2  -12   22     -0.77      0.00
   -4  -11   22     -0.38      0.00
    6  -11   22      0.00      0.00
    7  -10   22      1.93      0.00
    8   -8   22      0.01      0.00
   -8   -7   22     -1.40      0.00
  -11   -1   22      0.96      0.00
  -11    0   22      1.46      0.00
    8    1   22     -1.56      0.00
    7    3   22      2.00      0.00
  -11    5   22      1.37      0.00
    6    5   22     -2.38      0.00
    2    9   22     -2.87      0.00
    0   10   22     -1.46      0.00
   -5   11   22     -0.32      0.00
   -4   11   22      0.38      0.00
   -3   11   22      0.45      0.00
   -4  -10   23     -0.63      0.00
    6  -10   23     -1.33      0.00
   -8   -6   23     -0.96      0.00
    8   -6   23      0.64      0.00
    8   -5   23     -0.03      0.00
    8   -4   23      1.63      0.00
    8   -3   23      0.32      0.00
  -10   -2   23      2.01      0.00
    8   -2   23      1.78      0.00
    5    5   23      1.78      0.00
  -10    6   23     -0.51      0.00
    2    8   23      0.18      0.00
   -5   10   23      0.92      0.00
   -4   10   23     -3.38      0.00
   -3   10   23      2.88      0.00
   -2   10   23     -1.16      0.00
    0  -11   24      0.40      0.00
    1  -11   24      0.29      0.00
    2  -11   24     -0.43      0.00
   -3  -10   24      1.96      0.00
    4  -10   24     -2.29      0.00
    6   -8   24      2.14      0.00
    7   -6   24     -0.74      0.00
   -8   -5   24     -0.68      0.00
   -9   -3   24     -0.02      0.00
    7   -1   24     -1.37      0.00
  -10    1   24      0.27      0.00
  -10    2   24     -0.94      0.00
    6    2   24      0.06      0.00
    4    5   24     -0.24      0.00
   -9    6   24     -1.21      0.00
    3    6   24      0.01      0.00
    2    7   24     -0.71      0.00
   -7    8   24      0.82      0.00
   -5    9   24     -0.92      0.00
   -4    9   24      0.00      0.00
   -3    9   24     -0.57      0.00
   -2    9   24      0.30      0.00
    0  -10   25     -0.79      0.00
    1  -10   25      1.71      0.00
   -3   -9   25      0.34      0.00
    4   -9   25      0.28      0.00
    5   -8   25     -1.36      0.00
    6   -6   25      0.39      0.00
   -7   -5   25      0.28      0.00
    6   -5   25     -0.37      0.00
   -8   -3   25     -0.57      0.00
    6   -1   25     -0.04      0.00
   -9    0   25     -0.48      0.00
   -9    1   25     -0.37      0.00
   -9    2   25     -0.42      0.00
    5    2   25      1.51      0.00
   -9    3   25      1.07      0.00
    0    7   25      0.47      0.00
   -5    8   25     -0.80      0.00
   -4    8   25     -0.18      0.00
   -3    8   25      1.14      0.00
   -2    8   25     -1.17      0.00
    3   -8   26     -1.71      0.00
   -4   -7   26      0.82      0.00
    4   -7   26     -1.68      0.00
   -5   -6   26      1.16      0.00
   -6   -5   26     -0.29      0.00
    5   -5   26      0.84      0.00
    5   -4   26     -1.05      0.00
   -7   -3   26      1.20      0.00
    5   -3   26      0.01      0.00
    5   -2   26      0.94      0.00
    5   -1   26      0.42      0.00
   -8    0   26      0.38      0.00
   -8    1   26     -0.10      0.00
   -8    2   26      0.75      0.00
    3    3   26     -1.14      0.00
   -7    5   26     -1.03      0.00
    1    5   26     -0.88      0.00
   -6    6   26      0.28      0.00
    0    6   26      0.54      0.00
   -2   -7   27      0.38      0.00
   -1   -7   27      0.28      0.00
    0   -7   27      0.80      0.00
    1   -7   27     -0.86      0.00
   -3   -6   27      1.03      0.00
    3   -5   27     -1.00      0.00
   -5   -4   27     -0.08      0.00
   -6   -3   27     -0.12      0.00
    3    1   27     -2.36      0.00
    2    2   27     -0.43      0.00
   -6    3   27      2.16      0.00
    0    4   27      0.31      0.00
   -4    5   27     -0.70      0.00
   -3    5   27     -0.15      0.00
   -2    5   27      0.54      0.00
   -2   -5   28     -0.37      0.00
   -1   -5   28      2.77      0.00
    0   -5   28     -2.30      0.00
   -3   -4   28     -0.47      0.00
    1   -4   28     -0.20      0.00
   -4   -3   28      0.17      0.00
    2   -3   28      0.39      0.00
    2   -2   28     -1.73      0.00
   -5   -1   28      0.66      0.00
   -5    0   28     -0.95      0.00
    1    0   28     -0.35      0.00
   -5    1   28     -0.42      0.00
    1    1   28      0.44      0.00
   -4    2   28      0.49      0.00
   -1    2   28     -2.08      0.00
    0    2   28      0.96      0.00
   -3    3   28     -0.62      0.00
   -2    3   28     -0.38      0.00
    0    0    0      0.00      0.00
# SQUEEZE RESULTS (Version =  21116)
# Note: Data are Listed for all Voids in the P1 Unit Cell
# i.e. Centre of Gravity, Solvent Accessible Volume,
# Recovered number of Electrons in the Void and
# Details about the Squeezed Material
loop_
  _platon_squeeze_void_nr
  _platon_squeeze_void_average_x
  _platon_squeeze_void_average_y
  _platon_squeeze_void_average_z
  _platon_squeeze_void_volume
  _platon_squeeze_void_count_electrons
  _platon_squeeze_void_content
   1  0.500  0.134  1.000      1020       289 ' '
# Missing Reflections Below sin(th)/lambda = 0.25
loop_
  _platon_missing_refln_index_h
  _platon_missing_refln_index_k
  _platon_missing_refln_index_l
  _platon_missing_refln_theta
    1    0    0     1.565
    0    1    0     1.336
    0   -2    1     2.729
    0   -1    1     1.512
   -1    0    1     1.683
    0    0    1     0.836
    1    0    1     1.861
    0    1    1     1.638
    1   -5    2     6.571
    4   -3    2     6.803
    3    2    2     6.441
   -2   -6    3     9.434
   -1   -4    3     6.210
   -1   -6    5     9.167
    3   -2    6     7.157
    0   -3    7     6.808
    2   -2    7     6.972
   -1    0    7     5.882
   -4   -2    9     9.892
_platon_squeeze_void_probe_radius                  1.20
_platon_squeeze_details
)
TITL aaa       P -1         R = 0.09
CELL   13.5628   15.8310   24.5816     93.41     95.78    104.91
SPGR P-1
# Solvent Accessible Volume =      1023
# Electrons Found in S.A.V. =       285
# Note: Atoms in Void as Cxxx and Qxxx all others
C101 0.413 0.665 0.205 !       1.85 eA-3
C102 0.463 0.655 0.163 !       1.80 eA-3
C103 0.643 0.866 0.196 !       1.75 eA-3
C104 0.775 0.909 0.110 !       1.70 eA-3
C105 0.591 0.111 0.058 !       1.66 eA-3
C106 0.575 0.136 0.106 !       1.50 eA-3
C107 0.503 0.649 0.077 !       1.48 eA-3
C108 0.474 0.541 0.174 !       1.38 eA-3
C109 0.533 0.529 0.165 !       1.36 eA-3
C110 0.452 0.579 0.159 !       1.35 eA-3
C111 0.426 0.263 0.023 !       1.29 eA-3
C112 0.450 0.906 0.147 !       1.26 eA-3
C113 0.483 0.693 0.111 !       1.25 eA-3
Q114 0.345 0.376 0.051 !       1.20 eA-3
C115 0.471 0.423 0.102 !       1.17 eA-3
C116 0.635 0.124 0.002 !       1.15 eA-3
C117 0.501 0.531 0.116 !       1.14 eA-3
Q118 0.470 0.355 0.129 !       1.14 eA-3
C119 0.290 0.973 0.064 !       1.13 eA-3
C120 0.617 0.643 0.176 !       1.11 eA-3
C121 0.346 0.330 0.048 !       1.11 eA-3
C122 0.418 0.802 0.167 !       1.10 eA-3
C123 0.390 0.853 0.020 !       1.10 eA-3
C124 0.359 0.181 0.009 !       1.06 eA-3
C125 0.307 0.123 0.005 !       1.03 eA-3
C126 0.476 0.596 0.081 !       1.03 eA-3
C127 0.475 0.472 0.000 !       1.02 eA-3
C128 0.485 0.497 0.029 !       1.00 eA-3
C129 0.423 0.458 0.040 !       0.97 eA-3
C130 0.548 0.618 0.197 !       0.96 eA-3
Q131 0.694 0.317 0.084 !       0.95 eA-3
Q132 0.310 0.062 0.210 !       0.94 eA-3
C133 0.365 0.608 0.206 !       0.93 eA-3
C134 0.456 0.544 0.061 !       0.93 eA-3
C135 0.611 0.019 0.112 !       0.92 eA-3
C136 0.550 0.126 0.020 !       0.91 eA-3
C137 0.476 0.780 0.172 !       0.91 eA-3
C138 0.444 0.314 0.037 !       0.89 eA-3
Q139 0.701 0.265 0.179 !       0.89 eA-3
Q140 0.896 0.966 0.061 !       0.88 eA-3
C141 0.542 0.060 0.119 !       0.88 eA-3
Q142 0.854 0.090 0.268 !       0.86 eA-3
Q143 0.725 0.076 0.030 !       0.84 eA-3
C144 0.598 0.763 0.012 !       0.83 eA-3
Q145 0.640 0.222 0.155 !       0.83 eA-3
Q146 0.667 0.299 0.141 !       0.81 eA-3
C147 0.564 0.816 0.194 !       0.81 eA-3
C148 0.375 0.925 0.124 !       0.80 eA-3
C149 0.375 0.908 0.046 !       0.80 eA-3
C150 0.449 0.489 0.094 !       0.78 eA-3
Q151 0.976 0.855 0.023 !       0.78 eA-3
C152 0.607 0.709 0.205 !       0.78 eA-3
Q153 0.061 0.044 0.090 !       0.78 eA-3
C154 0.662 0.861 0.157 !       0.78 eA-3
Q155 0.402 0.452 0.155 !       0.77 eA-3
Q156 0.249 0.910 0.023 !       0.77 eA-3
Q157 0.595 0.358 0.242 !       0.76 eA-3
Q158 0.204 0.972 0.072 !       0.75 eA-3
C159 0.436 0.854 0.067 !       0.74 eA-3
C160 0.335 0.045 0.056 !       0.73 eA-3
Q161 0.025 0.857 0.025 !       0.73 eA-3
Q162 0.053 0.926 0.041 !       0.72 eA-3
Q163 0.611 0.044 0.327 !       0.71 eA-3
Q164 0.259 0.418 0.007 !       0.70 eA-3
C165 0.671 0.053 0.111 !       0.70 eA-3
Q166 0.921 0.565 0.036 !       0.70 eA-3
C167 0.393 0.062 0.051 !       0.69 eA-3
C168 0.493 0.136 0.046 !       0.69 eA-3
Q169 0.970 0.979 0.084 !       0.68 eA-3
C170 0.525 0.880 0.171 !       0.67 eA-3
Q171 0.749 0.234 0.066 !       0.67 eA-3
Q172 0.082 0.215 0.079 !       0.66 eA-3
C173 0.467 0.778 0.078 !       0.66 eA-3
Q174 0.247 0.229 0.053 !       0.66 eA-3
C175 0.540 0.636 0.108 !       0.66 eA-3
C176 0.546 0.744 0.195 !       0.65 eA-3
Q177 0.287 0.125 0.233 !       0.65 eA-3
C178 0.467 0.859 0.101 !       0.65 eA-3
C179 0.533 0.781 0.094 !       0.64 eA-3
Q180 0.767 0.046 0.193 !       0.64 eA-3
C181 0.348 0.272 0.008 !       0.63 eA-3
Q182 0.997 0.122 0.008 !       0.63 eA-3
Q183 0.754 0.283 0.068 !       0.62 eA-3
Q184 0.921 0.140 0.346 !       0.62 eA-3
Q185 0.075 0.116 0.310 !       0.62 eA-3
Q186 0.142 0.967 0.071 !       0.62 eA-3
Q187 0.199 0.671 0.077 !       0.60 eA-3
Q188 0.119 0.139 0.113 !       0.60 eA-3
Q189 0.341 0.706 0.127 !       0.60 eA-3
Q190 0.780 0.261 0.017 !       0.60 eA-3
C191 0.322 0.064 0.023 !       0.60 eA-3
Q192 0.765 0.087 0.244 !       0.60 eA-3
Q193 0.236 0.158 0.029 !       0.59 eA-3
Q194 0.642 0.411 0.161 !       0.59 eA-3
C195 0.550 0.204 0.019 !       0.59 eA-3
C196 0.719 0.026 0.097 !       0.59 eA-3
Q197 0.252 0.652 0.023 !       0.59 eA-3
Q198 0.190 0.221 0.037 !       0.59 eA-3
Q199 0.564 0.965 0.349 !       0.58 eA-3
)
;
_shelx_fab_checksum              75014
loop_
_space_group_symop_operation_xyz
'x, y, z'
'-x, -y, -z'
loop_
_atom_site_label
_atom_site_type_symbol
_atom_site_fract_x
_atom_site_fract_y
_atom_site_fract_z
_atom_site_U_iso_or_equiv
_atom_site_adp_type
_atom_site_occupancy
_atom_site_site_symmetry_order
_atom_site_calc_flag
_atom_site_refinement_flags_posn
_atom_site_refinement_flags_adp
_atom_site_refinement_flags_occupancy
_atom_site_disorder_assembly
_atom_site_disorder_group
Zn1 Zn 0.11682(4) 0.14770(3) 0.34408(2) 0.02661(17) Uani 1 1 d . U . . .
Zn2 Zn 0.34123(5) 0.65333(4) -0.25064(2) 0.03407(18) Uani 1 1 d . U . . .
S1 S 0.76152(10) 0.57182(8) 0.47238(6) 0.0323(3) Uani 1 1 d . U . . .
O1 O 0.4322(3) 0.5798(2) -0.26623(16) 0.0477(10) Uani 1 1 d . U . . .
O2 O 0.5809(3) 0.6716(2) -0.28212(16) 0.0504(10) Uani 1 1 d . U . . .
O3 O 0.9096(3) 0.1960(3) -0.65675(15) 0.0484(10) Uani 1 1 d . U . . .
O4 O 1.0256(3) 0.1547(2) -0.60024(15) 0.0369(8) Uani 1 1 d . U . . .
O5 O 0.3487(4) -0.2594(3) -0.3170(2) 0.0555(14) Uani 0.8 1 d D U P A 1
O6 O 0.4245(4) -0.2072(3) -0.2353(2) 0.0562(14) Uani 0.8 1 d D U P A 1
O7 O 0.1221(3) 0.2466(2) 0.30009(16) 0.0493(10) Uani 1 1 d . U . . .
O8 O 0.1932(4) 0.1912(3) 0.2350(2) 0.0530(14) Uani 0.8 1 d . U P B 1
O9 O 0.1936(4) 0.7055(3) -0.1947(2) 0.0763(15) Uani 1 1 d . U . . .
O10 O 0.3182(4) 0.6377(3) -0.17361(15) 0.0530(11) Uani 1 1 d . U . . .
O11 O -0.0243(4) 1.0244(3) 0.26567(19) 0.0668(14) Uani 1 1 d . U . . .
O12 O 0.1182(3) 1.0299(2) 0.31828(15) 0.0416(9) Uani 1 1 d . U . . .
O13 O 0.7226(3) 0.6447(2) 0.48877(16) 0.0388(9) Uani 1 1 d . U . . .
O14 O 0.8138(3) 0.5753(2) 0.42450(15) 0.0398(9) Uani 1 1 d . U . . .
N1 N 0.2523(3) 0.1817(2) 0.39476(16) 0.0284(9) Uani 1 1 d . U . . .
N2 N 0.4037(3) 0.2594(2) 0.43692(16) 0.0269(9) Uani 1 1 d . U . . .
N3 N 1.0577(3) 0.5288(3) 0.65525(17) 0.0345(10) Uani 1 1 d . U . . .
N4 N 1.2092(4) 0.5729(3) 0.70824(18) 0.0362(10) Uani 1 1 d . U . . .
C1 C 0.5204(5) 0.5975(4) -0.2835(2) 0.0392(12) Uani 1 1 d . U . . .
C2 C 0.5482(4) 0.5182(3) -0.3081(2) 0.0390(12) Uani 1 1 d . U . . .
C3 C 0.4755(4) 0.4382(3) -0.3184(2) 0.0428(14) Uani 1 1 d . U . . .
H3 H 0.4084 0.4337 -0.3112 0.051 Uiso 1 1 calc R U . . .
C4 C 0.5012(4) 0.3647(4) -0.3393(2) 0.0434(14) Uani 1 1 d . U . . .
H4 H 0.4510 0.3116 -0.3469 0.052 Uiso 1 1 calc R U . . .
C5 C 0.6025(4) 0.3699(3) -0.3491(2) 0.0344(12) Uani 1 1 d . U . . .
C6 C 0.6746(4) 0.4505(3) -0.3405(2) 0.0404(13) Uani 1 1 d . U . . .
H6 H 0.7414 0.4553 -0.3484 0.048 Uiso 1 1 calc R U . . .
C7 C 0.6480(5) 0.5247(4) -0.3200(2) 0.0423(13) Uani 1 1 d . U . . .
H7 H 0.6970 0.5786 -0.3143 0.051 Uiso 1 1 calc R U . . .
C8 C 0.6299(4) 0.2887(3) -0.3688(2) 0.0309(11) Uani 1 1 d . U . . .
C9 C 0.5851(4) 0.2088(3) -0.3484(2) 0.0317(11) Uani 1 1 d . U . . .
H9 H 0.5388 0.2070 -0.3228 0.038 Uiso 1 1 calc R U . . .
C10 C 0.6089(4) 0.1321(3) -0.3661(2) 0.0318(11) Uani 1 1 d . U . . .
C11 C 0.6773(4) 0.1358(3) -0.4051(2) 0.0326(11) Uani 1 1 d . U . . .
H11 H 0.6946 0.0851 -0.4168 0.039 Uiso 1 1 calc R U . . .
C12 C 0.7199(4) 0.2136(3) -0.4268(2) 0.0312(11) Uani 1 1 d . U . . .
C13 C 0.6966(4) 0.2899(3) -0.4078(2) 0.0317(11) Uani 1 1 d . U . . .
H13 H 0.7266 0.3426 -0.4216 0.038 Uiso 1 1 calc R U . . .
C14 C 0.7836(4) 0.2130(3) -0.4720(2) 0.0294(11) Uani 1 1 d . U . . .
C15 C 0.7489(4) 0.2308(4) -0.5242(2) 0.0406(13) Uani 1 1 d . U . . .
H15 H 0.6893 0.2497 -0.5293 0.049 Uiso 1 1 calc R U . . .
C16 C 0.8008(4) 0.2211(4) -0.5686(2) 0.0390(12) Uani 1 1 d . U . . .
H16 H 0.7757 0.2325 -0.6032 0.047 Uiso 1 1 calc R U . . .
C17 C 0.8910(4) 0.1943(3) -0.5615(2) 0.0298(11) Uani 1 1 d . U . . .
C18 C 0.9287(4) 0.1809(3) -0.5098(2) 0.0334(11) Uani 1 1 d . U . . .
H18 H 0.9911 0.1665 -0.5045 0.040 Uiso 1 1 calc R U . . .
C19 C 0.8752(4) 0.1884(4) -0.4652(2) 0.0362(12) Uani 1 1 d . U . . .
H19 H 0.9006 0.1769 -0.4307 0.043 Uiso 1 1 calc R U . . .
C20 C 0.9451(4) 0.1808(3) -0.6106(2) 0.0336(11) Uani 1 1 d . U . . .
C22 C 0.5283(5) -0.0307(4) -0.3793(3) 0.0347(15) Uani 0.8 1 d . U P C 1
H22 H 0.5450 -0.0307 -0.4151 0.042 Uiso 0.8 1 calc R U P C 1
C23 C 0.4759(5) -0.1080(4) -0.3606(3) 0.0395(16) Uani 0.8 1 d . U P C 1
H23 H 0.4565 -0.1590 -0.3842 0.047 Uiso 0.8 1 calc R U P C 1
C24 C 0.4526(4) -0.1110(3) -0.3093(2) 0.0428(13) Uani 1 1 d DG U . . .
C3AA C 0.5516(5) -0.1001(4) -0.3233(5) 0.041(7) Uiso 0.2 1 d G . P C 2
H3AA H 0.5832 -0.1456 -0.3205 0.049 Uiso 0.2 1 calc R U P C 2
C2AA C 0.6035(5) -0.0212(4) -0.3415(5) 0.042(7) Uiso 0.2 1 d G . P C 2
H2AA H 0.6697 -0.0139 -0.3509 0.050 Uiso 0.2 1 calc R U P C 2
C21 C 0.5563(4) 0.0468(2) -0.3456(2) 0.0334(11) Uani 1 1 d G U . C .
C1AA C 0.4573(5) 0.0359(4) -0.3316(5) 0.039(6) Uiso 0.2 1 d G . P C 2
H1AA H 0.4258 0.0814 -0.3344 0.047 Uiso 0.2 1 calc R U P C 2
C0AA C 0.4055(5) -0.0430(4) -0.3134(5) 0.035(6) Uiso 0.2 1 d G . P C 2
H0AA H 0.3392 -0.0503 -0.3041 0.042 Uiso 0.2 1 calc R U P C 2
C25 C 0.4887(6) -0.0358(5) -0.2721(3) 0.0486(18) Uani 0.8 1 d . U P C 1
H25 H 0.4797 -0.0387 -0.2352 0.058 Uiso 0.8 1 calc R U P C 1
C26 C 0.5378(6) 0.0425(5) -0.2911(3) 0.0479(19) Uani 0.8 1 d . U P C 1
H26 H 0.5588 0.0931 -0.2670 0.057 Uiso 0.8 1 calc R U P C 1
C27B C 0.3810(15) -0.1947(19) -0.293(2) 0.0484(17) Uani 0.2 1 d D U P C 2
C28B C 0.115(3) 0.252(3) 0.2553(17) 0.039(2) Uani 0.2 1 d . U P D 2
C29B C 0.116(2) 0.324(2) 0.2234(13) 0.013(7) Uiso 0.2 1 d . . P D 2
C30 C 0.0811(7) 0.3741(5) 0.2359(3) 0.0438(18) Uani 0.8 1 d . U P B 1
H30 H 0.0364 0.3553 0.2617 0.053 Uiso 0.8 1 calc R U P B 1
C31 C 0.0782(8) 0.4500(5) 0.2095(3) 0.053(2) Uani 0.8 1 d . U P B 1
H31 H 0.0312 0.4812 0.2175 0.064 Uiso 0.8 1 calc R U P B 1
C32B C 0.111(3) 0.473(3) 0.169(2) 0.033(11) Uiso 0.2 1 d . . P D 2
C33 C 0.2084(9) 0.4251(5) 0.1574(4) 0.076(3) Uani 0.8 1 d . U P B 1
H33 H 0.2514 0.4405 0.1304 0.092 Uiso 0.8 1 calc R U P B 1
C34 C 0.2082(7) 0.3500(5) 0.1825(3) 0.059(2) Uani 0.8 1 d . U P B 1
H34 H 0.2484 0.3145 0.1708 0.071 Uiso 0.8 1 calc R U P B 1
C35 C 0.1412(7) 0.5591(4) 0.1428(3) 0.072(2) Uani 1 1 d . U . . .
C36 C 0.1265(7) 0.6318(4) 0.1729(3) 0.070(2) Uani 1 1 d . U . . .
H36 H 0.1186 0.6290 0.2100 0.084 Uiso 1 1 calc R U . . .
C37 C 0.1237(7) 0.7066(4) 0.1488(3) 0.075(2) Uani 1 1 d . U . . .
C38 C 0.1353(9) 0.7111(5) 0.0938(3) 0.111(4) Uani 1 1 d . U . . .
H38 H 0.1294 0.7608 0.0767 0.133 Uiso 1 1 calc R U . . .
C39 C 0.1563(9) 0.6404(5) 0.0632(3) 0.105(4) Uani 1 1 d . U . . .
C40 C 0.1600(8) 0.5658(5) 0.0890(3) 0.098(4) Uani 1 1 d . U . . .
H40 H 0.1755 0.5195 0.0698 0.118 Uiso 1 1 calc R U . . .
C41 C 0.1779(10) 0.6482(5) 0.0056(3) 0.107(3) Uani 1 1 d . U . . .
C42 C 0.1116(10) 0.6762(7) -0.0335(4) 0.131(4) Uani 1 1 d . U . . .
H42 H 0.0541 0.6908 -0.0225 0.157 Uiso 1 1 calc R U . . .
C43 C 0.1308(9) 0.6826(6) -0.0894(3) 0.109(3) Uani 1 1 d . U . . .
H43 H 0.0865 0.6997 -0.1152 0.131 Uiso 1 1 calc R U . . .
C44 C 0.2198(8) 0.6617(5) -0.1034(3) 0.083(2) Uani 1 1 d . U . . .
C45 C 0.2824(8) 0.6297(5) -0.0662(3) 0.082(2) Uani 1 1 d . U . . .
H45 H 0.3396 0.6142 -0.0770 0.099 Uiso 1 1 calc R U . . .
C46 C 0.2585(9) 0.6209(5) -0.0118(3) 0.099(3) Uani 1 1 d . U . . .
H46 H 0.2980 0.5964 0.0125 0.119 Uiso 1 1 calc R U . . .
C47 C 0.2445(7) 0.6699(5) -0.1615(3) 0.071(2) Uani 1 1 d . U . . .
C48 C 0.1053(6) 0.7822(4) 0.1818(3) 0.0616(18) Uani 1 1 d . U . . .
C49 C 0.0277(7) 0.8206(4) 0.1640(3) 0.072(2) Uani 1 1 d . U . . .
H49 H -0.0124 0.8001 0.1305 0.087 Uiso 1 1 calc R U . . .
C50 C 0.0097(6) 0.8894(4) 0.1958(3) 0.067(2) Uani 1 1 d . U . . .
H50 H -0.0424 0.9147 0.1837 0.080 Uiso 1 1 calc R U . . .
C51 C 0.0685(4) 0.9198(3) 0.2447(2) 0.0372(12) Uani 1 1 d . U . . .
C52 C 0.1453(5) 0.8828(3) 0.2630(2) 0.0431(13) Uani 1 1 d . U . . .
H52 H 0.1857 0.9042 0.2963 0.052 Uiso 1 1 calc R U . . .
C53 C 0.1621(5) 0.8133(4) 0.2317(3) 0.0540(16) Uani 1 1 d . U . . .
H53 H 0.2129 0.7872 0.2448 0.065 Uiso 1 1 calc R U . E 1
C54 C 0.0509(4) 0.9972(3) 0.2779(2) 0.0361(12) Uani 1 1 d . U . . .
C55 C 0.3306(4) 0.2502(3) 0.3941(2) 0.0306(11) Uani 1 1 d . U . . .
H55 H 0.3351 0.2887 0.3668 0.037 Uiso 1 1 calc R U . . .
C56 C 0.3717(4) 0.1903(3) 0.4692(2) 0.0266(10) Uani 1 1 d . U . . .
C57 C 0.2756(4) 0.1414(3) 0.44230(19) 0.0260(10) Uani 1 1 d . U . . .
C58 C 0.2224(4) 0.0655(3) 0.4630(2) 0.0328(11) Uani 1 1 d . U . . .
H58 H 0.1587 0.0329 0.4456 0.039 Uiso 1 1 calc R U . . .
C59 C 0.2661(4) 0.0401(3) 0.5095(2) 0.0387(13) Uani 1 1 d . U . . .
H59 H 0.2315 -0.0104 0.5242 0.046 Uiso 1 1 calc R U . . .
C60 C 0.3632(4) 0.0892(3) 0.5358(2) 0.0407(13) Uani 1 1 d . U . . .
H60 H 0.3917 0.0697 0.5671 0.049 Uiso 1 1 calc R U . . .
C61 C 0.4164(4) 0.1648(3) 0.5164(2) 0.0359(12) Uani 1 1 d . U . . .
H61 H 0.4797 0.1975 0.5341 0.043 Uiso 1 1 calc R U . . .
C62 C 0.4941(4) 0.3316(3) 0.4476(2) 0.0265(10) Uani 1 1 d . U . . .
C63 C 0.5527(4) 0.3541(3) 0.4049(2) 0.0318(11) Uani 1 1 d . U . . .
H63 H 0.5360 0.3204 0.3713 0.038 Uiso 1 1 calc R U . . .
C64 C 0.6364(4) 0.4274(3) 0.4129(2) 0.0334(12) Uani 1 1 d . U . . .
H64 H 0.6763 0.4440 0.3847 0.040 Uiso 1 1 calc R U . . .
C65 C 0.6594(4) 0.4756(3) 0.4636(2) 0.0284(10) Uani 1 1 d . U . . .
C66 C 0.6021(4) 0.4510(3) 0.5063(2) 0.0274(10) Uani 1 1 d . U . . .
H66 H 0.6198 0.4834 0.5404 0.033 Uiso 1 1 calc R U . . .
C67 C 0.5181(4) 0.3779(3) 0.4982(2) 0.0273(10) Uani 1 1 d . U . . .
H67 H 0.4789 0.3607 0.5266 0.033 Uiso 1 1 calc R U . . .
C68 C 0.8432(4) 0.5550(3) 0.5285(2) 0.0296(11) Uani 1 1 d . U . . .
C69 C 0.8732(4) 0.6180(3) 0.5729(2) 0.0333(11) Uani 1 1 d . U . . .
H69 H 0.8468 0.6667 0.5741 0.040 Uiso 1 1 calc R U . . .
C70 C 0.9417(4) 0.6077(3) 0.6147(2) 0.0363(12) Uani 1 1 d . U . . .
H70 H 0.9621 0.6496 0.6447 0.044 Uiso 1 1 calc R U . . .
C71 C 0.9813(4) 0.5351(3) 0.6130(2) 0.0321(11) Uani 1 1 d . U . . .
C72 C 0.9503(4) 0.4711(3) 0.5691(2) 0.0325(11) Uani 1 1 d . U . . .
H72 H 0.9766 0.4223 0.5683 0.039 Uiso 1 1 calc R U . . .
C73 C 0.8810(4) 0.4803(3) 0.5272(2) 0.0320(11) Uani 1 1 d . U . . .
H73 H 0.8588 0.4373 0.4978 0.038 Uiso 1 1 calc R U . . .
C74 C 1.1413(4) 0.5966(3) 0.6750(2) 0.0364(12) Uani 1 1 d . U . . .
H74 H 1.1492 0.6538 0.6657 0.044 Uiso 1 1 calc R U . . .
C75 C 1.0742(4) 0.4538(3) 0.6779(2) 0.0368(12) Uani 1 1 d . U . . .
C76 C 1.0148(5) 0.3670(3) 0.6735(2) 0.0445(14) Uani 1 1 d . U . . .
H76 H 0.9511 0.3484 0.6523 0.053 Uiso 1 1 calc R U . . .
C77 C 1.0576(6) 0.3102(4) 0.7029(3) 0.0568(16) Uani 1 1 d . U . . .
H77 H 1.0204 0.2518 0.7019 0.068 Uiso 1 1 calc R U . . .
C78 C 1.1528(6) 0.3367(4) 0.7337(3) 0.0607(17) Uani 1 1 d . U . . .
H78 H 1.1794 0.2955 0.7513 0.073 Uiso 1 1 calc R U . . .
C79 C 1.2085(5) 0.4228(4) 0.7388(3) 0.0504(15) Uani 1 1 d . U . . .
H79 H 1.2715 0.4410 0.7607 0.060 Uiso 1 1 calc R U . . .
C80 C 1.1683(5) 0.4826(3) 0.7101(2) 0.0385(12) Uani 1 1 d . U . . .
O0AA O 0.2863(13) -0.2058(12) -0.2939(8) 0.043(5) Uiso 0.2 1 d D . P C 2
O1AA O 0.4311(14) -0.2468(13) -0.2775(8) 0.040(4) Uiso 0.2 1 d D . P C 2
C27A C 0.4055(6) -0.1977(5) -0.2859(4) 0.0484(17) Uani 0.8 1 d D U P A 1
C7AA C 0.098(3) 0.324(2) 0.1681(13) 0.054(8) Uiso 0.2 1 d . . P D 2
H7AA H 0.0865 0.2713 0.1467 0.065 Uiso 0.2 1 calc R U P D 2
C6AA C 0.097(3) 0.400(2) 0.1416(16) 0.069(10) Uiso 0.2 1 d . . P D 2
C5AA C 0.137(2) 0.407(2) 0.2515(13) 0.037(7) Uiso 0.2 1 d . . P D 2
H5AA H 0.1490 0.4110 0.2896 0.044 Uiso 0.2 1 calc R U P D 2
C4AA C 0.141(3) 0.485(2) 0.2251(13) 0.044(8) Uiso 0.2 1 d . . P D 2
C32A C 0.1472(11) 0.4785(7) 0.1708(5) 0.052(3) Uani 0.8 1 d . U P B 1
C29A C 0.1515(9) 0.3267(6) 0.2234(4) 0.042(2) Uani 0.8 1 d . U P B 1
N2BA N 0.8233(4) 0.8641(3) 0.3717(2) 0.0550(13) Uani 1 1 d . U . . .
N8AA N 0.1353(5) 0.8511(4) -0.2303(2) 0.0682(16) Uani 1 1 d . U . . .
H8AA H 0.1449 0.7976 -0.2318 0.082 Uiso 1 1 calc R U . . .
H8AB H 0.0878 0.8521 -0.2579 0.082 Uiso 1 1 calc R U . . .
C4BA C 0.7962(6) 0.7834(4) 0.3982(3) 0.071(2) Uani 1 1 d . U . . .
H4BA H 0.8538 0.7586 0.4017 0.107 Uiso 1 1 calc R U . . .
H4BB H 0.7390 0.7426 0.3764 0.107 Uiso 1 1 calc R U . . .
H4BC H 0.7777 0.7955 0.4339 0.107 Uiso 1 1 calc R U . . .
C0BA C 0.9176(5) 0.9268(5) 0.3947(3) 0.073(2) Uani 1 1 d . U . . .
H0BA H 0.9193 0.9346 0.4338 0.109 Uiso 1 1 calc R U . . .
H0BB H 0.9215 0.9819 0.3795 0.109 Uiso 1 1 calc R U . . .
H0BC H 0.9750 0.9057 0.3859 0.109 Uiso 1 1 calc R U . . .
N5BA N 0.3683(6) 0.1714(6) 0.2021(3) 0.106(3) Uani 1 1 d D U . . .
H5BA H 0.3299 0.1976 0.2208 0.128 Uiso 1 1 calc R U . F 2
H5BB H 0.4295 0.1818 0.2218 0.128 Uiso 1 1 calc R U . F 2
C9AA C 0.2270(7) 0.9113(6) -0.2377(4) 0.095(3) Uani 1 1 d . U . . .
H9AA H 0.2479 0.8964 -0.2724 0.142 Uiso 1 1 calc R U . . .
H9AB H 0.2170 0.9692 -0.2371 0.142 Uiso 1 1 calc R U . . .
H9AC H 0.2793 0.9097 -0.2087 0.142 Uiso 1 1 calc R U . . .
C3BA C 0.0957(9) 0.8680(7) -0.1776(4) 0.116(4) Uani 1 1 d . U . . .
H3BA H 0.0327 0.8243 -0.1753 0.173 Uiso 1 1 calc R U . . .
H3BB H 0.1455 0.8656 -0.1475 0.173 Uiso 1 1 calc R U . . .
H3BC H 0.0832 0.9251 -0.1759 0.173 Uiso 1 1 calc R U . . .
C1BA C 0.7661(8) 0.8784(7) 0.3296(4) 0.102(3) Uani 1 1 d . U . . .
H1BA H 0.7873 0.9309 0.3138 0.122 Uiso 1 1 calc R U . . .
O6BA O 0.6837(6) 0.8250(5) 0.3093(3) 0.132(3) Uani 1 1 d . U . . .
O8BA O 0.8307(13) 0.6234(7) -0.0063(4) 0.182(6) Uani 0.75 1 d . U P . .
N7BA N 0.8296(11) 0.6088(8) 0.0832(5) 0.134(4) Uani 0.75 1 d D U P . .
C9BA C 0.8626(16) 0.5981(9) 0.0393(6) 0.146(5) Uani 0.75 1 d . U P . .
H9BA H 0.9145 0.5695 0.0390 0.175 Uiso 0.75 1 calc R U P . .
C0CA C 0.8544(13) 0.5742(10) 0.1294(6) 0.142(5) Uani 0.75 1 d D U P . .
H0CA H 0.8189 0.5920 0.1581 0.213 Uiso 0.75 1 calc R U P . .
H0CB H 0.8347 0.5114 0.1232 0.213 Uiso 0.75 1 calc R U P . .
H0CC H 0.9272 0.5946 0.1401 0.213 Uiso 0.75 1 calc R U P . .
C2BA C 0.759(2) 0.6561(17) 0.0900(9) 0.215(10) Uani 0.75 1 d D U P . .
H2BA H 0.7443 0.6561 0.1274 0.322 Uiso 0.75 1 calc R U P . .
H2BB H 0.7873 0.7153 0.0816 0.322 Uiso 0.75 1 calc R U P . .
H2BC H 0.6975 0.6299 0.0659 0.322 Uiso 0.75 1 calc R U P . .
C1A C 0.3189(14) 0.0728(11) 0.1972(8) 0.221(8) Uiso 1 1 d D . . G 2
H1AB H 0.3136 0.0530 0.2332 0.331 Uiso 1 1 calc R U . G 2
H1AC H 0.2516 0.0602 0.1771 0.331 Uiso 1 1 calc R U . G 2
H1AD H 0.3605 0.0430 0.1782 0.331 Uiso 1 1 calc R U . G 2
C6BA C 0.3826(15) 0.2134(13) 0.1503(6) 0.229(9) Uani 1 1 d D U . . .
H6BA H 0.4141 0.2751 0.1584 0.343 Uiso 1 1 calc R U . . .
H6BB H 0.4259 0.1875 0.1299 0.343 Uiso 1 1 calc R U . . .
H6BC H 0.3170 0.2047 0.1289 0.343 Uiso 1 1 calc R U . . .
N8BA N 0.0204(19) 0.1003(15) 0.0526(9) 0.103(7) Uiso 0.35 1 d D . P . .
O5BA O -0.0842(18) 0.1092(15) -0.0137(10) 0.134(7) Uiso 0.35 1 d . . P . .
C7BA C -0.071(2) 0.0829(19) 0.0261(12) 0.100(8) Uiso 0.35 1 d . . P . .
H7BA H -0.1263 0.0479 0.0408 0.120 Uiso 0.35 1 calc R U P . .
C1CA C 0.086(2) 0.081(2) 0.1016(12) 0.130(11) Uiso 0.35 1 d D . P . .
H1CA H 0.1554 0.1152 0.1020 0.195 Uiso 0.35 1 calc R U P . .
H1CB H 0.0598 0.0966 0.1348 0.195 Uiso 0.35 1 calc R U P . .
H1CC H 0.0829 0.0200 0.0992 0.195 Uiso 0.35 1 calc R U P . .
C2CA C 0.100(3) 0.177(2) 0.0379(16) 0.162(15) Uiso 0.35 1 d D . P . .
H2CA H 0.1641 0.1827 0.0604 0.243 Uiso 0.35 1 calc R U P . .
H2CB H 0.1099 0.1685 0.0000 0.243 Uiso 0.35 1 calc R U P . .
H2CC H 0.0785 0.2297 0.0437 0.243 Uiso 0.35 1 calc R U P . .
O2AA O 0.080(2) 0.1743(18) 0.2261(11) 0.083(8) Uiso 0.2 1 d . . P D 2
C28A C 0.1547(6) 0.2472(6) 0.2545(4) 0.039(2) Uani 0.8 1 d . U P B 1
loop_
_atom_site_aniso_label
_atom_site_aniso_U_11
_atom_site_aniso_U_22
_atom_site_aniso_U_33
_atom_site_aniso_U_23
_atom_site_aniso_U_13
_atom_site_aniso_U_12
Zn1 0.0336(3) 0.0212(3) 0.0263(3) 0.0011(2) 0.0088(2) 0.0078(2)
Zn2 0.0524(4) 0.0254(3) 0.0265(3) 0.0033(2) 0.0183(3) 0.0087(3)
S1 0.0296(7) 0.0207(6) 0.0472(8) 0.0022(5) 0.0165(6) 0.0030(5)
O1 0.062(3) 0.035(2) 0.053(2) 0.0087(18) 0.031(2) 0.0168(19)
O2 0.066(3) 0.032(2) 0.055(3) -0.0021(17) 0.026(2) 0.0103(19)
O3 0.043(2) 0.066(3) 0.033(2) -0.0026(18) 0.0075(17) 0.008(2)
O4 0.041(2) 0.0310(19) 0.043(2) 0.0042(16) 0.0240(17) 0.0097(17)
O5 0.046(3) 0.028(2) 0.097(4) 0.017(2) 0.027(3) 0.008(2)
O6 0.067(4) 0.039(3) 0.076(3) 0.024(3) 0.041(3) 0.020(3)
O7 0.084(3) 0.040(2) 0.037(2) 0.0122(16) 0.0262(19) 0.031(2)
O8 0.073(4) 0.034(3) 0.066(3) 0.018(2) 0.041(3) 0.023(3)
O9 0.118(4) 0.073(3) 0.062(3) 0.028(2) 0.038(3) 0.052(3)
O10 0.084(3) 0.044(2) 0.037(2) 0.0092(18) 0.031(2) 0.018(2)
O11 0.078(3) 0.063(3) 0.068(3) -0.016(2) -0.009(2) 0.046(3)
O12 0.051(2) 0.0255(18) 0.045(2) -0.0065(16) 0.0068(18) 0.0070(17)
O13 0.035(2) 0.0225(17) 0.060(2) 0.0023(16) 0.0150(18) 0.0063(15)
O14 0.037(2) 0.0335(19) 0.049(2) 0.0086(16) 0.0204(17) 0.0031(17)
N1 0.033(2) 0.0207(19) 0.030(2) 0.0011(16) 0.0066(17) 0.0026(17)
N2 0.027(2) 0.0172(18) 0.034(2) 0.0006(15) 0.0068(16) 0.0014(15)
N3 0.044(2) 0.022(2) 0.037(2) 0.0007(17) 0.0181(18) 0.0040(18)
N4 0.048(3) 0.028(2) 0.036(2) 0.0100(18) 0.021(2) 0.0100(19)
C1 0.057(3) 0.035(3) 0.030(3) 0.004(2) 0.019(2) 0.013(2)
C2 0.049(3) 0.033(2) 0.036(3) 0.003(2) 0.018(2) 0.009(2)
C3 0.041(3) 0.034(3) 0.055(4) 0.000(2) 0.017(3) 0.010(2)
C4 0.041(3) 0.032(3) 0.057(4) -0.002(2) 0.016(3) 0.007(2)
C5 0.044(3) 0.025(2) 0.035(3) 0.000(2) 0.016(2) 0.007(2)
C6 0.041(3) 0.033(3) 0.046(3) -0.003(2) 0.018(3) 0.004(2)
C7 0.050(3) 0.031(3) 0.046(3) 0.002(2) 0.019(3) 0.006(2)
C8 0.031(3) 0.026(2) 0.034(3) -0.0020(19) 0.006(2) 0.005(2)
C9 0.036(3) 0.028(2) 0.030(3) -0.0022(19) 0.012(2) 0.005(2)
C10 0.037(3) 0.027(2) 0.028(3) -0.0016(19) 0.007(2) 0.003(2)
C11 0.039(3) 0.030(2) 0.032(3) 0.000(2) 0.012(2) 0.012(2)
C12 0.033(3) 0.031(2) 0.030(3) 0.0019(19) 0.009(2) 0.008(2)
C13 0.032(3) 0.026(2) 0.037(3) 0.006(2) 0.010(2) 0.005(2)
C14 0.033(3) 0.020(2) 0.034(2) 0.0013(19) 0.011(2) 0.003(2)
C15 0.036(3) 0.048(3) 0.042(3) 0.010(2) 0.013(2) 0.015(3)
C16 0.034(3) 0.046(3) 0.036(3) 0.008(2) 0.009(2) 0.007(2)
C17 0.032(3) 0.022(2) 0.033(2) 0.0019(19) 0.0102(19) -0.001(2)
C18 0.031(3) 0.036(3) 0.036(3) 0.001(2) 0.009(2) 0.010(2)
C19 0.035(3) 0.045(3) 0.030(3) 0.001(2) 0.006(2) 0.013(2)
C20 0.030(3) 0.029(3) 0.036(3) -0.004(2) 0.011(2) -0.003(2)
C22 0.046(4) 0.023(3) 0.040(3) 0.005(2) 0.015(3) 0.012(3)
C23 0.045(4) 0.025(3) 0.052(4) 0.004(3) 0.021(3) 0.011(3)
C24 0.045(3) 0.030(2) 0.054(3) 0.007(2) 0.020(3) 0.005(2)
C21 0.035(3) 0.027(2) 0.040(3) 0.0040(19) 0.014(2) 0.008(2)
C25 0.063(5) 0.039(3) 0.045(4) 0.008(3) 0.024(3) 0.008(3)
C26 0.066(5) 0.035(3) 0.040(3) 0.003(3) 0.023(3) 0.002(3)
C27B 0.045(4) 0.035(3) 0.073(4) 0.016(3) 0.034(4) 0.011(3)
C28B 0.054(6) 0.029(3) 0.039(3) 0.007(2) 0.021(3) 0.014(4)
C30 0.065(5) 0.038(4) 0.034(4) 0.013(3) 0.025(4) 0.015(4)
C31 0.095(6) 0.042(4) 0.039(4) 0.014(3) 0.034(4) 0.035(4)
C33 0.146(8) 0.050(4) 0.064(5) 0.027(4) 0.074(6) 0.052(5)
C34 0.098(6) 0.038(4) 0.062(5) 0.023(3) 0.056(5) 0.034(4)
C35 0.159(7) 0.039(3) 0.039(3) 0.014(2) 0.053(4) 0.044(4)
C36 0.150(7) 0.035(3) 0.041(3) 0.011(2) 0.044(4) 0.039(4)
C37 0.158(7) 0.041(3) 0.045(3) 0.016(2) 0.054(4) 0.044(4)
C38 0.264(13) 0.053(4) 0.058(4) 0.029(3) 0.083(5) 0.089(6)
C39 0.252(11) 0.055(4) 0.049(3) 0.028(3) 0.083(5) 0.084(6)
C40 0.233(11) 0.051(4) 0.047(3) 0.023(3) 0.076(5) 0.076(5)
C41 0.250(9) 0.059(4) 0.058(4) 0.034(3) 0.081(5) 0.093(6)
C42 0.263(10) 0.124(8) 0.074(4) 0.057(5) 0.101(5) 0.133(8)
C43 0.203(8) 0.106(7) 0.071(5) 0.047(4) 0.080(5) 0.100(7)
C44 0.172(7) 0.058(4) 0.050(3) 0.024(3) 0.057(4) 0.067(5)
C45 0.161(7) 0.061(4) 0.043(3) 0.006(3) 0.040(4) 0.049(5)
C46 0.212(8) 0.058(5) 0.048(4) 0.020(3) 0.057(4) 0.057(5)
C47 0.125(6) 0.057(4) 0.053(4) 0.018(3) 0.041(3) 0.051(4)
C48 0.123(5) 0.035(3) 0.040(3) 0.007(2) 0.036(3) 0.034(3)
C49 0.141(6) 0.040(3) 0.041(3) -0.007(3) 0.008(4) 0.037(4)
C50 0.110(5) 0.046(3) 0.049(3) -0.012(3) -0.011(3) 0.041(4)
C51 0.051(3) 0.025(2) 0.037(3) 0.001(2) 0.011(2) 0.010(2)
C52 0.048(3) 0.035(3) 0.048(3) -0.001(2) 0.011(3) 0.013(3)
C53 0.081(4) 0.038(3) 0.055(3) 0.010(2) 0.038(3) 0.025(3)
C54 0.047(3) 0.024(2) 0.040(3) 0.002(2) 0.012(2) 0.011(2)
C55 0.036(3) 0.024(2) 0.031(3) 0.0002(19) 0.009(2) 0.004(2)
C56 0.030(2) 0.020(2) 0.033(2) -0.0016(17) 0.0137(19) 0.0094(19)
C57 0.032(2) 0.021(2) 0.026(2) 0.0002(17) 0.0116(19) 0.0064(18)
C58 0.038(3) 0.022(2) 0.035(3) 0.0006(19) 0.009(2) 0.003(2)
C59 0.045(3) 0.025(2) 0.043(3) 0.009(2) 0.007(2) 0.000(2)
C60 0.048(3) 0.031(3) 0.041(3) 0.010(2) 0.002(2) 0.007(2)
C61 0.037(3) 0.026(2) 0.042(3) 0.004(2) 0.002(2) 0.006(2)
C62 0.025(2) 0.019(2) 0.037(2) 0.0044(18) 0.0082(19) 0.0058(18)
C63 0.037(3) 0.024(2) 0.034(3) 0.001(2) 0.013(2) 0.004(2)
C64 0.035(3) 0.024(2) 0.041(3) 0.001(2) 0.021(2) 0.003(2)
C65 0.026(2) 0.022(2) 0.039(3) 0.0051(19) 0.012(2) 0.0071(19)
C66 0.029(3) 0.022(2) 0.033(3) 0.0014(19) 0.009(2) 0.0075(19)
C67 0.027(3) 0.021(2) 0.035(3) 0.0035(19) 0.012(2) 0.0065(19)
C68 0.026(3) 0.021(2) 0.042(3) -0.0007(19) 0.016(2) 0.0024(19)
C69 0.039(3) 0.021(2) 0.043(3) -0.001(2) 0.018(2) 0.008(2)
C70 0.045(3) 0.024(2) 0.039(3) -0.006(2) 0.013(2) 0.007(2)
C71 0.034(3) 0.024(2) 0.040(3) 0.0031(19) 0.020(2) 0.004(2)
C72 0.034(3) 0.023(2) 0.045(3) 0.004(2) 0.020(2) 0.009(2)
C73 0.031(3) 0.019(2) 0.045(3) -0.006(2) 0.016(2) 0.002(2)
C74 0.051(3) 0.028(2) 0.031(3) 0.003(2) 0.017(2) 0.006(2)
C75 0.049(3) 0.028(2) 0.039(3) 0.005(2) 0.026(2) 0.011(2)
C76 0.058(3) 0.026(2) 0.051(3) 0.005(2) 0.026(3) 0.006(2)
C77 0.075(4) 0.026(3) 0.073(4) 0.018(3) 0.028(3) 0.010(3)
C78 0.077(4) 0.038(3) 0.074(4) 0.021(3) 0.025(3) 0.019(3)
C79 0.063(4) 0.038(3) 0.054(4) 0.018(2) 0.018(3) 0.015(3)
C80 0.053(3) 0.032(2) 0.035(3) 0.008(2) 0.024(2) 0.013(2)
C27A 0.045(4) 0.035(3) 0.073(4) 0.016(3) 0.034(4) 0.011(3)
C32A 0.103(9) 0.028(4) 0.034(4) 0.006(3) 0.038(6) 0.025(5)
C29A 0.057(6) 0.031(4) 0.042(4) 0.006(3) 0.021(4) 0.013(4)
N2BA 0.048(3) 0.046(3) 0.074(3) 0.025(2) 0.021(3) 0.008(2)
N8AA 0.061(4) 0.094(4) 0.058(3) -0.016(3) -0.002(3) 0.044(3)
C4BA 0.078(5) 0.044(3) 0.096(5) 0.025(3) 0.032(4) 0.010(3)
C0BA 0.059(4) 0.057(4) 0.100(6) 0.016(4) 0.027(4) 0.004(3)
N5BA 0.085(5) 0.133(7) 0.104(5) -0.045(5) 0.000(4) 0.050(5)
C9AA 0.087(5) 0.097(6) 0.109(7) 0.031(5) 0.007(5) 0.038(5)
C3BA 0.176(10) 0.113(7) 0.099(6) 0.037(5) 0.057(6) 0.091(7)
C1BA 0.090(6) 0.093(6) 0.118(6) 0.041(5) -0.003(5) 0.014(5)
O6BA 0.099(5) 0.121(6) 0.156(6) 0.046(5) -0.025(5) 0.001(4)
O8BA 0.384(18) 0.101(7) 0.087(6) 0.014(5) 0.090(8) 0.088(10)
N7BA 0.173(11) 0.113(9) 0.086(6) 0.001(6) 0.049(7) -0.027(7)
C9BA 0.244(14) 0.076(8) 0.089(6) 0.003(6) 0.062(8) -0.023(8)
C0CA 0.177(13) 0.124(10) 0.085(7) -0.009(7) 0.041(8) -0.038(9)
C2BA 0.26(2) 0.25(2) 0.144(15) 0.017(14) 0.070(13) 0.071(18)
C6BA 0.29(2) 0.31(2) 0.145(10) 0.045(12) 0.070(13) 0.171(18)
C28A 0.054(6) 0.029(3) 0.039(3) 0.007(2) 0.021(3) 0.014(4)
loop_
_atom_type_symbol
_atom_type_description
_atom_type_scat_dispersion_real
_atom_type_scat_dispersion_imag
_atom_type_scat_source
C C 0.0033 0.0016 'International Tables Vol C Tables 4.2.6.8 and 6.1.1.4'
H H 0.0000 0.0000 'International Tables Vol C Tables 4.2.6.8 and 6.1.1.4'
N N 0.0061 0.0033 'International Tables Vol C Tables 4.2.6.8 and 6.1.1.4'
O O 0.0106 0.0060 'International Tables Vol C Tables 4.2.6.8 and 6.1.1.4'
S S 0.1246 0.1234 'International Tables Vol C Tables 4.2.6.8 and 6.1.1.4'
Zn Zn 0.2839 1.4301 'International Tables Vol C Tables 4.2.6.8 and 6.1.1.4'
loop_
_geom_angle_atom_site_label_1
_geom_angle_atom_site_label_2
_geom_angle_atom_site_label_3
_geom_angle
_geom_angle_site_symmetry_1
_geom_angle_site_symmetry_3
O12 Zn1 O7 126.79(16) 1_545 .
O12 Zn1 O4 115.31(15) 1_545 1_456
O7 Zn1 O4 107.86(15) . 1_456
O12 Zn1 N1 98.80(16) 1_545 .
O7 Zn1 N1 104.78(17) . .
O4 Zn1 N1 97.79(16) 1_456 .
O1AA Zn2 O1 91.6(6) 1_565 .
O1AA Zn2 O10 126.5(6) 1_565 .
O1 Zn2 O10 104.47(17) . .
O1AA Zn2 N4 126.7(6) 1_565 1_454
O1 Zn2 N4 97.43(17) . 1_454
O10 Zn2 N4 101.76(18) . 1_454
O1 Zn2 O5 105.45(17) . 1_565
O10 Zn2 O5 146.36(18) . 1_565
N4 Zn2 O5 89.30(19) 1_454 1_565
O1 Zn2 O6 112.07(18) . 1_565
O10 Zn2 O6 95.09(19) . 1_565
N4 Zn2 O6 141.03(19) 1_454 1_565
O5 Zn2 O6 59.3(2) 1_565 1_565
O1 Zn2 C27A 110.0(2) . 1_565
O10 Zn2 C27A 123.1(3) . 1_565
N4 Zn2 C27A 116.5(2) 1_454 1_565
O5 Zn2 C27A 29.3(2) 1_565 1_565
O6 Zn2 C27A 30.1(2) 1_565 1_565
O14 S1 O13 119.0(2) . .
O14 S1 C68 108.8(2) . .
O13 S1 C68 107.5(2) . .
O14 S1 C65 107.8(2) . .
O13 S1 C65 108.7(2) . .
C68 S1 C65 104.0(2) . .
C1 O1 Zn2 131.6(4) . .
C20 O4 Zn1 121.5(3) . 1_654
C27A O5 Zn2 90.7(5) . 1_545
C27A O6 Zn2 89.7(5) . 1_545
C28B O7 Zn1 133(2) . .
C28A O7 Zn1 120.9(4) . .
C47 O10 Zn2 110.2(4) . .
C54 O12 Zn1 112.9(3) . 1_565
C55 N1 C57 105.4(4) . .
C55 N1 Zn1 127.9(3) . .
C57 N1 Zn1 126.3(3) . .
C55 N2 C56 107.7(4) . .
C55 N2 C62 124.3(4) . .
C56 N2 C62 127.8(4) . .
C74 N3 C75 106.4(4) . .
C74 N3 C71 123.9(4) . .
C75 N3 C71 128.9(4) . .
C74 N4 C80 104.5(5) . .
C74 N4 Zn2 126.5(3) . 1_656
C80 N4 Zn2 129.0(4) . 1_656
O2 C1 O1 126.1(5) . .
O2 C1 C2 120.0(5) . .
O1 C1 C2 113.9(5) . .
C3 C2 C7 119.2(5) . .
C3 C2 C1 120.5(5) . .
C7 C2 C1 120.3(5) . .
C2 C3 C4 120.8(5) . .
C2 C3 H3 119.6 . .
C4 C3 H3 119.6 . .
C3 C4 C5 120.3(5) . .
C3 C4 H4 119.9 . .
C5 C4 H4 119.9 . .
C6 C5 C4 118.9(5) . .
C6 C5 C8 121.7(5) . .
C4 C5 C8 119.4(5) . .
C5 C6 C7 120.5(5) . .
C5 C6 H6 119.7 . .
C7 C6 H6 119.7 . .
C2 C7 C6 120.2(5) . .
C2 C7 H7 119.9 . .
C6 C7 H7 119.9 . .
C13 C8 C9 118.9(4) . .
C13 C8 C5 121.6(5) . .
C9 C8 C5 119.5(4) . .
C10 C9 C8 120.8(5) . .
C10 C9 H9 119.6 . .
C8 C9 H9 119.6 . .
C9 C10 C11 118.7(5) . .
C9 C10 C21 119.8(4) . .
C11 C10 C21 121.3(4) . .
C12 C11 C10 121.1(4) . .
C12 C11 H11 119.4 . .
C10 C11 H11 119.4 . .
C11 C12 C13 119.1(5) . .
C11 C12 C14 119.3(4) . .
C13 C12 C14 121.4(4) . .
C8 C13 C12 121.2(5) . .
C8 C13 H13 119.4 . .
C12 C13 H13 119.4 . .
C19 C14 C15 118.0(5) . .
C19 C14 C12 121.8(5) . .
C15 C14 C12 120.0(5) . .
C16 C15 C14 121.4(5) . .
C16 C15 H15 119.3 . .
C14 C15 H15 119.3 . .
C15 C16 C17 120.0(5) . .
C15 C16 H16 120.0 . .
C17 C16 H16 120.0 . .
C18 C17 C16 119.1(5) . .
C18 C17 C20 121.4(5) . .
C16 C17 C20 119.5(5) . .
C17 C18 C19 121.0(5) . .
C17 C18 H18 119.5 . .
C19 C18 H18 119.5 . .
C18 C19 C14 120.3(5) . .
C18 C19 H19 119.8 . .
C14 C19 H19 119.8 . .
O3 C20 O4 125.8(5) . .
O3 C20 C17 119.2(5) . .
O4 C20 C17 115.0(5) . .
C23 C22 C21 120.8(6) . .
C23 C22 H22 119.6 . .
C21 C22 H22 119.6 . .
C24 C23 C22 121.3(6) . .
C24 C23 H23 119.3 . .
C22 C23 H23 119.3 . .
C3AA C24 C0AA 120.0 . .
C23 C24 C25 119.6(5) . .
C3AA C24 C27B 127.3(11) . .
C0AA C24 C27B 112.5(10) . .
C23 C24 C27A 121.9(6) . .
C25 C24 C27A 117.4(6) . .
C2AA C3AA C24 120.0 . .
C2AA C3AA H3AA 120.0 . .
C24 C3AA H3AA 120.0 . .
C3AA C2AA C21 120.0 . .
C3AA C2AA H2AA 120.0 . .
C21 C2AA H2AA 120.0 . .
C1AA C21 C2AA 120.0 . .
C22 C21 C26 117.7(5) . .
C22 C21 C10 121.6(5) . .
C1AA C21 C10 118.4(4) . .
C2AA C21 C10 121.5(4) . .
C26 C21 C10 120.7(5) . .
C21 C1AA C0AA 120.0 . .
C21 C1AA H1AA 120.0 . .
C0AA C1AA H1AA 120.0 . .
C1AA C0AA C24 120.0 . .
C1AA C0AA H0AA 120.0 . .
C24 C0AA H0AA 120.0 . .
C26 C25 C24 119.1(6) . .
C26 C25 H25 120.5 . .
C24 C25 H25 120.5 . .
C25 C26 C21 121.0(6) . .
C25 C26 H26 119.5 . .
C21 C26 H26 119.5 . .
O0AA C27B O1AA 126.1(19) . .
O0AA C27B C24 123.3(17) . .
O1AA C27B C24 110.6(16) . .
O7 C28B O2AA 113(3) . .
O7 C28B C29B 132(4) . .
O2AA C28B C29B 113(3) . .
C7AA C29B C5AA 114(3) . .
C7AA C29B C28B 129(3) . .
C5AA C29B C28B 117(3) . .
C29A C30 C31 120.0(7) . .
C29A C30 H30 120.0 . .
C31 C30 H30 120.0 . .
C30 C31 C32A 119.6(8) . .
C30 C31 H31 120.2 . .
C32A C31 H31 120.2 . .
C6AA C32B C4AA 123(4) . .
C6AA C32B C35 121(4) . .
C4AA C32B C35 111(4) . .
C34 C33 C32A 122.4(8) . .
C34 C33 H33 118.8 . .
C32A C33 H33 118.8 . .
C29A C34 C33 121.5(8) . .
C29A C34 H34 119.3 . .
C33 C34 H34 119.3 . .
C40 C35 C36 119.2(6) . .
C40 C35 C32A 120.8(6) . .
C36 C35 C32A 119.8(6) . .
C40 C35 C32B 125(2) . .
C36 C35 C32B 114.8(19) . .
C37 C36 C35 121.0(6) . .
C37 C36 H36 119.5 . .
C35 C36 H36 119.5 . .
C36 C37 C38 119.8(6) . .
C36 C37 C48 119.6(5) . .
C38 C37 C48 120.6(6) . .
C37 C38 C39 120.3(6) . .
C37 C38 H38 119.9 . .
C39 C38 H38 119.9 . .
C40 C39 C38 118.5(6) . .
C40 C39 C41 121.1(6) . .
C38 C39 C41 120.3(6) . .
C35 C40 C39 121.1(6) . .
C35 C40 H40 119.5 . .
C39 C40 H40 119.5 . .
C46 C41 C42 118.6(7) . .
C46 C41 C39 119.8(8) . .
C42 C41 C39 121.4(9) . .
C41 C42 C43 121.9(9) . .
C41 C42 H42 119.1 . .
C43 C42 H42 119.1 . .
C44 C43 C42 116.6(9) . .
C44 C43 H43 121.7 . .
C42 C43 H43 121.7 . .
C45 C44 C43 122.0(7) . .
C45 C44 C47 119.6(7) . .
C43 C44 C47 118.3(7) . .
C44 C45 C46 119.7(8) . .
C44 C45 H45 120.2 . .
C46 C45 H45 120.2 . .
C41 C46 C45 120.9(9) . .
C41 C46 H46 119.6 . .
C45 C46 H46 119.6 . .
O9 C47 O10 124.6(6) . .
O9 C47 C44 120.5(7) . .
O10 C47 C44 115.0(6) . .
C53 C48 C49 118.2(5) . .
C53 C48 C37 120.6(7) . .
C49 C48 C37 121.1(7) . .
C50 C49 C48 120.5(6) . .
C50 C49 H49 119.8 . .
C48 C49 H49 119.8 . .
C51 C50 C49 120.0(6) . .
C51 C50 H50 120.0 . .
C49 C50 H50 120.0 . .
C50 C51 C52 120.5(5) . .
C50 C51 C54 119.4(5) . .
C52 C51 C54 120.1(5) . .
C51 C52 C53 119.6(6) . .
C51 C52 H52 120.2 . .
C53 C52 H52 120.2 . .
C48 C53 C52 121.3(6) . .
C48 C53 H53 119.4 . .
C52 C53 H53 119.4 . .
O11 C54 O12 123.7(5) . .
O11 C54 C51 120.9(5) . .
O12 C54 C51 115.4(5) . .
N1 C55 N2 113.3(4) . .
N1 C55 H55 123.4 . .
N2 C55 H55 123.4 . .
C61 C56 N2 133.3(5) . .
C61 C56 C57 121.8(4) . .
N2 C56 C57 104.9(4) . .
C58 C57 C56 120.3(5) . .
C58 C57 N1 131.0(5) . .
C56 C57 N1 108.7(4) . .
C59 C58 C57 118.1(5) . .
C59 C58 H58 121.0 . .
C57 C58 H58 121.0 . .
C58 C59 C60 121.2(5) . .
C58 C59 H59 119.4 . .
C60 C59 H59 119.4 . .
C61 C60 C59 121.6(5) . .
C61 C60 H60 119.2 . .
C59 C60 H60 119.2 . .
C60 C61 C56 117.0(5) . .
C60 C61 H61 121.5 . .
C56 C61 H61 121.5 . .
C67 C62 C63 122.1(4) . .
C67 C62 N2 119.9(4) . .
C63 C62 N2 118.0(4) . .
C64 C63 C62 119.2(5) . .
C64 C63 H63 120.4 . .
C62 C63 H63 120.4 . .
C65 C64 C63 118.8(5) . .
C65 C64 H64 120.6 . .
C63 C64 H64 120.6 . .
C66 C65 C64 121.4(5) . .
C66 C65 S1 120.0(4) . .
C64 C65 S1 118.5(4) . .
C65 C66 C67 119.7(4) . .
C65 C66 H66 120.1 . .
C67 C66 H66 120.1 . .
C62 C67 C66 118.7(5) . .
C62 C67 H67 120.7 . .
C66 C67 H67 120.7 . .
C69 C68 C73 120.6(5) . .
C69 C68 S1 119.2(4) . .
C73 C68 S1 120.1(4) . .
C70 C69 C68 119.2(5) . .
C70 C69 H69 120.4 . .
C68 C69 H69 120.4 . .
C69 C70 C71 120.5(5) . .
C69 C70 H70 119.8 . .
C71 C70 H70 119.8 . .
C70 C71 C72 120.6(5) . .
C70 C71 N3 119.4(4) . .
C72 C71 N3 119.9(4) . .
C73 C72 C71 119.4(5) . .
C73 C72 H72 120.3 . .
C71 C72 H72 120.3 . .
C72 C73 C68 119.6(5) . .
C72 C73 H73 120.2 . .
C68 C73 H73 120.2 . .
N4 C74 N3 113.5(5) . .
N4 C74 H74 123.3 . .
N3 C74 H74 123.3 . .
C80 C75 C76 122.9(5) . .
C80 C75 N3 105.0(5) . .
C76 C75 N3 132.1(5) . .
C77 C76 C75 115.2(6) . .
C77 C76 H76 122.4 . .
C75 C76 H76 122.4 . .
C78 C77 C76 122.9(6) . .
C78 C77 H77 118.6 . .
C76 C77 H77 118.6 . .
C79 C78 C77 120.9(6) . .
C79 C78 H78 119.6 . .
C77 C78 H78 119.6 . .
C78 C79 C80 118.3(6) . .
C78 C79 H79 120.9 . .
C80 C79 H79 120.9 . .
C75 C80 C79 119.8(5) . .
C75 C80 N4 110.6(5) . .
C79 C80 N4 129.6(6) . .
C27B O1AA Zn2 109.9(14) . 1_545
O5 C27A O6 120.0(7) . .
O5 C27A C24 119.3(8) . .
O6 C27A C24 120.7(7) . .
O5 C27A Zn2 60.0(4) . 1_545
O6 C27A Zn2 60.2(4) . 1_545
C24 C27A Zn2 174.5(6) . 1_545
C29B C7AA C6AA 123(3) . .
C29B C7AA H7AA 118.4 . .
C6AA C7AA H7AA 118.4 . .
C32B C6AA C7AA 120(4) . .
C29B C5AA C4AA 123(3) . .
C29B C5AA H5AA 118.3 . .
C4AA C5AA H5AA 118.3 . .
C32B C4AA C5AA 115(3) . .
C33 C32A C31 117.1(9) . .
C33 C32A C35 124.2(9) . .
C31 C32A C35 118.4(9) . .
C34 C29A C30 118.8(8) . .
C34 C29A C28A 122.8(8) . .
C30 C29A C28A 118.2(8) . .
C1BA N2BA C0BA 122.3(7) . .
C1BA N2BA C4BA 121.6(7) . .
C0BA N2BA C4BA 116.1(6) . .
C9AA N8AA C3BA 114.1(7) . .
C9AA N8AA H8AA 108.7 . .
C3BA N8AA H8AA 108.7 . .
C9AA N8AA H8AB 108.7 . .
C3BA N8AA H8AB 108.7 . .
H8AA N8AA H8AB 107.6 . .
N2BA C4BA H4BA 109.5 . .
N2BA C4BA H4BB 109.5 . .
H4BA C4BA H4BB 109.5 . .
N2BA C4BA H4BC 109.5 . .
H4BA C4BA H4BC 109.5 . .
H4BB C4BA H4BC 109.5 . .
N2BA C0BA H0BA 109.5 . .
N2BA C0BA H0BB 109.5 . .
H0BA C0BA H0BB 109.5 . .
N2BA C0BA H0BC 109.5 . .
H0BA C0BA H0BC 109.5 . .
H0BB C0BA H0BC 109.5 . .
C6BA N5BA C1A 116.9(11) . .
C6BA N5BA H5BA 108.1 . .
C1A N5BA H5BA 108.1 . .
C6BA N5BA H5BB 108.1 . .
C1A N5BA H5BB 108.1 . .
H5BA N5BA H5BB 107.3 . .
N8AA C9AA H9AA 109.5 . .
N8AA C9AA H9AB 109.5 . .
H9AA C9AA H9AB 109.5 . .
N8AA C9AA H9AC 109.5 . .
H9AA C9AA H9AC 109.5 . .
H9AB C9AA H9AC 109.5 . .
N8AA C3BA H3BA 109.5 . .
N8AA C3BA H3BB 109.5 . .
H3BA C3BA H3BB 109.5 . .
N8AA C3BA H3BC 109.5 . .
H3BA C3BA H3BC 109.5 . .
H3BB C3BA H3BC 109.5 . .
O6BA C1BA N2BA 123.2(9) . .
O6BA C1BA H1BA 118.4 . .
N2BA C1BA H1BA 118.4 . .
C9BA N7BA C0CA 125.1(18) . .
C9BA N7BA C2BA 123.1(18) . .
C0CA N7BA C2BA 111.7(16) . .
N7BA C9BA O8BA 125(2) . .
N7BA C9BA H9BA 117.5 . .
O8BA C9BA H9BA 117.5 . .
N7BA C0CA H0CA 109.5 . .
N7BA C0CA H0CB 109.5 . .
H0CA C0CA H0CB 109.5 . .
N7BA C0CA H0CC 109.5 . .
H0CA C0CA H0CC 109.5 . .
H0CB C0CA H0CC 109.5 . .
N7BA C2BA H2BA 109.5 . .
N7BA C2BA H2BB 109.5 . .
H2BA C2BA H2BB 109.5 . .
N7BA C2BA H2BC 109.5 . .
H2BA C2BA H2BC 109.5 . .
H2BB C2BA H2BC 109.5 . .
N5BA C1A H1AB 109.5 . .
N5BA C1A H1AC 109.5 . .
H1AB C1A H1AC 109.5 . .
N5BA C1A H1AD 109.5 . .
H1AB C1A H1AD 109.5 . .
H1AC C1A H1AD 109.5 . .
N5BA C6BA H6BA 109.5 . .
N5BA C6BA H6BB 109.5 . .
H6BA C6BA H6BB 109.5 . .
N5BA C6BA H6BC 109.5 . .
H6BA C6BA H6BC 109.5 . .
H6BB C6BA H6BC 109.5 . .
C7BA N8BA C2CA 118(3) . .
C7BA N8BA C1CA 146(3) . .
C2CA N8BA C1CA 96(2) . .
O5BA C7BA N8BA 121(3) . .
O5BA C7BA H7BA 119.6 . .
N8BA C7BA H7BA 119.6 . .
N8BA C1CA H1CA 109.5 . .
N8BA C1CA H1CB 109.5 . .
H1CA C1CA H1CB 109.5 . .
N8BA C1CA H1CC 109.5 . .
H1CA C1CA H1CC 109.5 . .
H1CB C1CA H1CC 109.5 . .
N8BA C2CA H2CA 109.5 . .
N8BA C2CA H2CB 109.5 . .
H2CA C2CA H2CB 109.5 . .
N8BA C2CA H2CC 109.5 . .
H2CA C2CA H2CC 109.5 . .
H2CB C2CA H2CC 109.5 . .
O8 C28A O7 124.8(7) . .
O8 C28A C29A 119.3(7) . .
O7 C28A C29A 115.8(7) . .
loop_
_geom_bond_atom_site_label_1
_geom_bond_atom_site_label_2
_geom_bond_distance
_geom_bond_site_symmetry_2
Zn1 O12 1.939(3) 1_545
Zn1 O7 1.945(4) .
Zn1 O4 1.952(3) 1_456
Zn1 N1 2.042(4) .
Zn2 O1AA 1.93(2) 1_565
Zn2 O1 1.952(4) .
Zn2 O10 1.970(4) .
Zn2 N4 2.039(5) 1_454
Zn2 O5 2.193(5) 1_565
Zn2 O6 2.197(5) 1_565
Zn2 C27A 2.532(7) 1_565
S1 O14 1.431(4) .
S1 O13 1.440(3) .
S1 C68 1.758(5) .
S1 C65 1.761(5) .
O1 C1 1.278(7) .
O2 C1 1.243(7) .
O3 C20 1.249(6) .
O4 C20 1.270(6) .
O4 Zn1 1.952(3) 1_654
O5 C27A 1.240(9) .
O5 Zn2 2.193(5) 1_545
O6 C27A 1.270(10) .
O6 Zn2 2.197(5) 1_545
O7 C28B 1.11(4) .
O7 C28A 1.246(9) .
O8 C28A 1.237(9) .
O9 C47 1.264(8) .
O10 C47 1.286(8) .
O11 C54 1.223(6) .
O12 C54 1.265(6) .
O12 Zn1 1.939(3) 1_565
N1 C55 1.311(6) .
N1 C57 1.410(6) .
N2 C55 1.345(6) .
N2 C56 1.392(6) .
N2 C62 1.435(6) .
N3 C74 1.369(7) .
N3 C75 1.400(7) .
N3 C71 1.419(7) .
N4 C74 1.311(7) .
N4 C80 1.400(7) .
N4 Zn2 2.039(5) 1_656
C1 C2 1.512(7) .
C2 C3 1.382(8) .
C2 C7 1.392(8) .
C3 C4 1.383(7) .
C3 H3 0.9300 .
C4 C5 1.401(7) .
C4 H4 0.9300 .
C5 C6 1.384(7) .
C5 C8 1.494(7) .
C6 C7 1.396(7) .
C6 H6 0.9300 .
C7 H7 0.9300 .
C8 C13 1.380(7) .
C8 C9 1.400(7) .
C9 C10 1.391(7) .
C9 H9 0.9300 .
C10 C11 1.395(7) .
C10 C21 1.497(6) .
C11 C12 1.382(7) .
C11 H11 0.9300 .
C12 C13 1.390(7) .
C12 C14 1.474(7) .
C13 H13 0.9300 .
C14 C19 1.392(7) .
C14 C15 1.393(7) .
C15 C16 1.378(7) .
C15 H15 0.9300 .
C16 C17 1.393(7) .
C16 H16 0.9300 .
C17 C18 1.370(7) .
C17 C20 1.507(7) .
C18 C19 1.391(7) .
C18 H18 0.9300 .
C19 H19 0.9300 .
C22 C23 1.378(9) .
C22 C21 1.382(7) .
C22 H22 0.9300 .
C23 C24 1.331(8) .
C23 H23 0.9300 .
C24 C3AA 1.3900 .
C24 C0AA 1.3900 .
C24 C25 1.405(9) .
C24 C27B 1.527(17) .
C24 C27A 1.529(8) .
C3AA C2AA 1.3900 .
C3AA H3AA 0.9300 .
C2AA C21 1.3900 .
C2AA H2AA 0.9300 .
C21 C1AA 1.3900 .
C21 C26 1.392(8) .
C1AA C0AA 1.3900 .
C1AA H1AA 0.9300 .
C0AA H0AA 0.9300 .
C25 C26 1.380(10) .
C25 H25 0.9300 .
C26 H26 0.9300 .
C27B O0AA 1.249(15) .
C27B O1AA 1.251(15) .
C28B O2AA 1.33(5) .
C28B C29B 1.43(5) .
C29B C7AA 1.36(5) .
C29B C5AA 1.38(5) .
C30 C29A 1.404(12) .
C30 C31 1.406(10) .
C30 H30 0.9300 .
C31 C32A 1.413(14) .
C31 H31 0.9300 .
C32B C6AA 1.26(6) .
C32B C4AA 1.38(6) .
C32B C35 1.53(5) .
C33 C34 1.371(10) .
C33 C32A 1.377(14) .
C33 H33 0.9300 .
C34 C29A 1.339(12) .
C34 H34 0.9300 .
C35 C40 1.376(8) .
C35 C36 1.400(8) .
C35 C32A 1.502(12) .
C36 C37 1.364(8) .
C36 H36 0.9300 .
C37 C38 1.381(9) .
C37 C48 1.493(8) .
C38 C39 1.416(9) .
C38 H38 0.9300 .
C39 C40 1.382(9) .
C39 C41 1.480(9) .
C40 H40 0.9300 .
C41 C46 1.372(13) .
C41 C42 1.418(14) .
C42 C43 1.430(10) .
C42 H42 0.9300 .
C43 C44 1.400(12) .
C43 H43 0.9300 .
C44 C45 1.391(11) .
C44 C47 1.504(9) .
C45 C46 1.412(9) .
C45 H45 0.9300 .
C46 H46 0.9300 .
C48 C53 1.373(9) .
C48 C49 1.393(10) .
C49 C50 1.390(8) .
C49 H49 0.9300 .
C50 C51 1.361(8) .
C50 H50 0.9300 .
C51 C52 1.372(8) .
C51 C54 1.515(7) .
C52 C53 1.385(7) .
C52 H52 0.9300 .
C53 H53 0.9300 .
C55 H55 0.9300 .
C56 C61 1.386(7) .
C56 C57 1.408(7) .
C57 C58 1.387(7) .
C58 C59 1.365(7) .
C58 H58 0.9300 .
C59 C60 1.414(8) .
C59 H59 0.9300 .
C60 C61 1.368(7) .
C60 H60 0.9300 .
C61 H61 0.9300 .
C62 C67 1.372(7) .
C62 C63 1.388(7) .
C63 C64 1.387(7) .
C63 H63 0.9300 .
C64 C65 1.385(7) .
C64 H64 0.9300 .
C65 C66 1.384(7) .
C66 C67 1.387(7) .
C66 H66 0.9300 .
C67 H67 0.9300 .
C68 C69 1.387(7) .
C68 C73 1.404(7) .
C69 C70 1.361(7) .
C69 H69 0.9300 .
C70 C71 1.388(7) .
C70 H70 0.9300 .
C71 C72 1.389(7) .
C72 C73 1.364(7) .
C72 H72 0.9300 .
C73 H73 0.9300 .
C74 H74 0.9300 .
C75 C80 1.384(8) .
C75 C76 1.395(7) .
C76 C77 1.389(8) .
C76 H76 0.9300 .
C77 C78 1.379(10) .
C77 H77 0.9300 .
C78 C79 1.370(9) .
C78 H78 0.9300 .
C79 C80 1.399(8) .
C79 H79 0.9300 .
O1AA Zn2 1.93(2) 1_545
C27A Zn2 2.532(7) 1_545
C7AA C6AA 1.40(5) .
C7AA H7AA 0.9300 .
C5AA C4AA 1.42(4) .
C5AA H5AA 0.9300 .
C29A C28A 1.517(12) .
N2BA C1BA 1.296(10) .
N2BA C0BA 1.440(8) .
N2BA C4BA 1.447(8) .
N8AA C9AA 1.395(10) .
N8AA C3BA 1.487(10) .
N8AA H8AA 0.8900 .
N8AA H8AB 0.8900 .
C4BA H4BA 0.9600 .
C4BA H4BB 0.9600 .
C4BA H4BC 0.9600 .
C0BA H0BA 0.9600 .
C0BA H0BB 0.9600 .
C0BA H0BC 0.9600 .
N5BA C6BA 1.477(14) .
N5BA C1A 1.525(14) .
N5BA H5BA 0.8900 .
N5BA H5BB 0.8900 .
C9AA H9AA 0.9600 .
C9AA H9AB 0.9600 .
C9AA H9AC 0.9600 .
C3BA H3BA 0.9600 .
C3BA H3BB 0.9600 .
C3BA H3BC 0.9600 .
C1BA O6BA 1.250(10) .
C1BA H1BA 0.9300 .
O8BA C9BA 1.282(19) .
N7BA C9BA 1.230(17) .
N7BA C0CA 1.339(15) .
N7BA C2BA 1.371(17) .
C9BA H9BA 0.9300 .
C0CA H0CA 0.9600 .
C0CA H0CB 0.9600 .
C0CA H0CC 0.9600 .
C2BA H2BA 0.9600 .
C2BA H2BB 0.9600 .
C2BA H2BC 0.9600 .
C1A H1AB 0.9600 .
C1A H1AC 0.9600 .
C1A H1AD 0.9600 .
C6BA H6BA 0.9600 .
C6BA H6BB 0.9600 .
C6BA H6BC 0.9600 .
N8BA C7BA 1.30(3) .
N8BA C2CA 1.50(3) .
N8BA C1CA 1.51(3) .
O5BA C7BA 1.10(3) .
C7BA H7BA 0.9300 .
C1CA H1CA 0.9600 .
C1CA H1CB 0.9600 .
C1CA H1CC 0.9600 .
C2CA H2CA 0.9600 .
C2CA H2CB 0.9600 .
C2CA H2CC 0.9600 .
loop_
_platon_squeeze_void_nr
_platon_squeeze_void_average_x
_platon_squeeze_void_average_y
_platon_squeeze_void_average_z
_platon_squeeze_void_volume
_platon_squeeze_void_count_electrons
_platon_squeeze_void_content
1 0.500 0.134 1.000 1020 289 ' '
