#------------------------------------------------------------------------------
#$Date: 2019-11-17 10:55:44 +0200 (Sun, 17 Nov 2019) $
#$Revision: 229454 $
#$URL: file:///home/coder/svn-repositories/cod/cif/7/04/50/7045028.cif $
#------------------------------------------------------------------------------
#
# This file is available in the Crystallography Open Database (COD),
# http://www.crystallography.net/
#
# All data on this site have been placed in the public domain by the
# contributors.
#
data_7045028
loop_
_publ_author_name
'Meng, Xing'
'Wei, Mei-Jie'
'Wang, Hai-Ning'
'Zang, Hong-Ying'
'Zhou, Zi-Yan'
_publ_section_title
;
 Multifunctional luminescent Zn(ii)-based metal-organic framework for high
 proton-conductivity and detection of Cr<sup>3+</sup> ions in the presence
 of mixed metal ions.
;
_journal_issue                   5
_journal_name_full
'Dalton transactions (Cambridge, England : 2003)'
_journal_page_first              1383
_journal_page_last               1387
_journal_paper_doi               10.1039/c7dt03932h
_journal_volume                  47
_journal_year                    2018
_chemical_formula_moiety         'C38 H26 N2 O13 Zn3'
_chemical_formula_sum            'C56 H68 N8 O19 Zn3'
_chemical_formula_weight         1353.29
_space_group_crystal_system      orthorhombic
_space_group_IT_number           19
_space_group_name_Hall           'P 2ac 2ab'
_space_group_name_H-M_alt        'P 21 21 21'
_symmetry_space_group_name_Hall  'P 2ac 2ab'
_symmetry_space_group_name_H-M   'P 21 21 21'
_atom_sites_solution_hydrogens   mixed
_atom_sites_solution_primary     dual
_audit_block_doi                 10.5517/ccdc.csd.cc1pqt29
_audit_creation_date             2017-10-01
_audit_creation_method
;
Olex2 1.2
(compiled 2017.07.20 svn.r3457 for OlexSys, GUI svn.r5381)
;
_audit_update_record
;
2017-10-02 deposited with the CCDC.
2017-12-12 downloaded from the CCDC.
;
_cell_angle_alpha                90
_cell_angle_beta                 90
_cell_angle_gamma                90
_cell_formula_units_Z            4
_cell_length_a                   12.0554(9)
_cell_length_b                   14.9560(11)
_cell_length_c                   36.898(3)
_cell_measurement_reflns_used    5238
_cell_measurement_temperature    296(2)
_cell_measurement_theta_max      20.31
_cell_measurement_theta_min      2.21
_cell_volume                     6652.7(9)
_computing_cell_refinement       'SAINT v8.34A (Bruker, 2013)'
_computing_data_reduction        'SAINT v8.34A (Bruker, 2013)'
_computing_molecular_graphics    'Olex2 (Dolomanov et al., 2009)'
_computing_publication_material  'Olex2 (Dolomanov et al., 2009)'
_computing_structure_refinement  'XL (Sheldrick, 2008)'
_computing_structure_solution    'XT (Sheldrick, 2015)'
_diffrn_ambient_temperature      296.15
_diffrn_measured_fraction_theta_full 0.999
_diffrn_measured_fraction_theta_max 0.999
_diffrn_measurement_device_type  'Bruker APEX-II CCD'
_diffrn_measurement_method       '\f and \w scans'
_diffrn_radiation_type           MoK\a
_diffrn_radiation_wavelength     0.71073
_diffrn_reflns_av_R_equivalents  0.0574
_diffrn_reflns_av_unetI/netI     0.0569
_diffrn_reflns_Laue_measured_fraction_full 0.999
_diffrn_reflns_Laue_measured_fraction_max 0.999
_diffrn_reflns_limit_h_max       11
_diffrn_reflns_limit_h_min       -11
_diffrn_reflns_limit_k_max       14
_diffrn_reflns_limit_k_min       -14
_diffrn_reflns_limit_l_max       36
_diffrn_reflns_limit_l_min       -36
_diffrn_reflns_number            24558
_diffrn_reflns_point_group_measured_fraction_full 0.999
_diffrn_reflns_point_group_measured_fraction_max 0.999
_diffrn_reflns_theta_full        20.533
_diffrn_reflns_theta_max         20.533
_diffrn_reflns_theta_min         1.104
_diffrn_standards_number         0
_exptl_absorpt_coefficient_mu    1.145
_exptl_absorpt_correction_T_max  0.819
_exptl_absorpt_correction_T_min  0.783
_exptl_absorpt_correction_type   multi-scan
_exptl_absorpt_process_details   SADABS
_exptl_crystal_colour            'clear yellowish yellow'
_exptl_crystal_colour_lustre     clear
_exptl_crystal_colour_modifier   yellowish
_exptl_crystal_colour_primary    yellow
_exptl_crystal_density_diffrn    1.351
_exptl_crystal_description       block
_exptl_crystal_F_000             2808
_exptl_crystal_size_max          0.15
_exptl_crystal_size_mid          0.11
_exptl_crystal_size_min          0.1
_platon_squeeze_details
;
TITL 11_a.res in P2(1)2(1)2(1)
CELL   12.0554   14.9560   36.8980     90.00     90.00     90.00
SPGR P212121
# Solvent Accessible Volume =      3533
# Electrons Found in S.A.V. =       915
# Note: Atoms in Void as Cxxx and Qxxx all others
Q101 0.578 0.463 0.436 !       4.13 eA-3
Q102 0.074 0.065 0.551 !       4.04 eA-3
C103 0.875 0.441 0.735 !       3.43 eA-3
C104 0.530 0.542 0.227 !       2.18 eA-3
C105 0.315 0.034 0.242 !       1.94 eA-3
C106 0.058 0.998 0.478 !       1.85 eA-3
C107 0.558 0.488 0.502 !       1.84 eA-3
C108 0.373 0.572 0.001 !       1.81 eA-3
C109 0.937 0.532 0.972 !       1.79 eA-3
C110 0.733 0.653 0.234 !       1.71 eA-3
C111 0.144 0.469 0.514 !       1.58 eA-3
C112 0.783 0.613 0.237 !       1.57 eA-3
C113 0.703 0.402 0.725 !       1.57 eA-3
C114 0.422 0.470 0.508 !       1.47 eA-3
C115 0.189 0.067 0.389 !       1.43 eA-3
C116 0.980 0.974 0.994 !       1.39 eA-3
C117 0.964 0.973 0.975 !       1.38 eA-3
C118 0.607 0.486 0.468 !       1.38 eA-3
C119 0.702 0.537 0.647 !       1.36 eA-3
C120 0.296 0.934 0.859 !       1.35 eA-3
C121 0.596 0.363 0.951 !       1.34 eA-3
C122 0.360 0.760 0.533 !       1.34 eA-3
C123 0.873 0.978 0.567 !       1.33 eA-3
C124 0.640 0.459 0.639 !       1.32 eA-3
C125 0.612 0.460 0.220 !       1.31 eA-3
C126 0.209 0.030 0.418 !       1.31 eA-3
C127 0.316 0.533 0.988 !       1.29 eA-3
C128 0.812 0.769 0.590 !       1.29 eA-3
C129 0.689 0.515 0.659 !       1.28 eA-3
C130 0.765 0.496 0.555 !       1.28 eA-3
C131 0.985 1.004 0.518 !       1.28 eA-3
C132 0.966 1.005 0.950 !       1.26 eA-3
C133 0.454 0.473 0.033 !       1.25 eA-3
C134 0.812 1.003 0.565 !       1.25 eA-3
C135 0.767 0.358 0.667 !       1.25 eA-3
C136 0.009 0.705 0.417 !       1.23 eA-3
C137 0.873 0.661 0.495 !       1.23 eA-3
C138 0.405 0.553 0.498 !       1.22 eA-3
C139 0.955 0.080 0.945 !       1.21 eA-3
C140 0.658 0.485 0.665 !       1.20 eA-3
C141 0.624 0.442 0.961 !       1.20 eA-3
C142 0.296 0.482 0.507 !       1.20 eA-3
C143 0.907 0.029 0.528 !       1.19 eA-3
C144 0.031 0.994 0.946 !       1.19 eA-3
C145 0.125 0.109 0.287 !       1.19 eA-3
C146 0.439 0.083 0.319 !       1.19 eA-3
C147 0.730 0.609 0.131 !       1.18 eA-3
C148 0.517 0.367 0.935 !       1.18 eA-3
C149 0.748 0.403 0.984 !       1.18 eA-3
C150 0.950 0.468 0.542 !       1.18 eA-3
C151 0.642 0.196 0.070 !       1.18 eA-3
C152 0.845 0.404 0.164 !       1.17 eA-3
C153 0.660 0.509 0.608 !       1.17 eA-3
C154 0.108 0.799 0.371 !       1.16 eA-3
C155 0.876 0.843 0.586 !       1.15 eA-3
C156 0.016 0.538 0.021 !       1.14 eA-3
C157 0.545 0.433 0.951 !       1.14 eA-3
C158 0.747 0.479 0.096 !       1.14 eA-3
C159 0.122 0.839 0.541 !       1.13 eA-3
C160 0.047 0.105 0.055 !       1.12 eA-3
C161 0.143 0.919 0.368 !       1.12 eA-3
C162 0.643 0.580 0.632 !       1.11 eA-3
C163 0.902 0.894 0.980 !       1.10 eA-3
C164 0.706 0.987 0.469 !       1.10 eA-3
C165 0.249 0.979 0.477 !       1.09 eA-3
C166 0.889 0.015 0.001 !       1.09 eA-3
C167 0.794 0.069 0.512 !       1.09 eA-3
C168 0.766 0.669 0.258 !       1.08 eA-3
C169 0.639 0.516 0.146 !       1.07 eA-3
C170 0.799 0.215 0.100 !       1.07 eA-3
C171 0.246 0.012 0.011 !       1.06 eA-3
C172 0.313 0.888 0.530 !       1.06 eA-3
C173 0.511 0.840 0.534 !       1.06 eA-3
C174 0.374 0.504 0.482 !       1.05 eA-3
C175 0.120 0.245 0.944 !       1.04 eA-3
C176 0.030 0.209 0.048 !       1.04 eA-3
C177 0.656 0.518 0.491 !       1.04 eA-3
C178 0.489 0.348 0.972 !       1.03 eA-3
C179 0.754 0.520 0.496 !       1.02 eA-3
C180 0.647 0.483 0.024 !       1.02 eA-3
C181 0.359 0.699 0.406 !       1.01 eA-3
C182 0.781 0.288 0.038 !       1.01 eA-3
C183 0.923 0.438 0.966 !       1.01 eA-3
C184 0.981 0.661 0.550 !       1.00 eA-3
C185 0.939 0.384 0.975 !       1.00 eA-3
C186 0.252 0.212 0.883 !       1.00 eA-3
C187 0.892 0.102 0.967 !       1.00 eA-3
C188 0.678 0.458 0.156 !       0.98 eA-3
C189 0.707 0.224 0.116 !       0.98 eA-3
C190 0.364 0.410 0.003 !       0.98 eA-3
C191 0.224 0.048 0.884 !       0.97 eA-3
C192 0.155 0.121 0.299 !       0.96 eA-3
C193 0.499 0.721 0.565 !       0.96 eA-3
C194 0.313 0.226 0.993 !       0.95 eA-3
C195 0.503 0.551 0.195 !       0.95 eA-3
C196 0.643 0.596 0.159 !       0.95 eA-3
C197 0.252 0.469 0.478 !       0.95 eA-3
C198 0.655 0.633 0.211 !       0.94 eA-3
C199 0.215 0.226 0.003 !       0.93 eA-3
;
_refine_diff_density_max         0.405
_refine_diff_density_min         -0.807
_refine_diff_density_rms         0.075
_refine_ls_abs_structure_details
;
 Refined as an inversion twin.
;
_refine_ls_abs_structure_Flack   0.11(3)
_refine_ls_extinction_method     none
_refine_ls_goodness_of_fit_ref   1.033
_refine_ls_hydrogen_treatment    constr
_refine_ls_matrix_type           full
_refine_ls_number_parameters     544
_refine_ls_number_reflns         6670
_refine_ls_number_restraints     209
_refine_ls_restrained_S_all      1.044
_refine_ls_R_factor_all          0.0578
_refine_ls_R_factor_gt           0.0488
_refine_ls_shift/su_max          0.001
_refine_ls_shift/su_mean         0.000
_refine_ls_structure_factor_coef Fsqd
_refine_ls_weighting_details
'w=1/[\s^2^(Fo^2^)+(0.1007P)^2^] where P=(Fo^2^+2Fc^2^)/3'
_refine_ls_weighting_scheme      calc
_refine_ls_wR_factor_gt          0.1322
_refine_ls_wR_factor_ref         0.1391
_reflns_Friedel_coverage         0.771
_reflns_Friedel_fraction_full    1.000
_reflns_Friedel_fraction_max     1.000
_reflns_number_gt                5812
_reflns_number_total             6670
_reflns_threshold_expression     'I > 2\s(I)'
_iucr_refine_instructions_details
;

    11_sq.res created by SHELXL-2014/7

TITL 11_a.res in P2(1)2(1)2(1)
REM Old TITL 11 in P2(1)2(1)2(1)
REM SHELXT solution in P2(1)2(1)2(1)
REM R1 0.158, Rweak 0.037, Alpha 0.003, Orientation as input
REM Flack x = 0.158 ( 0.011 ) from Parsons' quotients
REM Formula found by SHELXT: C34 N8 O11 Zn3
CELL 0.71073 12.0554 14.956 36.8976 90 90 90
ZERR 4 0.0009 0.0011 0.0027 0 0 0
LATT -1
SYMM 0.5-X,-Y,0.5+Z
SYMM -X,0.5+Y,0.5-Z
SYMM 0.5+X,0.5-Y,-Z
SFAC C H N O Zn
UNIT 224 272 32 76 12
DFIX 1.3 O13 C36
DFIX 1.4 C36A N2A
DFIX 1.3 C36A O13
DFIX 2.3 N2A O13
DFIX 1.4 N2A C38A
DFIX 2.5 C36A C38A
DFIX 1.4 N2 C36 N2 C38 N2 C37
DFIX 1.4 N2A C37A
DFIX 2.5 C37A C36A
SIMU 0.01 0.02 1.7 N1 C29 > C35
SIMU 0.01 0.02 1.7 C19 C22 > C28
SIMU 0.01 0.02 1.7 C8 > C13
SIMU 0.02 0.04 1.7 O13
SIMU 0.01 0.02 1.7 O13 N2 > C38
SIMU 0.01 0.02 1.7 O13 N2A > C38A
ISOR 0.01 0.02 C35
ISOR 0.01 0.02 C25
ISOR 0.01 0.02 C8
 
L.S. 20 0 259
PLAN  20
SIZE 0.1 0.11 0.15
TEMP 23
BOND $H
list 4
ABIN
fmap 2
acta
TWIN -1 0 0 0 -1 0 0 0 -1 2
REM <olex2.extras>
REM <HklSrc "%.\\11_sq.hkl">
REM </olex2.extras>
 
WGHT    0.100700
BASF   0.11184
FVAR       0.31022   0.85311
ZN1   5    1.050144   -0.370348    0.823857    11.00000    0.02703    0.03436 =
         0.02772    0.00272   -0.00499   -0.00015
ZN2   5    0.466345    0.241950    0.576418    11.00000    0.01344    0.03977 =
         0.02839    0.01058    0.00051    0.00626
ZN3   5    0.176543    0.159874    0.604211    11.00000    0.06868    0.10394 =
         0.09313    0.01110    0.00132    0.00142
O1    4    0.270641    0.301219    0.603505    11.00000    0.04703    0.02473 =
         0.15418   -0.00553    0.01795    0.00061
O2    4    0.431921    0.359167    0.595535    11.00000    0.04121    0.03812 =
         0.10426   -0.02377    0.00395    0.00994
O3    4   -0.039319    0.997222    0.675349    11.00000    0.06209    0.03867 =
         0.07316   -0.00538    0.02246   -0.00873
O4    4    0.079051    1.047429    0.636061    11.00000    0.05974    0.03457 =
         0.10800    0.02073    0.01966   -0.01149
O5    4    0.337069    0.078092    0.615342    11.00000    0.04232    0.04556 =
         0.06832    0.03086    0.00370    0.02076
O6    4    0.496083    0.149711    0.610637    11.00000    0.03123    0.06304 =
         0.06503    0.04511   -0.00631    0.00028
O7    4    0.804485   -0.298482    0.835463    11.00000    0.08410    0.12321 =
         0.04316    0.03034   -0.02200    0.03821
O8    4    0.944501   -0.303923    0.795579    11.00000    0.04466    0.06680 =
         0.05867    0.02679   -0.01944    0.01052
O9    4    0.235737    0.188480    0.542505    11.00000    0.04142    0.13888 =
         0.03020    0.03238    0.00548   -0.02661
O10   4    0.408554    0.223340    0.527797    11.00000    0.01713    0.09363 =
         0.03205    0.01465   -0.01632   -0.00174
O11   4    0.364866    0.316185    0.362390    11.00000    0.02495    0.06326 =
         0.02536    0.00421    0.00123   -0.01259
O12   4    0.503513    0.270229    0.398092    11.00000    0.01817    0.06598 =
         0.06207    0.02018   -0.00007   -0.00762
O13   4    1.166759   -0.366329    0.784821    11.00000    0.06025    0.09906 =
         0.08868    0.02023    0.02434   -0.01915
N1    3    0.132353    0.244032    0.437989    11.00000    0.01768    0.04609 =
         0.02155    0.00813   -0.00288   -0.00786
C1    1    0.326746    0.365270    0.603865    11.00000    0.03866    0.03005 =
         0.05423    0.00712    0.00839    0.00696
C2    1    0.288024    0.453371    0.614363    11.00000    0.06327    0.02917 =
         0.07700   -0.01271    0.01427   -0.00547
C3    1    0.177886    0.467106    0.627706    11.00000    0.06305    0.03839 =
         0.13120   -0.01467    0.05254   -0.00780
AFIX  43
H3    2    0.131970    0.418607    0.632581    11.00000   -1.20000
AFIX   0
C4    1    0.140913    0.552903    0.633214    11.00000    0.06999    0.06246 =
         0.12990    0.01024    0.06611    0.02709
AFIX  43
H4    2    0.066827    0.561080    0.639410    11.00000   -1.20000
AFIX   0
C5    1    0.206509    0.626793    0.630127    11.00000    0.05997    0.04270 =
         0.09226    0.00630    0.02805   -0.00092
C6    1    0.311678    0.612248    0.617599    11.00000    0.06334    0.03715 =
         0.15504   -0.00889    0.04328   -0.02530
AFIX  43
H6    2    0.356763    0.661617    0.613372    11.00000   -1.20000
AFIX   0
C7    1    0.355103    0.527449    0.610804    11.00000    0.05001    0.04288 =
         0.13985   -0.03998    0.01101    0.00409
AFIX  43
H7    2    0.428870    0.520945    0.603916    11.00000   -1.20000
AFIX   0
C8    1    0.160195    0.719230    0.636579    11.00000    0.08163    0.03063 =
         0.08994   -0.00348    0.03953    0.02479
C9    1    0.080422    0.734866    0.659993    11.00000    0.09902    0.03453 =
         0.12259    0.01803    0.04707    0.00722
AFIX  43
H9    2    0.048410    0.686884    0.672143    11.00000   -1.20000
AFIX   0
C10   1    0.041492    0.822517    0.667359    11.00000    0.08145    0.04619 =
         0.10645    0.01750    0.04897    0.01337
AFIX  43
H10   2   -0.011180    0.832299    0.685342    11.00000   -1.20000
AFIX   0
C11   1    0.082515    0.892181    0.647657    11.00000    0.06243    0.02965 =
         0.08325   -0.00585    0.02317   -0.00222
C12   1    0.167020    0.871530    0.623026    11.00000    0.08965    0.04077 =
         0.10512   -0.01403    0.04494   -0.00938
AFIX  43
H12   2    0.196383    0.917935    0.609263    11.00000   -1.20000
AFIX   0
C13   1    0.207421    0.791286    0.618087    11.00000    0.09733    0.04324 =
         0.11113   -0.01402    0.04919    0.01147
AFIX  43
H13   2    0.266887    0.782312    0.602449    11.00000   -1.20000
AFIX   0
C14   1    0.038612    0.985063    0.652654    11.00000    0.03833    0.04638 =
         0.05538   -0.01300    0.00513    0.00948
C15   1    0.437366    0.089566    0.622757    11.00000    0.02607    0.05037 =
         0.04986    0.02927   -0.00741    0.01452
C16   1    0.488894    0.021635    0.648229    11.00000    0.03305    0.06068 =
         0.05319    0.02417   -0.01250    0.01315
C17   1    0.606852    0.022267    0.650419    11.00000    0.04013    0.06571 =
         0.07645    0.02645   -0.00812    0.00022
AFIX  43
H17   2    0.649667    0.058927    0.635627    11.00000   -1.20000
AFIX   0
C18   1    0.654133   -0.033816    0.675399    11.00000    0.02439    0.06379 =
         0.09801    0.04396   -0.00947    0.00952
AFIX  43
H18   2    0.731098   -0.033659    0.677114    11.00000   -1.20000
AFIX   0
C19   1    0.600053   -0.087348    0.696945    11.00000    0.02989    0.05875 =
         0.06067    0.03827   -0.00198   -0.00215
C20   1    0.481899   -0.086675    0.694569    11.00000    0.05639    0.09432 =
         0.11224    0.08157    0.00434    0.01619
AFIX  43
H20   2    0.440508   -0.120816    0.710721    11.00000   -1.20000
AFIX   0
C21   1    0.429261   -0.037227    0.669226    11.00000    0.04029    0.08839 =
         0.09160    0.06727   -0.00281    0.00667
AFIX  43
H21   2    0.353086   -0.042945    0.665988    11.00000   -1.20000
AFIX   0
C22   1    0.658117   -0.144485    0.724224    11.00000    0.03840    0.06964 =
         0.05772    0.03565   -0.01863    0.01127
C23   1    0.751783   -0.183955    0.716883    11.00000    0.06668    0.08564 =
         0.05707    0.03798   -0.00657    0.02727
AFIX  43
H23   2    0.777692   -0.180899    0.693174    11.00000   -1.20000
AFIX   0
C24   1    0.815089   -0.229829    0.741703    11.00000    0.05281    0.08337 =
         0.07336    0.03027    0.00232    0.03472
AFIX  43
H24   2    0.882521   -0.254444    0.734608    11.00000   -1.20000
AFIX   0
C25   1    0.778690   -0.239925    0.777867    11.00000    0.04287    0.05625 =
         0.03942    0.02508   -0.01032    0.01580
C26   1    0.681493   -0.201395    0.786297    11.00000    0.07500    0.08705 =
         0.06953    0.02686    0.00462    0.01506
AFIX  43
H26   2    0.656145   -0.203774    0.810082    11.00000   -1.20000
AFIX   0
C27   1    0.615363   -0.156290    0.759213    11.00000    0.05969    0.07757 =
         0.06941    0.02972   -0.01398    0.02402
AFIX  43
H27   2    0.544939   -0.135251    0.764969    11.00000   -1.20000
AFIX   0
C28   1    0.846016   -0.280536    0.804625    11.00000    0.06273    0.05282 =
         0.04730    0.00834   -0.01079    0.00617
C29   1    0.307324    0.209298    0.521638    11.00000    0.03876    0.05842 =
         0.02699    0.00261   -0.00117    0.00755
C30   1    0.275846    0.225233    0.481778    11.00000    0.02313    0.04749 =
         0.02839   -0.00308   -0.00433   -0.00248
C31   1    0.164116    0.225795    0.472147    11.00000    0.01831    0.04603 =
         0.02619    0.00593    0.00540    0.00578
AFIX  43
H31   2    0.110653    0.213368    0.489606    11.00000   -1.20000
AFIX   0
C32   1    0.208716    0.262909    0.414281    11.00000    0.01413    0.04621 =
         0.01858    0.01676   -0.00016   -0.00835
AFIX  43
H32   2    0.185310    0.277059    0.390959    11.00000   -1.20000
AFIX   0
C33   1    0.324751    0.263774    0.420941    11.00000    0.01172    0.04800 =
         0.02866    0.00776   -0.00218   -0.00684
C34   1    0.354601    0.243254    0.455320    11.00000    0.00992    0.04990 =
         0.03579   -0.00820   -0.00776   -0.00755
AFIX  43
H34   2    0.429468    0.241186    0.461340    11.00000   -1.20000
AFIX   0
C35   1    0.402926    0.283206    0.392633    11.00000    0.01267    0.04690 =
         0.04224    0.00619    0.00398   -0.01604
PART 1
N2    3    1.336397   -0.365471    0.757764    21.00000    0.10195    0.13701 =
         0.11990    0.00459    0.03084   -0.00374
C36   1    1.265234   -0.355651    0.786790    21.00000    0.08523    0.11312 =
         0.10340   -0.00105    0.03472   -0.01189
AFIX  43
H36   2    1.295256   -0.339887    0.809111    21.00000   -1.20000
AFIX   0
C37   1    1.448392   -0.344909    0.762224    21.00000    0.11957    0.15553 =
         0.17924    0.02661   -0.00639   -0.03429
AFIX   3
H37A  2    1.459362   -0.318549    0.785674    21.00000   -1.50000
H37B  2    1.470672   -0.303279    0.743814    21.00000   -1.50000
H37C  2    1.492132   -0.398329    0.760274    21.00000   -1.50000
AFIX   0
C38   1    1.297350   -0.415849    0.726522    21.00000    0.13389    0.13820 =
         0.15887    0.01653   -0.00045    0.00441
AFIX 137
H38A  2    1.226910   -0.442518    0.732036    21.00000   -1.50000
H38B  2    1.349954   -0.461887    0.720751    21.00000   -1.50000
H38C  2    1.289429   -0.376371    0.706170    21.00000   -1.50000
AFIX   0
PART 0
PART 2
N2A   3    1.304716   -0.369890    0.741489   -21.00000    0.07683    0.11552 =
         0.10372    0.02173    0.01058   -0.00623
C36A  1    1.204398   -0.401023    0.755220   -21.00000    0.06948    0.10939 =
         0.09884    0.02299    0.01490   -0.01189
AFIX  43
H36A  2    1.165270   -0.445875    0.743331   -21.00000   -1.20000
AFIX   0
C37A  1    1.411219   -0.400268    0.750680   -21.00000    0.08396    0.12255 =
         0.10563    0.02348   -0.00006   -0.00329
AFIX   3
H37D  2    1.453628   -0.406668    0.728820   -21.00000   -1.50000
H37E  2    1.406778   -0.456948    0.762810   -21.00000   -1.50000
H37F  2    1.446618   -0.357528    0.766290   -21.00000   -1.50000
AFIX   0
C38A  1    1.325862   -0.336362    0.706598   -21.00000    0.08941    0.11967 =
         0.10746    0.01376    0.02246   -0.00402
AFIX   3
H38D  2    1.403962   -0.326762    0.703278   -21.00000   -1.50000
H38E  2    1.287122   -0.280752    0.703638   -21.00000   -1.50000
H38F  2    1.299772   -0.378582    0.688958   -21.00000   -1.50000
AFIX   0
HKLF 4
 
REM  11_a.res in P2(1)2(1)2(1)
REM R1 =  0.0488 for    5812 Fo > 4sig(Fo)  and  0.0578 for all    6670 data
REM    544 parameters refined using    209 restraints
 
END  
     
WGHT      0.1008      0.0000 

REM Highest difference peak  0.405,  deepest hole -0.807,  1-sigma level  0.075
Q1    1   0.0944  0.0734  0.5670  11.00000  0.05    0.40
Q2    1   0.3130  0.2012  0.5600  11.00000  0.05    0.31
Q3    1   0.5667 -0.0651  0.7063  11.00000  0.05    0.30
Q4    1   0.4355 -0.0218  0.6848  11.00000  0.05    0.30
Q5    1  -0.1189  1.0294  0.6741  11.00000  0.05    0.28
Q6    1   1.1159 -0.3222  0.8265  11.00000  0.05    0.27
Q7    1   0.5788  0.2712  0.3940  11.00000  0.05    0.27
Q8    1   0.3623  0.2700  0.5422  11.00000  0.05    0.27
Q9    1   0.6396 -0.3172  0.7875  11.00000  0.05    0.26
Q10   1   0.3432  0.1406  0.6475  11.00000  0.05    0.26
Q11   1   0.3267  0.1786  0.4712  11.00000  0.05    0.25
Q12   1   0.0003  1.0487  0.7078  11.00000  0.05    0.25
Q13   1  -0.0487  1.0440  0.6481  11.00000  0.05    0.24
Q14   1   0.3968 -0.1836  0.7127  11.00000  0.05    0.24
Q15   1   0.2292  0.1987  0.5675  11.00000  0.05    0.24
Q16   1   0.0986  1.1074  0.6258  11.00000  0.05    0.24
Q17   1   0.8026 -0.2333  0.7746  11.00000  0.05    0.23
Q18   1   0.6244 -0.1242  0.7311  11.00000  0.05    0.23
Q19   1   0.1621  0.2446  0.4657  11.00000  0.05    0.23
Q20   1   1.2402 -0.4965  0.7149  11.00000  0.05    0.23

  REM The information below was added by Olex2.
  REM
  REM R1 = 0.0488 for 5812 Fo > 4sig(Fo) and 0.0578 for all 24609 data
  REM n/a parameters refined using n/a restraints
  REM Highest difference peak 0.41, deepest hole -0.81
  REM Mean Shift 0, Max Shift -0.001.

  REM +++ Tabular Listing of Refinement Information +++
  REM R1_all = 0.0578
  REM R1_gt = 0.0488
  REM wR_ref = 0.1391
  REM GOOF = 1.033
  REM Shift_max = -0.001
  REM Shift_mean = 0
  REM Reflections_all = 24609
  REM Reflections_gt = 5812
  REM Parameters = n/a
  REM Hole = -0.81
  REM Peak = 0.41
  REM Flack = n/a

  
;
_cod_data_source_file            c7dt03932h2.cif
_cod_data_source_block           11_sq
_cod_depositor_comments          'Adding full bibliography for 7045028.cif.'
_cod_database_code               7045028
_shelx_shelxl_version_number     2014/7
_shelx_space_group_comment
;
The symmetry employed for this shelxl refinement is uniquely defined
by the following loop, which should always be used as a source of
symmetry information in preference to the above space-group names.
They are only intended as comments.
;
_shelx_estimated_absorpt_t_max   0.894
_shelx_estimated_absorpt_t_min   0.847
_olex2_refinement_description
;
1. Twinned data refinement
 Scales: 0.89(3)
 0.11(3)
2. Fixed Uiso
 At 1.2 times of:
  All C(H) groups
 At 1.5 times of:
  All C(H,H,H) groups
3. Restrained distances
 O13-C36
 1.3 with sigma of 0.02
 C36A-N2A
 1.4 with sigma of 0.02
 C36A-O13
 1.3 with sigma of 0.02
 N2A-O13
 2.3 with sigma of 0.02
 N2A-C38A
 1.4 with sigma of 0.02
 C36A-C38A
 2.5 with sigma of 0.02
 N2-C36 = N2-C38 = N2-C37
 1.4 with sigma of 0.02
 N2A-C37A
 1.4 with sigma of 0.02
 C37A-C36A
 2.5 with sigma of 0.02
4. Uiso/Uaniso restraints and constraints
N1 \\sim C29 \\sim C30 \\sim C31 \\sim C32 \\sim C33 \\sim C34 \\sim C35:
within 1.7A with sigma of 0.01 and sigma for terminal atoms of 0.02
C19 \\sim C22 \\sim C23 \\sim C24 \\sim C25 \\sim C26 \\sim C27 \\sim C28:
within 1.7A with sigma of 0.01 and sigma for terminal atoms of 0.02
C8 \\sim C9 \\sim C10 \\sim C11 \\sim C12 \\sim C13: within 1.7A with sigma of
0.01 and sigma for terminal atoms of 0.02
O13: within 1.7A with sigma of 0.02 and sigma for terminal atoms of 0.04
O13 \\sim N2 \\sim C36 \\sim C37 \\sim C38: within 1.7A with sigma of 0.01 and
sigma for terminal atoms of 0.02
O13 \\sim N2A \\sim C36A \\sim C37A \\sim C38A: within 1.7A with sigma of 0.01
and sigma for terminal atoms of 0.02
Uanis(C35) \\sim Ueq: with sigma of 0.01 and sigma for terminal atoms of 0.02
Uanis(C25) \\sim Ueq: with sigma of 0.01 and sigma for terminal atoms of 0.02
Uanis(C8) \\sim Ueq: with sigma of 0.01 and sigma for terminal atoms of 0.02
5. Others
 Sof(N2A)=Sof(C36A)=Sof(H36A)=Sof(C37A)=Sof(H37D)=Sof(H37E)=Sof(H37F)=
 Sof(C38A)=Sof(H38D)=Sof(H38E)=Sof(H38F)=1-FVAR(1)
 Sof(N2)=Sof(C36)=Sof(H36)=Sof(C37)=Sof(H37A)=Sof(H37B)=Sof(H37C)=Sof(C38)=
 Sof(H38A)=Sof(H38B)=Sof(H38C)=FVAR(1)
6.a Riding coordinates:
 C37(H37A,H37B,H37C), C37A(H37D,H37E,H37F), C38A(H38D,H38E,H38F)
6.b Aromatic/amide H refined with riding coordinates:
 C3(H3), C4(H4), C6(H6), C7(H7), C9(H9), C10(H10), C12(H12), C13(H13),
 C17(H17), C18(H18), C20(H20), C21(H21), C23(H23), C24(H24), C26(H26), C27(H27),
  C31(H31), C32(H32), C34(H34), C36(H36), C36A(H36A)
6.c Idealised Me refined as rotating group:
 C38(H38A,H38B,H38C)
;
_shelx_fab_file
;
 2 0 0 -14.52 0.54
 4 0 0 -14.07 -0.33
 6 0 0 1.05 -0.52
 8 0 0 2.40 0.43
 10 0 0 2.97 -0.04
 11 1 0 -0.07 -1.50
 10 1 0 3.91 0.02
 9 1 0 0.23 4.38
 8 1 0 1.37 0.15
 7 1 0 0.13 -3.29
 6 1 0 8.36 -0.10
 5 1 0 -2.90 5.22
 4 1 0 -3.86 0.38
 3 1 0 -2.92 5.29
 2 1 0 3.63 -0.93
 1 1 0 10.71 187.37
 11 2 0 0.30 4.79
 10 2 0 -4.73 -0.11
 9 2 0 0.05 1.78
 8 2 0 -0.03 -0.30
 7 2 0 0.28 -8.67
 6 2 0 10.41 -0.32
 5 2 0 0.01 5.58
 4 2 0 -15.26 -0.23
 3 2 0 0.04 25.66
 2 2 0 4.73 -0.09
 1 2 0 -1.00 -9.90
 11 3 0 -0.09 -15.67
 10 3 0 3.50 -0.29
 9 3 0 -0.65 0.91
 8 3 0 2.30 0.11
 7 3 0 -0.09 0.52
 6 3 0 -3.85 0.20
 5 3 0 -0.71 -6.53
 4 3 0 -8.41 -0.07
 3 3 0 -0.15 4.61
 2 3 0 -1.58 -0.12
 1 3 0 3.15 -20.16
 11 4 0 -0.06 -4.36
 10 4 0 -0.12 -0.57
 9 4 0 0.14 0.52
 8 4 0 1.21 0.19
 7 4 0 0.11 -6.64
 6 4 0 5.31 0.89
 5 4 0 0.20 4.26
 4 4 0 5.50 0.93
 3 4 0 0.73 -0.72
 2 4 0 12.32 -0.74
 1 4 0 0.45 0.72
 0 4 0 62.92 -3.71
 11 5 0 0.29 -0.23
 10 5 0 0.99 -0.01
 9 5 0 -3.20 0.28
 8 5 0 -2.31 0.39
 7 5 0 -0.59 -1.94
 6 5 0 -0.74 -0.16
 5 5 0 0.81 6.22
 4 5 0 -2.58 0.20
 3 5 0 1.02 1.85
 2 5 0 -26.43 0.70
 1 5 0 1.39 -5.99
 10 6 0 -4.96 -0.48
 9 6 0 -0.02 -1.76
 8 6 0 -0.97 1.22
 7 6 0 -0.04 -2.09
 6 6 0 -0.41 1.40
 5 6 0 -0.09 -11.57
 4 6 0 1.00 0.34
 3 6 0 -0.24 -1.55
 2 6 0 -3.26 0.03
 1 6 0 0.71 0.58
 0 6 0 30.96 -1.15
 10 7 0 3.19 -0.24
 9 7 0 -0.91 -1.21
 8 7 0 3.14 0.04
 7 7 0 -0.48 -0.14
 6 7 0 0.12 0.13
 5 7 0 0.12 3.94
 4 7 0 -3.48 0.36
 3 7 0 -0.08 -4.18
 2 7 0 -13.10 0.89
 1 7 0 -0.11 -6.13
 9 8 0 -0.29 0.25
 8 8 0 0.50 -0.06
 7 8 0 -0.36 -1.96
 6 8 0 4.74 0.48
 5 8 0 -0.15 -2.80
 4 8 0 0.41 0.99
 3 8 0 -0.91 -0.23
 2 8 0 -6.02 0.18
 1 8 0 0.99 -0.26
 0 8 0 3.89 -1.79
 9 9 0 0.15 -1.30
 8 9 0 -1.90 0.04
 7 9 0 -0.27 -2.01
 6 9 0 2.18 0.14
 5 9 0 -0.70 6.26
 4 9 0 -0.17 -0.07
 3 9 0 1.28 6.42
 2 9 0 2.46 0.93
 1 9 0 -1.24 -4.48
 8 10 0 2.25 -0.31
 7 10 0 -0.73 5.55
 6 10 0 1.04 -0.16
 5 10 0 0.07 -5.13
 4 10 0 -3.53 1.00
 3 10 0 0.39 -2.71
 2 10 0 -1.31 0.82
 1 10 0 1.52 -0.84
 0 10 0 -7.71 1.90
 7 11 0 -0.03 -1.26
 6 11 0 5.60 0.35
 5 11 0 0.00 -2.83
 4 11 0 -1.00 0.08
 3 11 0 -0.87 -3.17
 2 11 0 0.94 0.61
 1 11 0 -0.72 0.82
 6 12 0 3.53 -0.07
 5 12 0 0.21 -7.20
 4 12 0 4.85 -1.11
 3 12 0 -0.91 -3.32
 2 12 0 -3.10 1.25
 1 12 0 -0.12 -0.24
 0 12 0 0.12 2.69
 5 13 0 -0.25 4.86
 4 13 0 2.48 0.39
 3 13 0 -3.95 5.36
 2 13 0 -4.07 0.28
 1 13 0 0.00 5.28
 3 14 0 -0.31 -3.71
 2 14 0 -2.23 0.83
 1 14 0 -0.27 5.71
 0 14 0 0.56 0.49
 3 14 1 -0.55 -3.62
 2 14 1 -0.41 0.46
 1 14 1 1.80 3.23
 0 14 1 -0.47 -0.37
 5 13 1 -1.87 -1.31
 4 13 1 0.63 1.70
 3 13 1 2.15 1.25
 2 13 1 -5.26 -0.38
 1 13 1 0.56 -0.21
 0 13 1 -1.19 7.47
 6 12 1 -0.61 2.17
 5 12 1 1.10 -1.82
 4 12 1 -4.46 -4.03
 3 12 1 8.45 0.30
 2 12 1 -3.04 0.30
 1 12 1 4.15 0.12
 0 12 1 1.00 -1.06
 7 11 1 -12.35 -1.86
 6 11 1 1.85 -0.91
 5 11 1 -4.20 -2.56
 4 11 1 -0.48 -3.11
 3 11 1 -4.08 -0.49
 2 11 1 1.05 -2.62
 1 11 1 -1.98 2.51
 0 11 1 -0.51 1.45
 8 10 1 3.98 -1.19
 7 10 1 0.79 -0.59
 6 10 1 -3.10 2.15
 5 10 1 -4.85 -0.86
 4 10 1 -4.96 1.25
 3 10 1 -1.57 1.81
 2 10 1 -2.21 1.49
 1 10 1 3.23 -0.08
 0 10 1 -2.15 0.54
 9 9 1 5.44 2.14
 8 9 1 -2.92 1.00
 7 9 1 -2.40 -2.30
 6 9 1 -4.04 5.26
 5 9 1 -3.41 -0.94
 4 9 1 1.47 -2.55
 3 9 1 -4.01 6.20
 2 9 1 -1.01 0.31
 1 9 1 3.32 0.01
 0 9 1 -0.74 -11.51
 9 8 1 -4.69 1.36
 8 8 1 -1.27 -2.66
 7 8 1 -0.22 -2.79
 6 8 1 -7.02 0.64
 5 8 1 -3.89 1.84
 4 8 1 -6.84 1.25
 3 8 1 5.26 -0.23
 2 8 1 1.23 5.46
 1 8 1 1.07 0.44
 0 8 1 4.39 -0.62
 10 7 1 -4.76 0.97
 9 7 1 -2.47 -0.50
 8 7 1 1.32 3.66
 7 7 1 -0.85 -0.87
 6 7 1 -0.88 -0.78
 5 7 1 4.46 5.12
 4 7 1 -3.33 -0.55
 3 7 1 5.64 3.93
 2 7 1 0.31 -1.74
 1 7 1 5.74 7.41
 0 7 1 -1.32 -16.40
 10 6 1 0.37 0.13
 9 6 1 -2.55 1.74
 8 6 1 -3.94 -1.40
 7 6 1 -1.90 -2.86
 6 6 1 -3.94 -0.74
 5 6 1 -0.23 -6.83
 4 6 1 -2.08 -4.97
 3 6 1 17.78 2.20
 2 6 1 -8.36 3.43
 1 6 1 -11.43 -2.50
 0 6 1 6.96 -0.40
 11 5 1 -2.05 2.09
 10 5 1 -0.63 3.30
 9 5 1 -2.55 -3.02
 8 5 1 3.46 1.01
 7 5 1 5.62 2.23
 6 5 1 0.77 1.73
 5 5 1 0.52 4.55
 4 5 1 -6.44 2.12
 3 5 1 12.08 -6.47
 2 5 1 -6.05 -13.26
 1 5 1 -24.47 10.20
 0 5 1 1.00 -26.75
 11 4 1 4.79 3.17
 10 4 1 2.45 3.83
 9 4 1 0.01 0.35
 8 4 1 -0.93 1.23
 7 4 1 -2.61 -3.75
 6 4 1 -4.84 -4.47
 5 4 1 13.56 -3.22
 4 4 1 0.78 -11.73
 3 4 1 18.21 3.04
 2 4 1 -4.12 4.97
 1 4 1 3.26 -3.85
 0 4 1 -5.42 -0.11
 11 3 1 -10.59 -3.50
 10 3 1 4.68 -1.94
 9 3 1 -0.16 -3.59
 8 3 1 1.16 -1.44
 7 3 1 9.87 -0.19
 6 3 1 -8.52 -1.63
 5 3 1 1.15 1.66
 4 3 1 6.30 -8.09
 3 3 1 9.34 5.43
 2 3 1 14.67 1.76
 1 3 1 -33.42 -39.02
 0 3 1 2.34 -68.27
 11 2 1 -4.44 1.83
 10 2 1 0.19 0.46
 9 2 1 -0.49 -4.30
 8 2 1 -0.43 -2.26
 7 2 1 0.12 -6.05
 6 2 1 -3.02 3.88
 5 2 1 5.08 -2.14
 4 2 1 -2.62 -6.54
 3 2 1 -0.48 -5.54
 2 2 1 21.09 -26.03
 1 2 1 -18.74 -61.01
 0 2 1 -103.38 0.70
 11 1 1 -3.33 -1.19
 10 1 1 3.98 1.93
 9 1 1 -0.63 -0.79
 8 1 1 3.85 1.63
 7 1 1 5.60 0.82
 6 1 1 9.39 -3.04
 5 1 1 17.00 -0.75
 4 1 1 4.49 1.17
 3 1 1 21.03 10.65
 2 1 1 19.92 13.58
 1 1 1 -8.18 -19.50
 11 0 1 0.05 -1.44
 10 0 1 0.07 1.08
 9 0 1 0.30 -2.48
 8 0 1 0.17 -0.24
 7 0 1 -0.33 2.94
 6 0 1 -0.68 2.29
 5 0 1 0.39 -10.71
 4 0 1 0.92 -16.92
 3 0 1 -0.54 13.10
 2 0 1 0.27 -45.96
 1 0 1 -0.14 -52.58
 3 14 2 -1.26 3.75
 2 14 2 -0.99 -0.49
 1 14 2 2.92 2.85
 0 14 2 -6.13 0.18
 5 13 2 -0.61 0.96
 4 13 2 3.87 -1.03
 3 13 2 -2.47 0.41
 2 13 2 5.76 -0.23
 1 13 2 2.19 0.89
 0 13 2 -1.37 -3.58
 6 12 2 1.51 2.84
 5 12 2 0.75 0.71
 4 12 2 1.67 1.83
 3 12 2 1.78 2.64
 2 12 2 -2.26 -0.45
 1 12 2 1.89 -1.70
 0 12 2 -4.02 -0.16
 7 11 2 -0.47 1.19
 6 11 2 0.93 -4.12
 5 11 2 -1.81 -1.44
 4 11 2 1.28 2.07
 3 11 2 2.48 -5.80
 2 11 2 -0.91 -1.83
 1 11 2 -1.93 2.95
 0 11 2 -2.62 -5.81
 8 10 2 -0.62 3.27
 7 10 2 -1.37 3.43
 6 10 2 -0.01 -3.08
 5 10 2 0.24 1.30
 4 10 2 -1.03 0.56
 3 10 2 4.26 -3.31
 2 10 2 -7.35 -8.73
 1 10 2 2.69 2.72
 0 10 2 3.23 -1.56
 9 9 2 4.36 0.59
 8 9 2 -0.81 -2.07
 7 9 2 -0.96 0.30
 6 9 2 4.31 1.68
 5 9 2 3.25 0.35
 4 9 2 2.69 0.70
 3 9 2 2.48 -1.17
 2 9 2 -6.14 -0.02
 1 9 2 -8.14 9.81
 0 9 2 -0.77 6.86
 9 8 2 -0.46 -1.49
 8 8 2 3.43 2.02
 7 8 2 0.15 -1.58
 6 8 2 4.24 4.90
 5 8 2 0.48 0.48
 4 8 2 -4.89 -3.32
 3 8 2 -2.01 0.59
 2 8 2 -5.55 -5.98
 1 8 2 2.07 7.94
 0 8 2 11.10 -1.47
 10 7 2 0.65 1.63
 9 7 2 2.12 4.85
 8 7 2 1.73 -0.25
 7 7 2 -0.93 -1.97
 6 7 2 0.77 1.27
 5 7 2 5.55 0.61
 4 7 2 5.91 -7.20
 3 7 2 -8.63 14.79
 2 7 2 -9.38 -3.12
 1 7 2 -5.21 -5.61
 0 7 2 -1.13 -5.90
 10 6 2 -5.27 0.93
 9 6 2 0.65 -1.79
 8 6 2 1.39 2.11
 7 6 2 -0.22 -2.29
 6 6 2 -1.59 3.96
 5 6 2 -0.25 5.84
 4 6 2 -12.87 -0.73
 3 6 2 0.19 6.58
 2 6 2 3.75 -5.34
 1 6 2 7.77 8.15
 0 6 2 24.41 -0.54
 11 5 2 3.69 -1.71
 10 5 2 -3.43 2.14
 9 5 2 -1.33 4.03
 8 5 2 1.80 1.69
 7 5 2 -2.44 -2.54
 6 5 2 4.33 -2.42
 5 5 2 0.41 3.95
 4 5 2 -0.33 -7.55
 3 5 2 -14.24 5.73
 2 5 2 -25.12 -10.72
 1 5 2 -6.35 13.81
 0 5 2 0.25 13.30
 11 4 2 1.29 -2.04
 10 4 2 -6.01 4.66
 9 4 2 0.95 -2.75
 8 4 2 -3.18 1.01
 7 4 2 0.59 -0.24
 6 4 2 -2.14 -0.47
 5 4 2 -0.75 9.05
 4 4 2 -1.84 -10.68
 3 4 2 -2.16 9.73
 2 4 2 -22.20 -3.25
 1 4 2 2.35 27.77
 0 4 2 87.07 -1.38
 11 3 2 0.04 -14.41
 10 3 2 3.61 0.32
 9 3 2 2.43 -2.03
 8 3 2 -0.44 -4.60
 7 3 2 -0.07 -3.14
 6 3 2 0.32 -6.39
 5 3 2 -5.94 11.85
 4 3 2 -12.48 -3.36
 3 3 2 -10.36 -13.00
 2 3 2 -30.75 -3.78
 1 3 2 -2.93 0.37
 0 3 2 0.64 -16.22
 11 2 2 -0.23 0.80
 10 2 2 -7.40 -1.56
 9 2 2 2.17 0.75
 8 2 2 -7.66 -0.36
 7 2 2 -2.30 2.09
 6 2 2 -10.21 3.52
 5 2 2 -15.01 17.62
 4 2 2 6.14 -7.14
 3 2 2 -13.17 8.99
 2 2 2 6.07 -21.56
 1 2 2 37.08 48.49
 0 2 2 60.47 -4.28
 11 1 2 1.07 -7.93
 10 1 2 -1.13 -1.83
 9 1 2 -0.26 0.49
 8 1 2 -2.40 -1.00
 7 1 2 -3.42 -2.26
 6 1 2 -1.48 -1.68
 5 1 2 -14.44 26.62
 4 1 2 -0.29 2.52
 3 1 2 -17.73 -7.22
 2 1 2 -27.65 44.08
 1 1 2 -29.62 -116.26
 0 1 2 0.56 -145.10
 11 0 2 5.60 0.03
 10 0 2 -3.69 0.07
 9 0 2 1.43 -0.62
 8 0 2 -5.48 -0.36
 7 0 2 -1.84 -0.39
 6 0 2 -13.16 -1.02
 5 0 2 -14.40 1.14
 4 0 2 4.08 -1.63
 3 0 2 -11.18 2.86
 2 0 2 65.74 -5.57
 1 0 2 221.33 -3.68
 0 0 2 225.37 -0.09
 3 14 3 0.01 -0.99
 2 14 3 1.36 3.96
 1 14 3 -1.52 0.95
 0 14 3 -2.72 -0.20
 5 13 3 -0.25 -0.17
 4 13 3 -4.26 -0.90
 3 13 3 0.41 -2.25
 2 13 3 -2.59 2.67
 1 13 3 0.71 -1.50
 0 13 3 -1.04 10.22
 6 12 3 -0.03 -0.34
 5 12 3 -0.12 -4.11
 4 12 3 2.96 -1.45
 3 12 3 0.82 1.20
 2 12 3 0.25 -0.79
 1 12 3 4.86 0.37
 0 12 3 4.29 -1.67
 7 11 3 -6.36 -5.35
 6 11 3 -1.02 -0.37
 5 11 3 -5.46 -3.72
 4 11 3 -3.34 -2.58
 3 11 3 0.26 -0.06
 2 11 3 -1.64 1.32
 1 11 3 -0.74 2.36
 0 11 3 -0.49 -1.76
 8 10 3 1.56 0.52
 7 10 3 0.47 -3.58
 6 10 3 -6.97 3.34
 5 10 3 -0.44 0.51
 4 10 3 -0.55 -1.16
 3 10 3 2.89 3.01
 2 10 3 -2.06 0.11
 1 10 3 -3.10 -0.96
 0 10 3 -4.73 1.01
 9 9 3 3.95 0.40
 8 9 3 -2.64 2.34
 7 9 3 -2.80 -2.30
 6 9 3 -3.35 3.53
 5 9 3 3.32 -2.24
 4 9 3 -1.70 2.32
 3 9 3 -1.51 -3.35
 2 9 3 -1.44 -0.82
 1 9 3 3.86 0.47
 0 9 3 0.56 -7.35
 9 8 3 -7.59 -6.61
 8 8 3 -2.09 -0.78
 7 8 3 0.32 -2.23
 6 8 3 -3.16 1.82
 5 8 3 2.60 0.68
 4 8 3 3.08 -0.43
 3 8 3 4.66 2.76
 2 8 3 -0.21 2.51
 1 8 3 -0.96 2.82
 0 8 3 7.78 -2.49
 10 7 3 2.79 2.29
 9 7 3 1.01 3.50
 8 7 3 -0.68 5.15
 7 7 3 -2.67 -2.59
 6 7 3 -5.56 3.90
 5 7 3 3.95 0.39
 4 7 3 -5.57 -2.14
 3 7 3 6.17 5.99
 2 7 3 4.00 7.53
 1 7 3 -4.60 9.09
 0 7 3 0.03 -17.85
 10 6 3 -3.65 -1.25
 9 6 3 -5.85 -4.13
 8 6 3 -4.18 -4.66
 7 6 3 0.03 -5.56
 6 6 3 -4.61 1.47
 5 6 3 4.37 4.16
 4 6 3 -1.74 2.05
 3 6 3 11.87 13.95
 2 6 3 15.67 2.99
 1 6 3 -9.38 7.13
 0 6 3 8.75 -0.94
 11 5 3 0.51 1.32
 10 5 3 -2.07 -1.81
 9 5 3 -1.11 0.56
 8 5 3 -0.90 4.32
 7 5 3 -0.92 0.08
 6 5 3 -7.07 0.00
 5 5 3 2.88 -0.62
 4 5 3 7.22 0.84
 3 5 3 2.59 23.29
 2 5 3 -3.14 -8.45
 1 5 3 -12.86 -4.68
 0 5 3 -0.43 -30.79
 11 4 3 4.22 2.75
 10 4 3 0.93 3.97
 9 4 3 -1.32 4.30
 8 4 3 3.24 -3.04
 7 4 3 1.67 2.55
 6 4 3 6.29 6.30
 5 4 3 1.50 3.50
 4 4 3 -13.18 -3.77
 3 4 3 13.33 6.88
 2 4 3 29.49 10.83
 1 4 3 -9.82 -2.04
 0 4 3 20.65 0.53
 11 3 3 -1.37 -1.00
 10 3 3 -1.91 -2.84
 9 3 3 -0.54 -1.39
 8 3 3 -2.47 2.29
 7 3 3 1.31 1.31
 6 3 3 -3.18 -5.14
 5 3 3 14.54 -4.79
 4 3 3 3.62 10.18
 3 3 3 -2.68 20.57
 2 3 3 -5.52 -3.72
 1 3 3 -32.15 -2.45
 0 3 3 1.70 9.38
 11 2 3 -4.00 2.15
 10 2 3 0.70 -6.59
 9 2 3 -0.59 3.33
 8 2 3 -0.91 -3.70
 7 2 3 1.62 4.02
 6 2 3 5.79 5.92
 5 2 3 -3.37 -6.59
 4 2 3 3.36 -16.18
 3 2 3 0.32 -18.76
 2 2 3 -10.92 -23.85
 1 2 3 -55.66 -12.45
 0 2 3 25.66 0.42
 11 1 3 -2.15 0.31
 10 1 3 -2.05 0.27
 9 1 3 1.26 -2.62
 8 1 3 7.04 1.48
 7 1 3 8.54 4.02
 6 1 3 3.57 -5.07
 5 1 3 4.48 4.56
 4 1 3 16.73 2.28
 3 1 3 -20.22 1.81
 2 1 3 -62.24 3.00
 1 1 3 4.36 89.03
 0 1 3 -1.44 85.71
 11 0 3 0.21 -1.64
 10 0 3 0.05 -0.88
 9 0 3 0.49 4.90
 8 0 3 0.21 -0.72
 7 0 3 0.04 7.35
 6 0 3 -0.31 -9.21
 5 0 3 -2.66 17.77
 4 0 3 -0.46 -14.57
 3 0 3 -1.19 -9.53
 2 0 3 0.61 -8.75
 1 0 3 -0.47 35.78
 3 14 4 -5.34 -2.37
 2 14 4 0.35 -3.91
 1 14 4 0.85 1.99
 0 14 4 -2.18 -0.52
 5 13 4 3.58 -0.31
 4 13 4 0.86 -1.09
 3 13 4 3.15 1.46
 2 13 4 0.48 -1.70
 1 13 4 -1.10 3.80
 0 13 4 -1.84 2.44
 6 12 4 0.43 -0.20
 5 12 4 0.29 -7.48
 4 12 4 3.43 -1.80
 3 12 4 -0.19 -4.69
 2 12 4 -0.25 -2.91
 1 12 4 -2.68 0.70
 0 12 4 -0.69 -0.83
 7 11 4 -0.38 -3.18
 6 11 4 1.42 0.77
 5 11 4 2.45 5.93
 4 11 4 2.20 -0.98
 3 11 4 1.22 -0.91
 2 11 4 -6.38 -0.51
 1 11 4 -1.90 2.14
 0 11 4 -7.29 -3.22
 8 10 4 -0.70 0.27
 7 10 4 -1.74 0.80
 6 10 4 -2.03 0.92
 5 10 4 1.04 1.61
 4 10 4 1.11 1.02
 3 10 4 0.95 -5.60
 2 10 4 0.36 -2.76
 1 10 4 5.47 2.90
 0 10 4 -5.34 0.48
 9 9 4 5.50 -6.52
 8 9 4 -4.51 2.23
 7 9 4 -2.65 -0.40
 6 9 4 1.99 5.09
 5 9 4 3.53 7.28
 4 9 4 -1.63 -1.55
 3 9 4 0.73 5.85
 2 9 4 -0.40 -3.44
 1 9 4 -4.03 4.49
 0 9 4 -2.29 -6.29
 9 8 4 -1.80 1.52
 8 8 4 -2.41 4.18
 7 8 4 3.79 2.77
 6 8 4 -1.34 1.68
 5 8 4 1.57 -5.91
 4 8 4 3.55 -9.06
 3 8 4 7.14 2.79
 2 8 4 3.51 -2.21
 1 8 4 9.15 1.53
 0 8 4 7.96 0.34
 10 7 4 3.48 3.19
 9 7 4 1.29 -0.80
 8 7 4 -2.62 0.13
 7 7 4 0.76 0.51
 6 7 4 2.58 -2.04
 5 7 4 11.48 5.31
 4 7 4 -9.18 -1.53
 3 7 4 -2.13 6.58
 2 7 4 2.12 -8.91
 1 7 4 -6.11 -2.50
 0 7 4 -1.90 -12.37
 10 6 4 -4.11 3.29
 9 6 4 2.26 -1.69
 8 6 4 -0.82 1.26
 7 6 4 3.00 -0.29
 6 6 4 0.30 1.75
 5 6 4 6.19 -8.26
 4 6 4 9.50 -6.95
 3 6 4 11.45 2.75
 2 6 4 8.79 -8.77
 1 6 4 14.80 0.11
 0 6 4 26.47 -0.71
 11 5 4 2.72 -0.95
 10 5 4 -5.80 7.83
 9 5 4 -2.71 5.77
 8 5 4 -0.62 5.35
 7 5 4 -4.27 1.16
 6 5 4 2.10 -3.16
 5 5 4 7.75 4.19
 4 5 4 -6.02 -16.10
 3 5 4 -6.99 -11.89
 2 5 4 -0.02 1.26
 1 5 4 1.73 9.59
 0 5 4 0.34 -15.40
 11 4 4 -0.81 1.30
 10 4 4 -1.22 3.17
 9 4 4 -2.10 -0.36
 8 4 4 0.78 -1.41
 7 4 4 2.90 -4.31
 6 4 4 1.60 -3.97
 5 4 4 4.70 4.08
 4 4 4 1.83 -10.19
 3 4 4 -2.56 5.89
 2 4 4 11.88 -1.71
 1 4 4 45.23 -15.51
 0 4 4 38.05 0.16
 11 3 4 0.96 -6.83
 10 3 4 5.18 2.40
 9 3 4 0.13 0.57
 8 3 4 1.43 -0.53
 7 3 4 6.99 -0.59
 6 3 4 -1.23 -3.45
 5 3 4 0.92 5.13
 4 3 4 3.15 -8.93
 3 3 4 -4.10 6.06
 2 3 4 19.00 7.59
 1 3 4 -10.46 -31.35
 0 3 4 1.27 -37.44
 11 2 4 0.22 2.02
 10 2 4 0.97 0.38
 9 2 4 -1.39 1.87
 8 2 4 2.77 1.01
 7 2 4 -2.48 0.21
 6 2 4 4.87 3.47
 5 2 4 0.36 -4.18
 4 2 4 5.49 0.04
 3 2 4 -19.42 -1.81
 2 2 4 45.38 -19.26
 1 2 4 -19.15 -18.38
 0 2 4 124.43 -2.82
 11 1 4 0.51 -5.55
 10 1 4 -0.38 -0.74
 9 1 4 -0.42 0.99
 8 1 4 -3.26 3.32
 7 1 4 1.44 0.92
 6 1 4 3.74 6.98
 5 1 4 -10.57 15.14
 4 1 4 -2.88 -20.58
 3 1 4 -11.36 13.64
 2 1 4 3.60 12.25
 1 1 4 -15.02 -24.02
 0 1 4 1.22 139.49
 11 0 4 -1.23 0.01
 10 0 4 -1.27 -0.32
 9 0 4 1.34 -0.04
 8 0 4 -0.87 0.27
 7 0 4 2.00 0.45
 6 0 4 0.45 0.99
 5 0 4 0.54 0.01
 4 0 4 6.90 0.26
 3 0 4 -42.25 -2.00
 2 0 4 55.17 -7.18
 1 0 4 -27.98 1.33
 0 0 4 211.84 -0.14
 3 14 5 -1.41 2.05
 2 14 5 1.42 0.66
 1 14 5 -2.15 2.33
 0 14 5 4.66 -0.30
 5 13 5 0.58 -4.46
 4 13 5 -1.17 -2.47
 3 13 5 0.34 10.81
 2 13 5 -1.00 -0.20
 1 13 5 -3.54 2.16
 0 13 5 1.20 2.86
 6 12 5 -1.32 3.13
 5 12 5 -0.33 -4.86
 4 12 5 -8.32 -1.47
 3 12 5 3.69 -1.69
 2 12 5 1.85 -0.79
 1 12 5 2.59 0.86
 0 12 5 1.18 -1.90
 7 11 5 -3.03 -5.26
 6 11 5 -6.21 0.50
 5 11 5 -1.46 -8.24
 4 11 5 -2.60 -2.32
 3 11 5 -0.18 3.95
 2 11 5 -2.07 -2.02
 1 11 5 -0.61 0.69
 0 11 5 0.99 -3.58
 8 10 5 4.38 -1.08
 7 10 5 -4.39 -7.89
 6 10 5 -3.70 0.05
 5 10 5 1.99 -2.35
 4 10 5 -4.77 -0.33
 3 10 5 -0.96 2.12
 2 10 5 -3.17 -0.40
 1 10 5 -3.10 -0.50
 0 10 5 4.11 0.29
 9 9 5 -0.87 4.89
 8 9 5 -1.63 -4.63
 7 9 5 -0.82 -7.05
 6 9 5 0.99 2.39
 5 9 5 3.45 -3.80
 4 9 5 0.86 -7.88
 3 9 5 -3.62 1.66
 2 9 5 -3.64 3.03
 1 9 5 -1.57 2.76
 0 9 5 0.41 -2.25
 9 8 5 -4.50 -5.01
 8 8 5 7.28 -2.13
 7 8 5 0.16 -2.51
 6 8 5 -2.46 -1.18
 5 8 5 3.66 -1.85
 4 8 5 -11.88 -5.45
 3 8 5 -3.85 1.39
 2 8 5 -2.53 -3.56
 1 8 5 -6.00 3.73
 0 8 5 1.17 -2.73
 10 7 5 2.97 2.72
 9 7 5 0.23 3.83
 8 7 5 2.36 -0.45
 7 7 5 1.09 -3.42
 6 7 5 -0.03 0.94
 5 7 5 5.01 -0.62
 4 7 5 -11.02 -3.68
 3 7 5 0.79 13.77
 2 7 5 -7.87 -0.14
 1 7 5 -10.76 3.63
 0 7 5 0.26 -7.59
 10 6 5 -0.85 -2.18
 9 6 5 0.06 0.57
 8 6 5 -1.87 -1.88
 7 6 5 -1.14 -2.40
 6 6 5 -6.17 2.11
 5 6 5 0.32 -10.08
 4 6 5 -3.59 -4.55
 3 6 5 18.81 2.42
 2 6 5 -4.93 -6.44
 1 6 5 -24.87 6.74
 0 6 5 4.13 -0.07
 11 5 5 -3.23 -4.09
 10 5 5 -3.40 1.00
 9 5 5 -2.65 -0.91
 8 5 5 -2.55 0.18
 7 5 5 -0.50 0.02
 6 5 5 3.83 -2.07
 5 5 5 3.40 6.12
 4 5 5 -6.59 0.66
 3 5 5 -3.13 -1.00
 2 5 5 2.80 -18.81
 1 5 5 -15.58 4.93
 0 5 5 0.27 -0.66
 11 4 5 1.24 2.27
 10 4 5 0.44 6.59
 9 4 5 4.10 -1.77
 8 4 5 2.54 2.68
 7 4 5 -2.08 4.51
 6 4 5 -10.26 -1.21
 5 4 5 -1.17 -6.59
 4 4 5 -4.95 -1.02
 3 4 5 9.67 7.78
 2 4 5 -7.81 4.09
 1 4 5 -28.22 -28.59
 0 4 5 13.70 0.97
 11 3 5 -1.19 -4.55
 10 3 5 -0.23 -0.75
 9 3 5 3.61 -1.42
 8 3 5 -0.34 2.42
 7 3 5 8.37 -4.92
 6 3 5 3.57 -1.73
 5 3 5 5.67 15.60
 4 3 5 -8.78 11.01
 3 3 5 -6.64 -0.08
 2 3 5 20.92 -10.74
 1 3 5 -6.80 -15.41
 0 3 5 0.28 -6.35
 11 2 5 2.11 2.00
 10 2 5 0.24 0.99
 9 2 5 -0.72 -0.99
 8 2 5 1.69 -2.45
 7 2 5 -0.85 -0.74
 6 2 5 -11.47 -1.20
 5 2 5 -1.53 -7.03
 4 2 5 -2.05 5.92
 3 2 5 -3.55 6.51
 2 2 5 6.45 -4.81
 1 2 5 -29.24 -63.44
 0 2 5 -67.56 1.50
 11 1 5 0.35 -2.71
 10 1 5 2.95 -2.78
 9 1 5 6.06 -1.21
 8 1 5 5.38 -0.41
 7 1 5 9.79 -2.01
 6 1 5 -3.82 -4.42
 5 1 5 2.90 4.75
 4 1 5 1.18 3.87
 3 1 5 -24.35 5.24
 2 1 5 37.18 1.88
 1 1 5 25.02 -17.72
 0 1 5 -2.27 -43.73
 11 0 5 -0.17 -0.68
 10 0 5 0.29 1.50
 9 0 5 0.36 1.10
 8 0 5 0.62 -1.66
 7 0 5 -0.04 5.58
 6 0 5 1.48 7.02
 5 0 5 -2.37 10.32
 4 0 5 -2.30 7.87
 3 0 5 -0.24 30.29
 2 0 5 -0.99 -10.97
 1 0 5 -1.10 -125.08
 3 14 6 -3.31 -0.35
 2 14 6 1.48 0.71
 1 14 6 0.28 0.40
 0 14 6 0.13 -2.04
 5 13 6 -3.52 2.66
 4 13 6 1.51 -3.49
 3 13 6 -0.17 1.83
 2 13 6 -0.67 -0.64
 1 13 6 1.51 4.43
 0 13 6 -0.88 -4.02
 6 12 6 0.64 -4.88
 5 12 6 2.26 -2.93
 4 12 6 -2.80 0.31
 3 12 6 2.45 1.17
 2 12 6 0.86 2.72
 1 12 6 1.12 0.85
 0 12 6 1.79 -3.24
 7 11 6 -0.50 -1.96
 6 11 6 -0.14 1.59
 5 11 6 -1.59 -0.08
 4 11 6 -1.13 -0.03
 3 11 6 -5.82 4.21
 2 11 6 2.59 3.26
 1 11 6 -0.52 7.86
 0 11 6 -3.42 -0.87
 8 10 6 3.32 4.97
 7 10 6 0.63 -1.12
 6 10 6 -0.91 3.71
 5 10 6 3.01 0.19
 4 10 6 -2.70 -2.50
 3 10 6 4.12 4.60
 2 10 6 -1.24 -1.21
 1 10 6 1.89 1.91
 0 10 6 5.73 -1.83
 9 9 6 1.27 -1.46
 8 9 6 -7.02 4.14
 7 9 6 -2.36 -2.77
 6 9 6 -0.49 2.78
 5 9 6 0.62 -0.97
 4 9 6 0.96 -4.61
 3 9 6 1.08 4.28
 2 9 6 5.50 -0.02
 1 9 6 -2.08 10.17
 0 9 6 -2.40 -5.62
 9 8 6 -2.60 1.24
 8 8 6 2.47 7.55
 7 8 6 0.71 1.49
 6 8 6 -0.99 0.88
 5 8 6 7.66 -0.37
 4 8 6 -0.11 -2.52
 3 8 6 -2.09 4.37
 2 8 6 1.66 -2.99
 1 8 6 5.72 1.45
 0 8 6 7.48 -1.20
 10 7 6 2.12 6.69
 9 7 6 -0.63 2.83
 8 7 6 -4.47 -1.18
 7 7 6 3.10 -5.48
 6 7 6 1.46 2.84
 5 7 6 1.19 -3.01
 4 7 6 -4.44 -5.86
 3 7 6 0.82 8.31
 2 7 6 2.60 -3.28
 1 7 6 -9.30 -3.16
 0 7 6 -4.39 -9.01
 10 6 6 -3.86 1.11
 9 6 6 2.54 -2.26
 8 6 6 3.08 -0.15
 7 6 6 1.12 -0.61
 6 6 6 -0.08 -1.21
 5 6 6 6.51 -2.67
 4 6 6 1.38 1.93
 3 6 6 2.78 2.36
 2 6 6 17.34 -4.66
 1 6 6 13.06 5.02
 0 6 6 3.90 1.18
 11 5 6 1.15 1.51
 10 5 6 -3.43 6.47
 9 5 6 4.64 4.89
 8 5 6 -1.02 -3.02
 7 5 6 -2.48 -3.31
 6 5 6 2.62 -6.22
 5 5 6 -3.88 -3.66
 4 5 6 -4.01 -20.15
 3 5 6 -4.26 3.45
 2 5 6 1.53 -0.60
 1 5 6 -14.53 -4.02
 0 5 6 -0.53 -6.29
 11 4 6 0.08 2.98
 10 4 6 -0.14 5.08
 9 4 6 0.32 1.88
 8 4 6 2.11 -1.77
 7 4 6 -2.90 4.98
 6 4 6 -1.57 -0.59
 5 4 6 -0.51 -1.67
 4 4 6 -1.37 -17.20
 3 4 6 1.14 8.67
 2 4 6 17.86 -14.03
 1 4 6 1.60 -0.63
 0 4 6 0.54 1.93
 11 3 6 1.52 -2.34
 10 3 6 -1.58 0.70
 9 3 6 0.85 3.42
 8 3 6 -1.05 -6.17
 7 3 6 0.79 2.24
 6 3 6 8.10 -2.85
 5 3 6 0.93 4.72
 4 3 6 -2.64 -14.13
 3 3 6 -19.79 -9.74
 2 3 6 -4.75 -21.12
 1 3 6 -46.04 -35.95
 0 3 6 0.21 -6.73
 11 2 6 0.85 -0.08
 10 2 6 -0.91 -1.13
 9 2 6 0.93 -1.21
 8 2 6 1.87 -2.63
 7 2 6 -5.22 2.26
 6 2 6 4.09 -8.31
 5 2 6 1.80 -6.75
 4 2 6 0.44 -16.29
 3 2 6 -0.38 -15.58
 2 2 6 6.12 -10.08
 1 2 6 -8.15 10.31
 0 2 6 28.46 -1.26
 11 1 6 1.41 -6.04
 10 1 6 0.75 -2.94
 9 1 6 1.27 -1.80
 8 1 6 -1.28 1.60
 7 1 6 1.69 -0.15
 6 1 6 1.96 0.75
 5 1 6 -11.24 2.11
 4 1 6 4.53 -5.18
 3 1 6 -20.24 -0.81
 2 1 6 -8.64 -38.30
 1 1 6 -16.04 -36.36
 0 1 6 0.54 2.98
 11 0 6 2.29 -0.19
 10 0 6 -2.35 -0.01
 9 0 6 1.37 -0.40
 8 0 6 -4.53 -0.04
 7 0 6 0.41 0.23
 6 0 6 -6.63 0.01
 5 0 6 -3.40 -0.20
 4 0 6 -10.73 -0.39
 3 0 6 -7.58 -2.54
 2 0 6 12.49 -1.53
 1 0 6 -48.31 1.52
 0 0 6 12.38 0.01
 2 14 7 0.45 -2.75
 1 14 7 1.91 3.20
 0 14 7 2.12 0.10
 5 13 7 0.86 -2.60
 4 13 7 -2.79 6.46
 3 13 7 5.35 3.22
 2 13 7 -2.52 -2.50
 1 13 7 -3.59 -0.29
 0 13 7 1.85 -4.50
 6 12 7 -4.55 2.45
 5 12 7 1.02 -2.74
 4 12 7 0.78 1.63
 3 12 7 5.18 -2.10
 2 12 7 -3.15 2.41
 1 12 7 -0.99 0.35
 0 12 7 -4.35 -2.29
 7 11 7 -2.78 -2.05
 6 11 7 -4.20 -0.35
 5 11 7 -2.14 -1.55
 4 11 7 0.67 3.24
 3 11 7 0.58 -4.09
 2 11 7 -3.83 -3.45
 1 11 7 -0.40 -5.78
 0 11 7 -0.49 0.37
 8 10 7 0.32 -1.58
 7 10 7 1.08 -4.56
 6 10 7 2.77 1.88
 5 10 7 -1.09 0.67
 4 10 7 4.67 -1.75
 3 10 7 4.62 4.61
 2 10 7 -0.76 -0.68
 1 10 7 -5.23 -0.28
 0 10 7 0.44 -0.92
 9 9 7 1.23 -0.45
 8 9 7 -0.96 -7.29
 7 9 7 -0.88 0.29
 6 9 7 -1.15 1.50
 5 9 7 5.00 -0.35
 4 9 7 -3.48 -0.16
 3 9 7 0.38 -1.99
 2 9 7 -4.17 0.39
 1 9 7 2.98 -2.57
 0 9 7 1.46 -0.17
 9 8 7 -1.25 -5.41
 8 8 7 -0.74 -2.37
 7 8 7 -1.67 -3.00
 6 8 7 -1.01 -2.46
 5 8 7 -0.41 2.79
 4 8 7 -4.90 -3.42
 3 8 7 4.32 4.25
 2 8 7 -2.54 -1.43
 1 8 7 -8.64 -0.12
 0 8 7 4.62 -0.22
 10 7 7 5.65 -1.42
 9 7 7 1.56 0.29
 8 7 7 0.45 -2.12
 7 7 7 1.92 0.80
 6 7 7 -2.98 -0.11
 5 7 7 -3.77 -1.30
 4 7 7 -8.86 3.29
 3 7 7 -6.50 3.93
 2 7 7 -2.06 3.60
 1 7 7 -5.00 1.98
 0 7 7 1.72 5.45
 10 6 7 -0.40 1.39
 9 6 7 -1.59 -1.49
 8 6 7 -1.35 -0.54
 7 6 7 -0.52 -2.68
 6 6 7 1.37 -6.74
 5 6 7 0.09 -4.33
 4 6 7 1.81 1.38
 3 6 7 -2.68 0.88
 2 6 7 -1.64 8.16
 1 6 7 -20.22 8.15
 0 6 7 16.93 0.66
 10 5 7 0.52 0.70
 9 5 7 -3.08 -1.56
 8 5 7 1.30 -0.14
 7 5 7 -2.18 -2.79
 6 5 7 -3.30 -1.67
 5 5 7 -7.22 -4.39
 4 5 7 -8.89 -1.48
 3 5 7 -15.87 9.50
 2 5 7 -10.05 9.93
 1 5 7 -11.81 -2.21
 0 5 7 0.01 3.45
 11 4 7 -3.25 6.23
 10 4 7 2.21 -0.15
 9 4 7 0.49 0.09
 8 4 7 -0.14 -0.99
 7 4 7 -5.18 -4.84
 6 4 7 -2.32 1.58
 5 4 7 -8.77 2.92
 4 4 7 -16.95 -0.49
 3 4 7 -13.15 -8.13
 2 4 7 1.48 -5.09
 1 4 7 -10.96 6.24
 0 4 7 21.81 0.82
 11 3 7 4.92 -2.46
 10 3 7 -0.69 0.49
 9 3 7 0.24 -0.57
 8 3 7 1.12 0.43
 7 3 7 0.26 0.96
 6 3 7 -2.53 7.78
 5 3 7 6.24 -2.49
 4 3 7 -12.21 9.12
 3 3 7 2.16 6.68
 2 3 7 -0.62 10.60
 1 3 7 -6.36 20.67
 0 3 7 0.68 4.26
 11 2 7 -1.22 2.33
 10 2 7 0.10 -3.74
 9 2 7 0.26 3.94
 8 2 7 0.26 -1.69
 7 2 7 -8.95 3.29
 6 2 7 7.95 2.60
 5 2 7 -3.57 1.10
 4 2 7 -8.70 8.37
 3 2 7 -4.71 -1.83
 2 2 7 -20.08 -7.13
 1 2 7 -36.70 -5.62
 0 2 7 3.85 1.92
 11 1 7 3.51 0.01
 10 1 7 0.59 1.12
 9 1 7 2.71 0.80
 8 1 7 3.25 -5.35
 7 1 7 9.35 4.31
 6 1 7 0.26 2.51
 5 1 7 6.91 -1.92
 4 1 7 9.19 9.68
 3 1 7 -26.29 -8.79
 2 1 7 -24.35 -7.31
 1 1 7 -27.07 -12.03
 0 1 7 -3.53 -1.67
 11 0 7 0.24 -1.05
 10 0 7 -0.05 -3.02
 9 0 7 0.16 3.52
 8 0 7 0.06 -2.11
 7 0 7 -0.29 8.16
 6 0 7 1.32 -0.43
 5 0 7 -10.84 8.88
 4 0 7 -0.47 -3.17
 3 0 7 0.27 -8.87
 2 0 7 -1.42 -46.68
 1 0 7 0.54 -2.16
 3 14 7 9.11 2.47
 2 14 8 -0.56 1.49
 1 14 8 1.56 -0.30
 0 14 8 3.19 -0.41
 4 13 8 -2.28 -1.17
 3 13 8 1.01 1.44
 2 13 8 -2.93 0.06
 1 13 8 -0.41 5.06
 0 13 8 1.53 -2.52
 6 12 8 -0.34 -5.22
 5 12 8 -3.02 -3.18
 4 12 8 -5.38 1.10
 3 12 8 5.95 -1.03
 2 12 8 0.95 -3.72
 1 12 8 0.45 1.02
 0 12 8 0.43 -5.31
 7 11 8 2.55 -4.32
 6 11 8 -3.93 1.30
 5 11 8 -2.44 -3.06
 4 11 8 0.11 6.72
 3 11 8 4.22 7.13
 2 11 8 0.18 3.01
 1 11 8 -3.25 5.43
 0 11 8 -2.20 -6.42
 8 10 8 7.59 5.12
 7 10 8 -0.96 1.59
 6 10 8 -1.63 -2.55
 5 10 8 -3.82 -0.12
 4 10 8 1.32 2.28
 3 10 8 3.32 4.86
 2 10 8 4.74 0.21
 1 10 8 2.69 0.54
 0 10 8 0.39 -1.17
 9 9 8 -0.64 -2.71
 8 9 8 -2.64 0.29
 7 9 8 0.15 -3.42
 6 9 8 -0.37 0.28
 5 9 8 -2.46 0.67
 4 9 8 -0.41 3.22
 3 9 8 2.77 8.57
 2 9 8 3.52 -1.92
 1 9 8 2.93 -1.76
 0 9 8 -7.94 -11.03
 9 8 8 2.57 4.04
 8 8 8 -4.24 4.16
 7 8 8 -0.19 -1.49
 6 8 8 -0.58 -2.36
 5 8 8 -0.79 -2.78
 4 8 8 2.47 -4.39
 3 8 8 2.17 4.46
 2 8 8 12.94 9.49
 1 8 8 7.26 -0.51
 0 8 8 0.66 0.46
 10 7 8 -2.12 2.72
 9 7 8 -2.59 -5.12
 8 7 8 -3.19 -1.54
 7 7 8 2.39 -0.79
 6 7 8 -0.21 2.93
 5 7 8 2.47 2.97
 4 7 8 1.40 3.24
 3 7 8 2.06 9.54
 2 7 8 4.73 0.36
 1 7 8 1.92 -2.61
 0 7 8 -5.06 -3.61
 10 6 8 -8.22 0.22
 9 6 8 0.90 -2.20
 8 6 8 -2.31 1.15
 7 6 8 -0.43 0.71
 6 6 8 0.15 -2.53
 5 6 8 2.50 5.04
 4 6 8 9.33 2.35
 3 6 8 9.24 3.52
 2 6 8 18.43 8.88
 1 6 8 8.85 -11.60
 0 6 8 7.64 0.58
 10 5 8 4.20 4.43
 9 5 8 0.79 2.35
 8 5 8 -1.90 -0.20
 7 5 8 1.75 2.53
 6 5 8 -3.45 -4.88
 5 5 8 -2.84 3.53
 4 5 8 8.09 -9.16
 3 5 8 7.15 3.24
 2 5 8 12.91 -6.57
 1 5 8 -3.04 -0.69
 0 5 8 -1.12 -14.89
 11 4 8 2.14 6.92
 10 4 8 -1.15 3.18
 9 4 8 -0.64 -3.61
 8 4 8 -0.74 -3.29
 7 4 8 -2.31 3.86
 6 4 8 1.33 -10.68
 5 4 8 2.85 5.21
 4 4 8 1.56 1.75
 3 4 8 15.39 12.85
 2 4 8 16.59 3.52
 1 4 8 0.70 -10.65
 0 4 8 20.78 1.20
 11 3 8 0.84 0.09
 10 3 8 0.22 0.70
 9 3 8 -0.78 1.53
 8 3 8 -1.08 1.10
 7 3 8 3.87 2.85
 6 3 8 1.10 -6.45
 5 3 8 -5.27 2.16
 4 3 8 -4.71 -1.76
 3 3 8 8.40 7.66
 2 3 8 5.51 -1.77
 1 3 8 -3.19 -6.30
 0 3 8 -1.21 0.55
 11 2 8 -2.96 0.00
 10 2 8 1.62 -0.88
 9 2 8 -3.13 -1.38
 8 2 8 7.20 0.26
 7 2 8 2.11 2.74
 6 2 8 5.81 -5.45
 5 2 8 -5.48 3.42
 4 2 8 -7.69 11.66
 3 2 8 -4.53 3.18
 2 2 8 -5.96 -5.75
 1 2 8 -0.24 -31.86
 0 2 8 32.83 -0.17
 11 1 8 0.83 -4.07
 10 1 8 -2.88 0.20
 9 1 8 -1.61 1.02
 8 1 8 -1.43 5.68
 7 1 8 2.06 0.47
 6 1 8 -0.35 -2.63
 5 1 8 -0.97 -4.43
 4 1 8 2.28 7.17
 3 1 8 16.10 -27.85
 2 1 8 42.11 14.79
 1 1 8 -2.36 29.30
 0 1 8 -0.08 13.92
 11 0 8 0.00 -0.01
 10 0 8 -0.62 0.07
 9 0 8 -2.15 0.18
 8 0 8 3.19 0.27
 7 0 8 0.74 0.43
 6 0 8 9.40 0.76
 5 0 8 1.69 0.00
 4 0 8 9.33 0.37
 3 0 8 -23.51 -2.39
 2 0 8 -70.20 -0.25
 1 0 8 -57.26 -0.65
 0 0 8 51.39 0.26
 2 14 9 -1.16 -0.77
 1 14 9 -0.96 -0.36
 0 14 9 -3.27 1.92
 4 13 9 2.79 -0.76
 3 13 9 1.77 1.38
 2 13 9 3.63 -2.27
 1 13 9 -2.97 -6.60
 0 13 9 2.82 -2.90
 6 12 9 -4.04 2.97
 5 12 9 3.86 0.57
 4 12 9 -2.31 0.43
 3 12 9 -1.33 1.07
 2 12 9 -4.06 7.45
 1 12 9 -3.61 -2.19
 0 12 9 -3.55 -1.17
 7 11 9 -0.41 -3.61
 6 11 9 -3.94 0.28
 5 11 9 1.37 -2.11
 4 11 9 1.28 -4.20
 3 11 9 -2.60 1.41
 2 11 9 -3.09 -2.32
 1 11 9 -1.45 2.02
 0 11 9 -1.48 5.97
 8 10 9 2.66 1.89
 7 10 9 2.38 -4.88
 6 10 9 2.08 2.37
 5 10 9 0.34 1.92
 4 10 9 -2.87 0.14
 3 10 9 0.92 -1.06
 2 10 9 -2.04 -2.93
 1 10 9 -2.90 -3.05
 0 10 9 4.76 -1.42
 8 9 9 -1.13 -4.27
 7 9 9 5.16 2.56
 6 9 9 2.55 -2.41
 5 9 9 5.50 -3.01
 4 9 9 2.39 -6.55
 3 9 9 3.44 -3.93
 2 9 9 -4.89 1.63
 1 9 9 -6.11 -2.10
 0 9 9 1.47 1.45
 9 8 9 0.47 -3.60
 8 8 9 5.22 -0.25
 7 8 9 4.50 3.14
 6 8 9 1.83 -0.42
 5 8 9 0.77 -1.25
 4 8 9 3.57 -3.26
 3 8 9 -2.34 -5.01
 2 8 9 -5.70 -13.56
 1 8 9 -7.67 -2.82
 0 8 9 3.25 0.73
 10 7 9 1.33 0.30
 9 7 9 -1.85 1.51
 8 7 9 0.60 4.53
 7 7 9 3.23 3.10
 6 7 9 -2.20 -4.76
 5 7 9 0.06 0.18
 4 7 9 -7.89 -9.84
 3 7 9 -2.86 -6.88
 2 7 9 2.20 -8.82
 1 7 9 -8.05 -0.82
 0 7 9 1.05 0.95
 10 6 9 2.33 2.30
 9 6 9 0.14 3.60
 8 6 9 -0.59 -0.58
 7 6 9 0.91 -5.17
 6 6 9 -0.68 -8.29
 5 6 9 -4.27 -3.65
 4 6 9 6.16 -5.50
 3 6 9 -5.44 2.01
 2 6 9 -8.31 1.25
 1 6 9 -14.44 -2.44
 0 6 9 3.81 1.14
 10 5 9 -1.40 2.46
 9 5 9 -1.87 -0.77
 8 5 9 2.72 2.41
 7 5 9 -2.70 0.68
 6 5 9 3.26 -1.05
 5 5 9 -5.90 4.45
 4 5 9 -9.07 -3.14
 3 5 9 -14.42 -5.33
 2 5 9 9.74 -12.44
 1 5 9 -1.74 -9.09
 0 5 9 0.05 4.74
 11 4 9 -0.95 -0.51
 10 4 9 1.32 -0.61
 9 4 9 2.19 0.27
 8 4 9 -3.38 -3.34
 7 4 9 -4.85 -1.33
 6 4 9 -3.03 5.52
 5 4 9 -8.35 -3.72
 4 4 9 -1.15 -1.75
 3 4 9 -3.03 -2.74
 2 4 9 -15.07 12.39
 1 4 9 -16.34 -7.15
 0 4 9 -28.58 0.14
 11 3 9 5.40 -2.37
 10 3 9 -3.08 0.82
 9 3 9 3.37 -0.77
 8 3 9 -1.80 -0.14
 7 3 9 -4.60 4.95
 6 3 9 2.31 -8.40
 5 3 9 -8.64 5.88
 4 3 9 -12.22 2.42
 3 3 9 -3.00 -8.92
 2 3 9 10.35 2.78
 1 3 9 12.79 -26.91
 0 3 9 -0.15 -15.24
 11 2 9 2.27 -0.09
 10 2 9 0.52 2.09
 9 2 9 0.08 -0.15
 8 2 9 -1.35 -2.28
 7 2 9 -1.38 -2.30
 6 2 9 0.15 -2.32
 5 2 9 -18.58 4.30
 4 2 9 -2.35 14.39
 3 2 9 1.83 5.28
 2 2 9 -0.25 16.24
 1 2 9 -10.77 -20.14
 0 2 9 -39.00 0.28
 11 1 9 -0.12 1.57
 10 1 9 -0.34 0.00
 9 1 9 2.14 -0.85
 8 1 9 1.90 -3.84
 7 1 9 5.73 1.41
 6 1 9 -7.82 -8.63
 5 1 9 -5.05 11.44
 4 1 9 -10.91 10.18
 3 1 9 -9.99 -3.81
 2 1 9 4.90 -13.03
 1 1 9 16.33 -37.98
 0 1 9 -1.66 1.35
 11 0 9 -0.04 -0.08
 10 0 9 0.28 4.54
 9 0 9 0.10 0.18
 8 0 9 0.14 -1.50
 7 0 9 0.37 0.64
 6 0 9 -2.03 -4.35
 5 0 9 -3.62 2.52
 4 0 9 2.70 6.66
 3 0 9 -1.14 0.64
 2 0 9 -0.44 -31.70
 1 0 9 0.30 -25.01
 1 14 10 5.87 0.92
 0 14 10 2.63 -1.16
 4 13 10 1.00 0.47
 3 13 10 -2.92 0.84
 2 13 10 -3.23 2.95
 1 13 10 1.59 -1.88
 0 13 10 5.21 -3.43
 6 12 10 -0.28 -1.09
 5 12 10 -2.68 -1.70
 4 12 10 1.11 -0.23
 3 12 10 2.72 -4.16
 2 12 10 -1.11 1.46
 1 12 10 -2.75 4.32
 0 12 10 -7.67 -6.47
 7 11 10 2.62 -2.21
 6 11 10 -7.00 -3.26
 5 11 10 1.68 0.57
 4 11 10 5.76 1.78
 3 11 10 -2.08 2.79
 2 11 10 -0.59 1.42
 1 11 10 1.57 3.12
 0 11 10 0.65 -0.91
 8 10 10 4.59 0.59
 7 10 10 1.45 -6.71
 6 10 10 -0.05 -1.24
 5 10 10 1.73 2.25
 4 10 10 0.17 -0.15
 3 10 10 2.05 6.14
 2 10 10 -4.80 4.01
 1 10 10 -3.54 -1.80
 0 10 10 3.96 -0.86
 8 9 10 0.50 2.00
 7 9 10 -3.11 -2.53
 6 9 10 -7.72 -1.44
 5 9 10 -3.87 0.79
 4 9 10 1.81 3.82
 3 9 10 -0.54 5.62
 2 9 10 6.75 -1.50
 1 9 10 -0.58 2.73
 0 9 10 -3.96 7.16
 9 8 10 2.29 -3.13
 8 8 10 -3.76 -0.73
 7 8 10 3.23 -3.86
 6 8 10 1.97 -2.94
 5 8 10 0.97 0.28
 4 8 10 2.95 -2.49
 3 8 10 1.49 4.60
 2 8 10 8.78 5.96
 1 8 10 -4.83 -4.37
 0 8 10 2.14 0.69
 9 7 10 -0.22 -3.92
 8 7 10 -3.84 -1.07
 7 7 10 3.47 -0.60
 6 7 10 0.17 0.76
 5 7 10 -0.56 -2.96
 4 7 10 1.76 1.22
 3 7 10 0.56 6.76
 2 7 10 5.02 -0.96
 1 7 10 -4.71 1.11
 0 7 10 -4.44 5.58
 10 6 10 -5.10 -0.12
 9 6 10 4.46 1.54
 8 6 10 0.70 -0.54
 7 6 10 -0.87 1.75
 6 6 10 -2.78 0.96
 5 6 10 1.38 4.00
 4 6 10 -2.93 2.31
 3 6 10 1.80 3.86
 2 6 10 12.85 1.28
 1 6 10 -1.94 -6.95
 0 6 10 -0.68 0.39
 10 5 10 0.88 6.69
 9 5 10 -1.72 0.03
 8 5 10 -0.08 -1.08
 7 5 10 -1.65 -0.81
 6 5 10 -13.40 0.39
 5 5 10 4.93 0.81
 4 5 10 8.38 -3.73
 3 5 10 2.67 -1.43
 2 5 10 5.24 -7.68
 1 5 10 -9.22 -4.93
 0 5 10 -3.57 -6.33
 10 4 10 0.11 -2.91
 9 4 10 0.23 0.62
 8 4 10 -2.54 -1.22
 7 4 10 -5.93 1.63
 6 4 10 0.33 -1.92
 5 4 10 1.82 7.25
 4 4 10 10.42 -2.54
 3 4 10 12.06 11.66
 2 4 10 -0.29 4.74
 1 4 10 2.36 -12.53
 0 4 10 1.18 1.58
 11 3 10 2.65 0.91
 10 3 10 -3.94 0.97
 9 3 10 -2.02 3.55
 8 3 10 -3.92 -0.88
 7 3 10 0.34 -1.60
 6 3 10 6.36 2.99
 5 3 10 4.26 -0.64
 4 3 10 9.96 7.82
 3 3 10 0.48 -16.29
 2 3 10 -2.60 -9.36
 1 3 10 -6.33 -13.83
 0 3 10 -2.38 -18.71
 11 2 10 -4.14 -0.47
 10 2 10 -0.47 1.70
 9 2 10 2.64 0.56
 8 2 10 4.77 0.93
 7 2 10 -4.64 5.31
 6 2 10 0.28 1.13
 5 2 10 0.78 2.67
 4 2 10 12.09 -4.77
 3 2 10 17.71 -16.00
 2 2 10 11.18 -4.55
 1 2 10 -1.17 -8.37
 0 2 10 -35.44 1.56
 11 1 10 -1.19 -0.29
 10 1 10 -4.60 3.06
 9 1 10 1.46 1.79
 8 1 10 -1.87 -3.13
 7 1 10 -0.89 -4.14
 6 1 10 7.28 -9.36
 5 1 10 7.69 6.97
 4 1 10 14.14 5.81
 3 1 10 17.35 -23.29
 2 1 10 4.77 -2.88
 1 1 10 -18.02 -58.06
 0 1 10 -0.71 -58.19
 11 0 10 0.02 0.08
 10 0 10 0.41 0.15
 9 0 10 4.16 0.08
 8 0 10 3.17 0.04
 7 0 10 1.16 -0.11
 6 0 10 0.98 0.23
 5 0 10 6.08 0.31
 4 0 10 11.15 -0.96
 3 0 10 -7.12 -1.15
 2 0 10 -4.55 -0.11
 1 0 10 -14.13 -0.71
 0 0 10 -54.98 0.49
 0 14 11 3.83 2.28
 4 13 11 1.16 -0.13
 3 13 11 3.71 0.86
 2 13 11 3.40 -4.48
 1 13 11 -5.49 -3.49
 0 13 11 1.70 0.39
 5 12 11 2.69 0.17
 4 12 11 0.10 1.04
 3 12 11 3.37 5.57
 2 12 11 -0.50 -0.83
 1 12 11 -1.81 -1.09
 0 12 11 -3.57 -0.86
 7 11 11 1.40 -0.66
 6 11 11 2.20 0.19
 5 11 11 -0.50 2.09
 4 11 11 0.25 4.35
 3 11 11 -0.83 -2.68
 2 11 11 -2.45 0.55
 1 11 11 0.94 -2.19
 0 11 11 -1.37 4.96
 7 10 11 1.97 0.08
 6 10 11 -4.51 2.75
 5 10 11 -7.70 -1.15
 4 10 11 4.11 -2.87
 3 10 11 7.56 -1.33
 2 10 11 0.04 3.30
 1 10 11 1.67 -1.78
 0 10 11 -0.98 -1.26
 8 9 11 -1.99 -3.37
 7 9 11 -0.08 0.64
 6 9 11 -2.01 -5.32
 5 9 11 2.05 2.92
 4 9 11 4.47 2.98
 3 9 11 -1.82 -5.09
 2 9 11 -6.10 1.05
 1 9 11 2.17 -5.69
 0 9 11 -0.21 -0.75
 9 8 11 2.56 -1.44
 8 8 11 1.39 -1.78
 7 8 11 1.32 -0.25
 6 8 11 -2.32 -1.12
 5 8 11 0.96 4.01
 4 8 11 5.29 -1.56
 3 8 11 -2.71 -3.69
 2 8 11 -0.18 -0.36
 1 8 11 -0.86 2.48
 0 8 11 2.04 1.60
 9 7 11 -1.44 4.93
 8 7 11 0.47 3.33
 7 7 11 0.97 -0.65
 6 7 11 -5.46 -4.41
 5 7 11 -2.97 -1.07
 4 7 11 -7.69 -9.47
 3 7 11 -3.31 -2.28
 2 7 11 -0.07 0.36
 1 7 11 -2.51 -5.67
 0 7 11 -0.58 5.79
 10 6 11 -1.58 3.85
 9 6 11 1.96 1.98
 8 6 11 5.84 -2.30
 7 6 11 3.29 -4.66
 6 6 11 1.40 -6.29
 5 6 11 0.82 -3.16
 4 6 11 0.16 -2.16
 3 6 11 -9.76 -7.15
 2 6 11 -0.32 -3.64
 1 6 11 -5.02 0.59
 0 6 11 -4.92 0.28
 10 5 11 0.10 0.76
 9 5 11 1.62 0.73
 8 5 11 0.50 0.74
 7 5 11 0.40 -2.82
 6 5 11 2.89 1.04
 5 5 11 -2.00 -6.11
 4 5 11 -5.58 -4.41
 3 5 11 1.59 -1.39
 2 5 11 1.56 0.67
 1 5 11 -12.14 -2.53
 0 5 11 -0.36 13.89
 10 4 11 3.36 1.05
 9 4 11 -1.83 -0.44
 8 4 11 4.02 -4.02
 7 4 11 -0.78 -0.09
 6 4 11 0.66 2.35
 5 4 11 1.55 -3.14
 4 4 11 -10.63 -7.54
 3 4 11 -18.30 -7.20
 2 4 11 -8.08 -8.92
 1 4 11 -21.36 9.78
 0 4 11 -8.32 0.85
 11 3 11 5.08 -1.65
 10 3 11 0.79 -0.84
 9 3 11 -1.43 -0.40
 8 3 11 -0.83 3.87
 7 3 11 -2.44 -0.84
 6 3 11 1.50 -0.11
 5 3 11 1.27 -1.22
 4 3 11 -2.70 -7.00
 3 3 11 1.89 1.43
 2 3 11 0.69 3.18
 1 3 11 -16.25 -4.17
 0 3 11 -1.31 18.33
 11 2 11 -0.74 2.13
 10 2 11 -0.54 -1.89
 9 2 11 -3.14 -0.04
 8 2 11 -0.90 -1.72
 7 2 11 -3.46 0.64
 6 2 11 -2.76 3.71
 5 2 11 -0.64 7.17
 4 2 11 2.76 -3.24
 3 2 11 -2.34 10.42
 2 2 11 -16.15 -0.53
 1 2 11 -15.77 11.00
 0 2 11 5.40 0.28
 11 1 11 4.13 0.61
 10 1 11 2.53 -0.12
 9 1 11 -2.59 -2.03
 8 1 11 -1.18 -2.50
 7 1 11 1.27 0.60
 6 1 11 -0.51 5.92
 5 1 11 2.53 6.52
 4 1 11 -4.59 -3.85
 3 1 11 -12.99 -11.54
 2 1 11 -28.69 -15.81
 1 1 11 -7.76 10.80
 0 1 11 -0.62 15.56
 11 0 11 0.03 3.02
 10 0 11 0.02 -0.63
 9 0 11 -0.08 1.08
 8 0 11 0.32 -0.49
 7 0 11 0.08 3.52
 6 0 11 0.03 5.95
 5 0 11 -2.04 -0.14
 4 0 11 -0.11 -6.77
 3 0 11 -0.66 -25.07
 2 0 11 0.11 -9.28
 1 0 11 -0.09 30.01
 1 14 11 -1.16 1.18
 4 13 12 1.09 -0.31
 3 13 12 -2.93 1.92
 2 13 12 3.34 -1.85
 1 13 12 1.03 1.25
 0 13 12 2.38 -2.10
 5 12 12 2.75 -4.60
 4 12 12 -3.55 -3.99
 3 12 12 1.00 1.09
 2 12 12 -3.97 -4.46
 1 12 12 -3.38 1.46
 0 12 12 3.28 -3.34
 6 11 12 -0.60 -1.08
 5 11 12 4.87 -4.88
 4 11 12 -0.51 1.13
 3 11 12 1.24 3.42
 2 11 12 -3.61 3.04
 1 11 12 -0.77 2.74
 0 11 12 -0.48 0.12
 7 10 12 1.83 -2.62
 6 10 12 3.29 -0.69
 5 10 12 -0.53 -4.96
 4 10 12 -1.18 -0.50
 3 10 12 1.14 2.07
 2 10 12 0.10 -0.91
 1 10 12 1.44 2.09
 0 10 12 2.87 -1.30
 8 9 12 -2.46 1.47
 7 9 12 -2.97 -5.82
 6 9 12 -1.04 -2.53
 5 9 12 -1.84 0.88
 4 9 12 -0.19 8.27
 3 9 12 -2.53 -0.26
 2 9 12 -6.82 1.36
 1 9 12 1.93 3.56
 0 9 12 -4.42 0.85
 9 8 12 -0.77 -4.99
 8 8 12 -2.83 1.34
 7 8 12 1.19 0.10
 6 8 12 -4.13 -0.02
 5 8 12 -4.00 -2.70
 4 8 12 5.51 -6.00
 3 8 12 2.63 -2.17
 2 8 12 0.51 7.42
 1 8 12 1.62 1.54
 0 8 12 4.53 -0.98
 9 7 12 -2.65 -4.29
 8 7 12 -1.74 2.49
 7 7 12 0.13 -0.49
 6 7 12 -1.85 -2.06
 5 7 12 2.05 2.03
 4 7 12 2.50 5.08
 3 7 12 -3.93 2.57
 2 7 12 -4.59 2.59
 1 7 12 4.83 5.39
 0 7 12 -2.62 -0.94
 10 6 12 -1.75 1.74
 9 6 12 -1.17 1.08
 8 6 12 -3.91 -0.15
 7 6 12 0.72 3.09
 6 6 12 -6.06 4.20
 5 6 12 -5.25 2.34
 4 6 12 -1.93 4.28
 3 6 12 -0.02 2.16
 2 6 12 4.49 9.36
 1 6 12 0.12 -1.85
 0 6 12 8.53 0.45
 10 5 12 0.42 -0.07
 9 5 12 -0.46 -2.50
 8 5 12 -1.69 4.67
 7 5 12 -5.29 -3.05
 6 5 12 -4.61 2.72
 5 5 12 5.79 4.40
 4 5 12 2.53 -0.16
 3 5 12 4.96 0.42
 2 5 12 0.77 6.40
 1 5 12 3.22 8.02
 0 5 12 -3.44 5.20
 10 4 12 2.87 2.74
 9 4 12 -2.56 -1.39
 8 4 12 -4.36 0.93
 7 4 12 -2.91 0.80
 6 4 12 0.10 1.88
 5 4 12 -3.98 2.15
 4 4 12 2.07 10.65
 3 4 12 -11.18 8.35
 2 4 12 3.10 5.12
 1 4 12 5.40 -8.84
 0 4 12 11.02 -0.92
 10 3 12 -1.97 -0.05
 9 3 12 -0.87 1.40
 8 3 12 -2.62 0.69
 7 3 12 0.96 1.28
 6 3 12 0.80 -4.72
 5 3 12 -1.71 -1.61
 4 3 12 3.55 -3.89
 3 3 12 8.58 -3.58
 2 3 12 6.99 2.67
 1 3 12 12.36 2.01
 0 3 12 -3.23 -15.75
 11 2 12 -3.46 2.36
 10 2 12 3.21 3.42
 9 2 12 1.87 -2.57
 8 2 12 0.61 2.89
 7 2 12 0.42 -1.11
 6 2 12 0.72 -5.00
 5 2 12 3.39 4.44
 4 2 12 3.76 4.02
 3 2 12 -3.74 13.80
 2 2 12 -9.04 9.96
 1 2 12 -24.84 -1.87
 0 2 12 2.08 1.16
 11 1 12 -1.34 -0.75
 10 1 12 -0.01 1.73
 9 1 12 -1.25 -6.97
 8 1 12 -1.66 1.20
 7 1 12 0.36 -2.92
 6 1 12 0.26 -1.28
 5 1 12 3.49 -0.35
 4 1 12 1.74 -2.04
 3 1 12 21.21 -25.08
 2 1 12 9.64 -8.28
 1 1 12 3.98 -1.00
 0 1 12 -1.20 -2.61
 11 0 12 2.26 0.12
 10 0 12 3.51 -0.08
 9 0 12 -0.58 0.18
 8 0 12 -0.47 0.04
 7 0 12 0.91 0.46
 6 0 12 0.56 1.88
 5 0 12 16.65 -0.29
 4 0 12 -3.03 0.51
 3 0 12 -5.05 -0.69
 2 0 12 -33.54 -0.17
 1 0 12 -40.95 -0.51
 0 0 12 9.40 -0.01
 3 13 13 0.89 -1.52
 2 13 13 1.60 -2.64
 1 13 13 0.23 -1.77
 0 13 13 1.00 2.61
 5 12 13 -2.19 -0.30
 4 12 13 -0.83 -1.84
 3 12 13 -1.96 0.52
 2 12 13 -1.90 -0.42
 1 12 13 -1.05 -0.36
 0 12 13 -0.91 -0.36
 6 11 13 -1.80 -1.16
 5 11 13 -2.94 -0.24
 4 11 13 0.95 -6.20
 3 11 13 -0.13 0.97
 2 11 13 -1.38 1.14
 1 11 13 -2.91 3.14
 0 11 13 -1.39 -0.13
 7 10 13 0.54 -1.92
 6 10 13 -0.20 -0.80
 5 10 13 1.12 0.19
 4 10 13 -2.40 -0.62
 3 10 13 1.12 0.32
 2 10 13 2.30 1.13
 1 10 13 1.04 -6.91
 0 10 13 0.36 -0.49
 8 9 13 -3.68 0.26
 7 9 13 3.89 -1.60
 6 9 13 -1.58 -2.53
 5 9 13 4.14 2.97
 4 9 13 2.86 -3.97
 3 9 13 1.95 -1.27
 2 9 13 2.34 -2.04
 1 9 13 -3.48 -1.28
 0 9 13 -1.54 2.19
 9 8 13 1.03 -2.55
 8 8 13 1.66 2.71
 7 8 13 -2.99 4.17
 6 8 13 -2.36 0.55
 5 8 13 1.31 3.49
 4 8 13 5.78 3.13
 3 8 13 2.35 0.41
 2 8 13 1.52 -1.36
 1 8 13 1.41 -3.18
 0 8 13 6.41 1.18
 9 7 13 -2.39 3.58
 8 7 13 -0.80 3.06
 7 7 13 1.47 1.72
 6 7 13 -0.67 -2.52
 5 7 13 -1.68 -1.35
 4 7 13 -3.16 -3.35
 3 7 13 4.98 -9.40
 2 7 13 6.58 -11.01
 1 7 13 -0.90 -4.23
 0 7 13 -1.62 -2.65
 10 6 13 -0.28 6.51
 9 6 13 7.51 4.70
 8 6 13 -1.45 1.41
 7 6 13 1.13 0.11
 6 6 13 0.91 -1.55
 5 6 13 3.26 0.87
 4 6 13 10.55 0.38
 3 6 13 5.40 -1.98
 2 6 13 -2.87 2.11
 1 6 13 -4.73 -1.87
 0 6 13 -15.77 0.43
 10 5 13 -0.80 2.63
 9 5 13 2.47 -0.22
 8 5 13 1.61 -2.19
 7 5 13 5.50 1.68
 6 5 13 2.10 -0.79
 5 5 13 -1.23 -1.37
 4 5 13 -3.57 -1.51
 3 5 13 0.48 -12.85
 2 5 13 0.46 -12.35
 1 5 13 -1.46 -1.83
 0 5 13 -0.20 -12.21
 10 4 13 0.37 0.59
 9 4 13 -1.07 1.66
 8 4 13 3.52 -1.16
 7 4 13 -8.24 -0.24
 6 4 13 7.67 0.24
 5 4 13 -0.61 -7.52
 4 4 13 1.75 -0.79
 3 4 13 3.49 -6.92
 2 4 13 -4.99 5.75
 1 4 13 -2.50 5.40
 0 4 13 0.84 -0.06
 10 3 13 -0.65 -0.23
 9 3 13 -2.26 5.22
 8 3 13 -0.88 -3.13
 7 3 13 -0.51 1.60
 6 3 13 -0.24 -1.33
 5 3 13 -6.13 -5.90
 4 3 13 -6.98 -1.65
 3 3 13 2.47 -2.88
 2 3 13 -5.00 -10.02
 1 3 13 3.31 -7.03
 0 3 13 -0.42 -9.29
 10 2 13 -1.61 0.52
 9 2 13 0.60 -3.15
 8 2 13 1.45 0.02
 7 2 13 -3.16 -5.36
 6 2 13 5.94 -4.67
 5 2 13 -4.27 -2.61
 4 2 13 -0.70 1.68
 3 2 13 1.18 11.89
 2 2 13 -7.35 0.84
 1 2 13 13.93 6.02
 0 2 13 -29.07 0.41
 11 1 13 1.53 2.14
 10 1 13 -2.59 1.51
 9 1 13 -2.72 2.68
 8 1 13 -0.52 -0.63
 7 1 13 3.37 2.43
 6 1 13 -3.28 -3.14
 5 1 13 -12.69 -4.38
 4 1 13 -5.21 -11.71
 3 1 13 10.39 -3.28
 2 1 13 4.18 1.39
 1 1 13 9.15 -7.36
 0 1 13 2.31 -16.07
 11 0 13 0.14 0.76
 10 0 13 0.35 2.09
 9 0 13 0.18 1.72
 8 0 13 0.30 -0.32
 7 0 13 0.00 -5.02
 6 0 13 -0.13 -6.10
 5 0 13 -0.63 -4.09
 4 0 13 -0.97 0.54
 3 0 13 -0.13 1.22
 2 0 13 -0.19 0.45
 1 0 13 -0.13 5.03
 3 13 14 0.97 -5.19
 2 13 14 0.54 0.50
 1 13 14 -5.23 -7.81
 0 13 14 1.92 -1.97
 5 12 14 3.09 -3.82
 4 12 14 0.20 0.55
 3 12 14 -0.74 -2.34
 2 12 14 -1.17 -7.49
 1 12 14 3.35 6.05
 0 12 14 -2.18 -0.76
 6 11 14 0.28 -1.60
 5 11 14 -1.87 -1.09
 4 11 14 1.89 -0.28
 3 11 14 0.13 -1.37
 2 11 14 -4.70 2.45
 1 11 14 2.89 -0.91
 0 11 14 1.57 3.37
 7 10 14 6.11 -3.34
 6 10 14 5.41 3.85
 5 10 14 -0.13 -2.26
 4 10 14 2.25 3.51
 3 10 14 -0.20 0.60
 2 10 14 -2.29 1.12
 1 10 14 -4.82 1.55
 0 10 14 -3.04 0.35
 8 9 14 2.13 0.26
 7 9 14 -1.68 0.37
 6 9 14 0.80 -3.31
 5 9 14 0.28 -0.19
 4 9 14 -1.64 1.01
 3 9 14 -2.45 -1.02
 2 9 14 -1.60 1.16
 1 9 14 2.00 0.09
 0 9 14 -1.82 8.93
 8 8 14 1.12 0.39
 7 8 14 -2.64 -0.01
 6 8 14 2.31 -1.61
 5 8 14 1.80 -7.27
 4 8 14 1.55 -5.62
 3 8 14 -1.81 0.25
 2 8 14 -0.96 4.61
 1 8 14 2.78 -1.77
 0 8 14 -1.97 0.03
 9 7 14 -7.01 6.23
 8 7 14 -2.40 -1.72
 7 7 14 0.89 -0.85
 6 7 14 1.94 0.10
 5 7 14 1.36 4.71
 4 7 14 -2.62 -1.77
 3 7 14 -3.77 0.77
 2 7 14 -0.63 4.81
 1 7 14 3.18 0.31
 0 7 14 -1.98 1.41
 9 6 14 3.64 -0.73
 8 6 14 2.42 2.04
 7 6 14 -2.37 4.09
 6 6 14 -2.16 -4.13
 5 6 14 -2.65 -1.95
 4 6 14 -1.33 5.31
 3 6 14 -3.06 -1.43
 2 6 14 1.61 11.35
 1 6 14 -0.19 0.91
 0 6 14 1.69 -0.56
 10 5 14 1.55 2.56
 9 5 14 -2.92 -1.12
 8 5 14 1.62 2.06
 7 5 14 1.55 -4.13
 6 5 14 -0.36 4.42
 5 5 14 0.82 -0.70
 4 5 14 -0.42 -3.91
 3 5 14 0.09 0.30
 2 5 14 -5.56 2.13
 1 5 14 8.41 1.15
 0 5 14 -2.75 3.77
 10 4 14 2.73 1.39
 9 4 14 -1.07 -0.04
 8 4 14 -2.59 0.38
 7 4 14 -0.15 -1.88
 6 4 14 -1.78 -2.33
 5 4 14 4.21 1.36
 4 4 14 -3.71 2.28
 3 4 14 5.04 1.75
 2 4 14 7.60 14.92
 1 4 14 -0.09 8.96
 0 4 14 -11.49 0.67
 10 3 14 -1.74 -1.67
 9 3 14 -1.85 1.12
 8 3 14 -1.29 -1.77
 7 3 14 -1.82 -0.80
 6 3 14 2.28 1.88
 5 3 14 2.17 0.94
 4 3 14 3.76 12.88
 3 3 14 -5.82 0.81
 2 3 14 -10.13 -8.44
 1 3 14 6.63 -3.73
 0 3 14 -5.40 -32.04
 10 2 14 1.22 -2.46
 9 2 14 -1.50 -1.04
 8 2 14 -1.72 1.07
 7 2 14 -2.25 0.56
 6 2 14 -0.52 8.60
 5 2 14 2.49 2.73
 4 2 14 1.53 7.37
 3 2 14 14.71 5.42
 2 2 14 -2.25 6.47
 1 2 14 4.25 -0.50
 0 2 14 7.36 4.77
 10 1 14 -1.91 1.85
 9 1 14 -5.55 -3.27
 8 1 14 -2.30 2.91
 7 1 14 -6.56 0.26
 6 1 14 -0.71 4.61
 5 1 14 3.17 2.13
 4 1 14 0.44 15.63
 3 1 14 12.16 -9.84
 2 1 14 -5.75 1.52
 1 1 14 3.82 -15.39
 0 1 14 -1.88 -44.10
 10 0 14 0.70 -0.17
 9 0 14 1.26 -0.12
 8 0 14 2.76 0.20
 7 0 14 0.01 0.69
 6 0 14 4.55 -0.10
 5 0 14 1.06 -0.22
 4 0 14 -3.30 -0.15
 3 0 14 11.12 0.00
 2 0 14 6.78 -0.10
 1 0 14 18.16 -0.40
 0 0 14 -14.34 0.60
 2 13 15 3.31 -0.41
 1 13 15 3.96 0.17
 0 13 15 0.09 3.45
 4 12 15 0.40 -6.11
 3 12 15 2.08 4.20
 2 12 15 3.46 0.43
 1 12 15 1.16 5.28
 0 12 15 -6.33 0.20
 6 11 15 -7.03 -3.60
 5 11 15 -2.20 -3.59
 4 11 15 -3.56 2.34
 3 11 15 -3.39 2.02
 2 11 15 -4.30 4.92
 1 11 15 -0.80 -3.12
 0 11 15 -1.03 0.12
 7 10 15 1.02 -4.03
 6 10 15 0.03 -0.13
 5 10 15 -4.92 0.33
 4 10 15 -4.20 -0.37
 3 10 15 5.32 5.05
 2 10 15 2.90 5.47
 1 10 15 3.85 0.17
 0 10 15 0.95 -0.88
 8 9 15 -0.06 0.46
 7 9 15 -3.84 -4.34
 6 9 15 -1.01 -2.09
 5 9 15 -0.64 0.18
 4 9 15 2.57 4.07
 3 9 15 0.42 -3.86
 2 9 15 -0.13 2.45
 1 9 15 0.02 6.15
 0 9 15 -2.11 -2.03
 8 8 15 -0.56 -5.03
 7 8 15 -2.31 -4.07
 6 8 15 -1.61 0.72
 5 8 15 -1.86 1.78
 4 8 15 2.91 5.88
 3 8 15 -0.43 -1.36
 2 8 15 -4.08 2.18
 1 8 15 6.68 0.05
 0 8 15 0.40 0.08
 9 7 15 4.13 3.31
 8 7 15 -0.82 2.88
 7 7 15 0.07 0.17
 6 7 15 -0.44 -1.90
 5 7 15 -1.34 -1.60
 4 7 15 0.30 -2.91
 3 7 15 4.59 -3.68
 2 7 15 -0.23 0.60
 1 7 15 1.00 -2.81
 0 7 15 -2.33 -1.82
 9 6 15 1.91 0.15
 8 6 15 0.55 3.53
 7 6 15 0.01 -2.76
 6 6 15 0.56 0.22
 5 6 15 3.48 -0.62
 4 6 15 2.07 -1.37
 3 6 15 -2.28 -2.10
 2 6 15 -2.89 -3.80
 1 6 15 -1.12 -1.40
 0 6 15 -7.98 -0.35
 10 5 15 -0.93 -1.16
 9 5 15 0.35 0.16
 8 5 15 0.19 2.58
 7 5 15 3.31 1.41
 6 5 15 1.20 -2.67
 5 5 15 3.54 -0.23
 4 5 15 4.24 -4.13
 3 5 15 9.58 0.36
 2 5 15 0.98 3.26
 1 5 15 -12.23 0.95
 0 5 15 0.31 -4.43
 10 4 15 0.03 2.91
 9 4 15 -0.51 3.67
 8 4 15 2.57 -0.07
 7 4 15 1.49 -0.80
 6 4 15 9.00 1.04
 5 4 15 2.64 -1.28
 4 4 15 -3.31 -0.96
 3 4 15 -0.02 -6.86
 2 4 15 1.68 -4.63
 1 4 15 3.95 -5.54
 0 4 15 1.63 -0.34
 10 3 15 -2.16 1.18
 9 3 15 1.08 -1.12
 8 3 15 4.19 -0.16
 7 3 15 2.01 4.50
 6 3 15 -3.16 -6.99
 5 3 15 6.98 -4.00
 4 3 15 0.66 -6.41
 3 3 15 4.54 -2.18
 2 3 15 3.57 -3.45
 1 3 15 -10.62 2.65
 0 3 15 0.85 4.40
 10 2 15 1.42 -0.58
 9 2 15 0.97 0.23
 8 2 15 -3.81 -1.91
 7 2 15 0.97 -5.57
 6 2 15 -1.05 -0.68
 5 2 15 0.74 -0.96
 4 2 15 3.61 -13.56
 3 2 15 1.18 4.67
 2 2 15 -3.48 -6.70
 1 2 15 -7.01 6.37
 0 2 15 -9.16 1.23
 10 1 15 0.43 -0.08
 9 1 15 -1.31 1.40
 8 1 15 1.26 -1.57
 7 1 15 1.70 0.95
 6 1 15 -1.54 -3.98
 5 1 15 3.25 -2.33
 4 1 15 3.24 -4.14
 3 1 15 -0.93 5.67
 2 1 15 -17.68 0.13
 1 1 15 -19.57 4.76
 0 1 15 6.02 3.80
 10 0 15 -0.04 -1.83
 9 0 15 0.12 -0.98
 8 0 15 -0.20 -3.41
 7 0 15 0.78 2.50
 6 0 15 0.20 9.89
 5 0 15 0.26 3.97
 4 0 15 -0.45 -8.04
 3 0 15 0.75 -2.03
 2 0 15 -0.53 -7.85
 1 0 15 0.45 15.16
 1 13 16 -0.69 -1.30
 0 13 16 0.05 10.35
 2 13 16 0.24 0.23
 4 12 16 -1.23 -2.96
 3 12 16 -2.02 -5.66
 2 12 16 2.44 -4.86
 1 12 16 -0.83 2.94
 0 12 16 -0.35 0.24
 5 11 16 0.27 -1.27
 4 11 16 2.40 0.84
 3 11 16 -0.79 1.77
 2 11 16 -4.58 1.74
 1 11 16 7.87 -0.96
 0 11 16 0.34 6.01
 7 10 16 3.67 7.75
 6 10 16 0.42 3.39
 5 10 16 1.32 -6.92
 4 10 16 1.10 -1.96
 3 10 16 4.95 -6.46
 2 10 16 -0.08 -1.77
 1 10 16 -1.39 3.71
 0 10 16 0.00 -0.38
 7 9 16 2.51 -2.40
 6 9 16 5.79 -4.02
 5 9 16 2.93 2.41
 4 9 16 -2.72 4.29
 3 9 16 0.41 -0.74
 2 9 16 -7.36 2.16
 1 9 16 0.60 4.15
 0 9 16 -0.81 1.51
 8 8 16 -1.22 0.62
 7 8 16 1.15 3.37
 6 8 16 1.19 -1.84
 5 8 16 1.88 -6.82
 4 8 16 2.22 -0.89
 3 8 16 2.55 -7.87
 2 8 16 -0.46 1.68
 1 8 16 6.81 3.70
 0 8 16 -1.59 -0.10
 9 7 16 -1.39 1.49
 8 7 16 1.16 -1.53
 7 7 16 1.20 -0.29
 6 7 16 1.89 -1.37
 5 7 16 2.34 1.19
 4 7 16 3.43 -3.60
 3 7 16 -0.62 1.31
 2 7 16 0.38 3.87
 1 7 16 3.12 -1.69
 0 7 16 -0.33 5.05
 9 6 16 -2.78 2.07
 8 6 16 -3.72 0.64
 7 6 16 1.63 -7.68
 6 6 16 -4.38 -2.63
 5 6 16 -1.84 -2.93
 4 6 16 -9.37 1.29
 3 6 16 -7.44 -4.44
 2 6 16 -2.45 5.52
 1 6 16 -2.24 -5.97
 0 6 16 -2.46 0.17
 9 5 16 -1.26 -0.96
 8 5 16 4.43 0.85
 7 5 16 -1.35 -5.87
 6 5 16 -5.25 -0.98
 5 5 16 -2.50 -2.62
 4 5 16 -3.77 -8.80
 3 5 16 0.14 2.16
 2 5 16 7.18 2.17
 1 5 16 9.31 9.63
 0 5 16 -0.40 5.13
 10 4 16 4.98 0.79
 9 4 16 0.86 -0.75
 8 4 16 0.23 0.32
 7 4 16 1.07 -5.73
 6 4 16 -3.77 2.17
 5 4 16 -4.04 1.44
 4 4 16 -4.87 5.74
 3 4 16 -5.67 10.80
 2 4 16 -7.44 17.47
 1 4 16 -6.81 -1.15
 0 4 16 4.85 -0.39
 10 3 16 -0.42 2.40
 9 3 16 0.16 -1.88
 8 3 16 -2.76 0.04
 7 3 16 -1.16 -3.87
 6 3 16 -1.42 -3.04
 5 3 16 -2.91 -1.11
 4 3 16 -4.19 0.00
 3 3 16 -4.58 -16.84
 2 3 16 3.47 1.76
 1 3 16 8.66 -4.29
 0 3 16 -0.64 -9.66
 10 2 16 0.97 4.68
 9 2 16 -0.57 1.31
 8 2 16 0.12 0.29
 7 2 16 3.67 0.30
 6 2 16 1.67 1.91
 5 2 16 1.76 0.69
 4 2 16 5.96 7.97
 3 2 16 -10.29 11.17
 2 2 16 -3.46 9.82
 1 2 16 -0.85 -2.15
 0 2 16 1.86 3.94
 10 1 16 -3.84 -1.77
 9 1 16 -0.01 -2.03
 8 1 16 -0.40 4.47
 7 1 16 -4.85 4.39
 6 1 16 -4.09 -1.84
 5 1 16 -3.43 4.65
 4 1 16 -6.86 -2.62
 3 1 16 0.33 -15.70
 2 1 16 2.05 -1.69
 1 1 16 0.96 -8.11
 0 1 16 0.47 3.22
 10 0 16 -1.81 0.10
 9 0 16 0.93 0.12
 8 0 16 -2.69 0.63
 6 0 16 -1.77 0.17
 5 0 16 -0.41 -0.05
 4 0 16 4.79 0.36
 3 0 16 2.70 0.06
 2 0 16 4.98 -0.19
 1 0 16 -14.72 0.43
 0 0 16 -6.69 0.05
 7 0 16 1.26 0.12
 0 13 17 -0.48 -2.87
 4 12 17 -1.25 -0.99
 3 12 17 -3.31 4.18
 2 12 17 4.80 -4.84
 1 12 17 -0.87 -0.61
 0 12 17 -0.81 -0.18
 5 11 17 0.24 -3.35
 4 11 17 -0.94 -4.77
 3 11 17 6.08 2.12
 2 11 17 3.06 -0.51
 1 11 17 2.80 -0.86
 0 11 17 0.23 2.40
 6 10 17 3.90 1.51
 5 10 17 -5.93 1.43
 4 10 17 -3.07 0.99
 3 10 17 1.12 6.21
 2 10 17 7.31 -1.85
 1 10 17 1.06 -6.97
 0 10 17 2.17 -1.10
 7 9 17 0.63 -2.30
 6 9 17 -0.87 -1.02
 5 9 17 -2.04 -1.21
 4 9 17 -0.28 -1.44
 3 9 17 3.52 3.51
 2 9 17 3.60 4.47
 1 9 17 -1.85 4.14
 0 9 17 -0.98 -7.20
 8 8 17 1.87 2.24
 7 8 17 -4.39 2.13
 6 8 17 -4.19 1.20
 5 8 17 -2.35 5.61
 4 8 17 -0.40 5.29
 3 8 17 0.00 3.42
 2 8 17 0.55 0.31
 1 8 17 8.73 -2.60
 0 8 17 -0.56 -0.12
 8 7 17 -5.04 -2.96
 7 7 17 0.05 -2.20
 6 7 17 -0.01 -2.37
 5 7 17 -4.56 0.20
 4 7 17 0.98 2.86
 3 7 17 0.71 1.43
 2 7 17 2.86 0.83
 1 7 17 3.76 -1.98
 0 7 17 -1.96 -3.93
 9 6 17 1.51 3.71
 8 6 17 -3.42 6.90
 7 6 17 -2.66 -1.72
 6 6 17 2.55 0.15
 5 6 17 0.65 3.16
 4 6 17 6.19 1.23
 3 6 17 8.11 3.61
 2 6 17 1.24 2.35
 1 6 17 4.33 0.40
 0 6 17 1.88 0.25
 9 5 17 0.48 3.78
 8 5 17 -0.30 -0.81
 7 5 17 -0.43 -0.61
 6 5 17 -2.91 -1.92
 5 5 17 0.00 3.24
 4 5 17 1.86 6.60
 3 5 17 2.19 2.87
 2 5 17 -3.16 -3.85
 1 5 17 -0.27 0.01
 0 5 17 1.31 -10.24
 10 4 17 -6.70 7.47
 9 4 17 0.09 2.65
 8 4 17 1.59 0.13
 7 4 17 1.93 -2.79
 6 4 17 -2.27 1.57
 5 4 17 2.26 -1.00
 4 4 17 -1.47 0.40
 3 4 17 14.07 -1.35
 2 4 17 2.50 -3.86
 1 4 17 10.99 0.07
 0 4 17 0.93 -0.95
 10 3 17 -1.45 0.42
 9 3 17 5.47 -2.22
 8 3 17 -0.95 0.15
 7 3 17 3.07 -3.64
 6 3 17 -0.49 -3.04
 5 3 17 2.51 -0.88
 4 3 17 -0.36 0.15
 3 3 17 9.00 3.27
 2 3 17 2.60 -0.32
 1 3 17 -4.27 6.11
 0 3 17 1.84 -19.54
 10 2 17 1.87 0.68
 9 2 17 -3.27 -2.89
 8 2 17 0.98 -2.36
 7 2 17 -0.23 -5.05
 6 2 17 0.25 -3.18
 5 2 17 4.20 -6.40
 4 2 17 3.94 2.28
 3 2 17 2.55 12.91
 2 2 17 0.81 1.35
 1 2 17 10.85 1.94
 0 2 17 0.31 0.72
 10 1 17 -3.89 2.20
 9 1 17 4.61 -0.81
 8 1 17 -1.89 0.14
 7 1 17 8.93 -3.03
 6 1 17 0.72 -0.83
 5 1 17 -3.41 -5.80
 4 1 17 -1.49 -1.38
 3 1 17 11.63 8.42
 2 1 17 3.02 2.29
 1 1 17 0.61 -1.73
 0 1 17 10.19 -18.99
 10 0 17 0.25 1.01
 9 0 17 0.01 -3.65
 8 0 17 0.05 -2.04
 7 0 17 0.37 -1.59
 6 0 17 0.38 -1.56
 5 0 17 0.35 1.17
 4 0 17 0.26 8.23
 3 0 17 0.28 17.69
 2 0 17 -0.08 -0.11
 1 0 17 0.28 0.88
 3 12 18 0.80 0.76
 2 12 18 2.73 -1.98
 1 12 18 0.81 -1.52
 0 12 18 1.72 0.85
 5 11 18 -3.35 4.07
 4 11 18 -1.56 1.43
 3 11 18 -5.19 -3.08
 2 11 18 5.23 1.72
 1 11 18 3.00 -1.32
 0 11 18 -0.12 7.99
 6 10 18 1.92 1.46
 5 10 18 4.45 -4.18
 4 10 18 6.81 4.14
 3 10 18 2.07 0.72
 2 10 18 -0.06 0.30
 1 10 18 -5.78 -3.16
 0 10 18 -5.26 0.52
 7 9 18 1.41 3.61
 6 9 18 0.69 -1.71
 5 9 18 -1.87 0.80
 4 9 18 -3.72 -1.42
 3 9 18 3.08 -3.69
 2 9 18 3.58 0.33
 1 9 18 1.92 -2.57
 0 9 18 0.53 2.65
 8 8 18 0.96 -2.47
 7 8 18 0.11 1.89
 6 8 18 6.33 -1.32
 5 8 18 2.83 -1.53
 4 8 18 2.58 0.27
 3 8 18 0.65 0.57
 2 8 18 3.41 0.68
 1 8 18 3.80 -1.19
 0 8 18 -7.00 -0.20
 8 7 18 -0.95 -1.69
 7 7 18 2.77 -2.80
 6 7 18 3.60 6.70
 5 7 18 1.51 -2.58
 4 7 18 0.07 -1.93
 3 7 18 -1.21 -1.09
 2 7 18 -1.58 -2.33
 1 7 18 -4.99 -2.03
 0 7 18 0.31 2.61
 9 6 18 -0.82 -2.93
 8 6 18 -0.21 -0.88
 7 6 18 -0.09 -1.55
 6 6 18 2.66 -1.63
 5 6 18 0.97 0.22
 4 6 18 -1.12 -2.35
 3 6 18 4.21 -3.60
 2 6 18 -2.70 -3.71
 1 6 18 -3.60 5.99
 0 6 18 -3.54 0.57
 9 5 18 2.09 4.74
 8 5 18 1.77 -3.36
 7 5 18 -2.00 0.14
 6 5 18 -0.48 1.19
 5 5 18 -6.11 -2.24
 4 5 18 -2.15 -3.41
 3 5 18 1.60 0.36
 2 5 18 -4.02 -5.28
 1 5 18 -5.51 1.91
 0 5 18 0.98 -3.56
 9 4 18 2.37 -0.16
 8 4 18 -0.10 1.06
 7 4 18 -0.53 -0.77
 6 4 18 3.97 3.48
 5 4 18 -0.05 0.32
 4 4 18 -3.01 1.81
 3 4 18 1.24 1.29
 2 4 18 -4.39 -3.92
 1 4 18 -2.48 4.30
 0 4 18 -2.38 -0.46
 10 3 18 2.54 -0.76
 9 3 18 -0.26 -5.22
 8 3 18 -1.56 -1.97
 7 3 18 0.26 -1.90
 6 3 18 -1.03 4.80
 5 3 18 1.00 1.76
 4 3 18 -4.06 -1.26
 3 3 18 -1.55 0.86
 2 3 18 -9.69 -4.58
 1 3 18 -8.04 -3.02
 0 3 18 -2.12 0.22
 10 2 18 -1.48 0.70
 9 2 18 2.58 -1.42
 8 2 18 -0.19 -0.20
 7 2 18 1.94 4.01
 6 2 18 -3.02 1.26
 5 2 18 2.18 -4.39
 4 2 18 -11.91 2.48
 3 2 18 -6.21 1.25
 2 2 18 6.04 -4.41
 1 2 18 -2.07 7.77
 0 2 18 5.77 4.21
 10 1 18 -0.09 2.48
 9 1 18 1.39 0.15
 8 1 18 -2.92 0.79
 7 1 18 -2.50 0.28
 6 1 18 -1.24 2.69
 5 1 18 -3.64 -0.42
 4 1 18 -5.48 -1.25
 3 1 18 2.55 8.04
 2 1 18 -1.55 -4.43
 1 1 18 -4.09 5.36
 0 1 18 -2.53 -2.32
 10 0 18 -1.68 0.03
 9 0 18 3.84 0.16
 8 0 18 -1.77 0.33
 7 0 18 0.61 -0.20
 6 0 18 -1.61 -0.13
 5 0 18 1.02 -0.23
 4 0 18 -3.17 0.24
 3 0 18 3.37 0.25
 2 0 18 9.01 0.26
 1 0 18 -0.12 0.24
 0 0 18 5.54 0.25
 3 12 19 3.50 -5.42
 2 12 19 2.74 -6.06
 1 12 19 -2.29 2.95
 0 12 19 -8.24 -0.69
 4 11 19 -1.05 -0.94
 3 11 19 2.50 1.27
 2 11 19 -8.49 -3.90
 1 11 19 -0.67 -0.99
 0 11 19 -0.14 -0.46
 6 10 19 1.96 -2.21
 5 10 19 0.09 -4.61
 4 10 19 -2.53 -2.75
 3 10 19 6.57 -3.00
 2 10 19 1.37 -3.09
 1 10 19 -2.48 0.91
 0 10 19 -1.36 -1.12
 7 9 19 0.52 0.71
 6 9 19 0.70 -2.12
 5 9 19 -1.48 -4.99
 4 9 19 -0.65 1.61
 3 9 19 -0.83 0.98
 2 9 19 -4.65 -0.35
 1 9 19 0.20 2.49
 0 9 19 -0.42 2.91
 7 8 19 1.32 -1.81
 6 8 19 -3.62 1.39
 5 8 19 -3.20 0.20
 4 8 19 -4.08 3.00
 3 8 19 1.69 -1.34
 2 8 19 -1.00 -1.53
 1 8 19 0.40 1.47
 0 8 19 -4.21 -1.44
 8 7 19 -1.16 0.88
 7 7 19 -1.34 0.66
 6 7 19 1.26 -3.96
 5 7 19 -1.41 0.92
 4 7 19 -2.77 1.02
 3 7 19 1.96 8.32
 2 7 19 1.66 -1.52
 1 7 19 1.52 -1.70
 0 7 19 0.08 0.40
 8 6 19 -3.34 -0.59
 7 6 19 -0.90 -5.59
 6 6 19 -1.65 1.57
 5 6 19 -1.15 -2.61
 4 6 19 -2.10 -1.58
 3 6 19 -2.89 3.82
 2 6 19 -1.49 -0.61
 1 6 19 4.37 -2.81
 0 6 19 -0.06 0.08
 9 5 19 2.91 -0.52
 8 5 19 -0.79 -0.86
 7 5 19 0.28 -5.32
 6 5 19 2.09 0.41
 5 5 19 1.94 0.04
 4 5 19 2.82 2.37
 3 5 19 0.92 5.19
 2 5 19 1.75 0.88
 1 5 19 1.96 7.48
 0 5 19 1.23 0.92
 9 4 19 3.48 -0.11
 8 4 19 -1.55 -0.98
 7 4 19 -0.57 -5.20
 6 4 19 -2.27 1.77
 5 4 19 1.85 2.73
 4 4 19 -0.32 1.54
 3 4 19 6.59 0.30
 2 4 19 -0.67 -2.97
 1 4 19 3.08 -5.00
 0 4 19 2.71 -0.93
 9 3 19 0.87 -0.31
 8 3 19 1.95 0.07
 7 3 19 0.20 1.31
 6 3 19 0.45 0.91
 5 3 19 2.33 1.87
 4 3 19 7.47 6.08
 3 3 19 3.26 6.82
 2 3 19 5.49 2.05
 1 3 19 -2.40 0.90
 0 3 19 2.04 -2.12
 10 2 19 0.24 -1.12
 9 2 19 -5.23 -1.81
 8 2 19 3.66 0.63
 7 2 19 -3.19 -5.51
 6 2 19 2.99 2.54
 5 2 19 2.43 -2.24
 4 2 19 2.90 -3.52
 3 2 19 5.16 2.75
 2 2 19 3.42 -5.32
 1 2 19 0.04 -6.59
 0 2 19 0.68 -0.17
 10 1 19 1.17 0.53
 9 1 19 3.41 -0.46
 8 1 19 -3.66 -0.87
 7 1 19 5.50 0.52
 6 1 19 -2.15 1.88
 5 1 19 5.80 0.36
 4 1 19 9.21 7.65
 3 1 19 7.08 9.01
 2 1 19 2.25 -1.80
 1 1 19 -6.56 -3.60
 0 1 19 10.52 -0.82
 10 0 19 0.12 1.85
 9 0 19 0.02 -4.41
 8 0 19 -0.18 -0.12
 7 0 19 0.04 -0.86
 6 0 19 0.30 0.49
 5 0 19 -0.03 1.54
 4 0 19 0.44 -4.22
 3 0 19 -0.24 -7.94
 2 0 19 -0.18 -16.18
 1 0 19 -0.12 -6.02
 2 12 20 4.67 -4.37
 1 12 20 0.43 -2.26
 0 12 20 8.76 0.45
 4 11 20 -0.57 1.93
 3 11 20 2.47 2.37
 2 11 20 6.37 0.20
 1 11 20 6.63 3.12
 0 11 20 -0.43 0.25
 5 10 20 2.24 2.04
 4 10 20 1.25 3.80
 3 10 20 3.59 -2.34
 2 10 20 0.55 -4.64
 1 10 20 -3.67 -0.14
 0 10 20 -0.21 0.01
 6 9 20 -0.27 -3.14
 5 9 20 2.66 4.32
 4 9 20 2.19 2.69
 3 9 20 7.62 0.69
 2 9 20 0.25 0.61
 1 9 20 -3.87 1.77
 0 9 20 0.69 -3.44
 7 8 20 -1.81 1.21
 6 8 20 3.53 2.60
 5 8 20 -5.20 1.27
 4 8 20 2.78 0.80
 3 8 20 2.90 -2.82
 2 8 20 0.07 -2.57
 1 8 20 0.28 -0.74
 0 8 20 0.69 0.17
 8 7 20 -2.68 -2.47
 7 7 20 4.53 1.68
 6 7 20 -1.00 -0.21
 5 7 20 5.71 -1.83
 4 7 20 0.14 0.35
 3 7 20 3.55 -5.14
 2 7 20 -2.47 -1.88
 1 7 20 0.84 0.56
 0 7 20 0.66 -1.62
 8 6 20 -2.43 4.41
 7 6 20 6.38 2.79
 6 6 20 1.80 6.67
 5 6 20 1.01 1.07
 4 6 20 -1.16 -0.20
 3 6 20 0.52 -1.89
 2 6 20 -7.35 1.87
 1 6 20 -1.08 3.90
 0 6 20 -1.60 0.88
 9 5 20 -0.65 2.89
 8 5 20 -0.66 -1.79
 7 5 20 2.71 -1.68
 6 5 20 -2.49 -5.20
 5 5 20 1.76 -1.54
 4 5 20 -2.82 -8.96
 3 5 20 1.33 -2.72
 2 5 20 -0.76 0.81
 1 5 20 4.26 -0.16
 0 5 20 2.51 2.64
 9 4 20 0.35 -3.06
 8 4 20 -2.13 0.91
 7 4 20 4.23 -5.50
 6 4 20 -0.74 1.22
 5 4 20 -2.34 -4.04
 4 4 20 -0.82 -2.51
 3 4 20 -3.67 -5.88
 2 4 20 -7.49 3.46
 1 4 20 2.23 4.62
 0 4 20 -2.29 1.21
 9 3 20 0.03 -2.09
 8 3 20 0.46 -1.06
 7 3 20 3.43 -2.45
 6 3 20 -4.61 -3.68
 5 3 20 0.85 -2.10
 4 3 20 -3.08 -4.24
 3 3 20 -4.90 -11.21
 2 3 20 -11.53 0.50
 1 3 20 1.71 4.12
 0 3 20 0.84 4.62
 9 2 20 0.14 -0.28
 8 2 20 0.08 -3.70
 7 2 20 1.54 -0.58
 6 2 20 0.63 -3.77
 5 2 20 -3.01 -1.07
 4 2 20 -4.19 3.80
 3 2 20 1.32 2.37
 2 2 20 -6.40 7.10
 1 2 20 2.61 3.82
 0 2 20 -1.28 5.39
 9 1 20 0.35 -2.41
 8 1 20 1.08 -4.24
 7 1 20 -0.07 1.09
 6 1 20 -2.09 -1.20
 5 1 20 -2.15 -4.81
 4 1 20 -2.98 3.41
 3 1 20 2.26 -4.24
 2 1 20 0.23 -3.93
 1 1 20 0.27 3.49
 0 1 20 0.31 5.30
 9 0 20 -2.13 -0.02
 8 0 20 -4.41 0.06
 7 0 20 -2.48 0.15
 6 0 20 4.44 -0.39
 5 0 20 -0.93 -0.01
 4 0 20 -0.36 -0.04
 3 0 20 4.34 -0.04
 2 0 20 -2.13 0.05
 1 0 20 -0.87 0.57
 0 0 20 -4.82 -0.25
 0 12 21 -2.95 0.05
 3 11 21 -1.06 -4.97
 2 11 21 -0.90 -5.60
 1 11 21 4.59 1.83
 0 11 21 0.74 -2.72
 5 10 21 -4.87 -2.55
 4 10 21 2.61 -3.32
 3 10 21 2.80 2.15
 2 10 21 -4.61 -0.43
 1 10 21 -2.97 -3.63
 0 10 21 1.12 0.79
 6 9 21 -1.82 -3.39
 5 9 21 0.91 -6.64
 4 9 21 -1.62 1.62
 3 9 21 1.89 -2.61
 2 9 21 5.89 -2.54
 1 9 21 6.79 6.58
 0 9 21 1.02 1.56
 7 8 21 1.87 -2.38
 6 8 21 -5.62 -4.23
 5 8 21 1.23 3.43
 4 8 21 -0.19 -3.72
 3 8 21 4.15 -1.23
 2 8 21 -3.00 -3.06
 1 8 21 0.05 0.29
 0 8 21 0.50 -0.96
 7 7 21 -2.98 -1.63
 6 7 21 -0.49 -1.09
 5 7 21 -6.86 3.07
 4 7 21 0.45 2.96
 3 7 21 -1.86 3.95
 2 7 21 -3.18 -3.69
 1 7 21 1.64 3.34
 0 7 21 0.51 1.43
 8 6 21 0.29 0.95
 7 6 21 -1.29 -3.49
 6 6 21 -2.02 -3.08
 5 6 21 -3.69 0.03
 4 6 21 -8.12 2.56
 3 6 21 -0.17 3.51
 2 6 21 -4.87 4.91
 1 6 21 7.42 -0.14
 0 6 21 0.17 -0.13
 8 5 21 -6.14 -5.29
 7 5 21 1.92 -3.70
 6 5 21 1.89 -0.32
 5 5 21 -6.63 -1.36
 4 5 21 2.48 10.63
 3 5 21 -1.68 4.73
 2 5 21 5.57 6.54
 1 5 21 1.19 5.61
 0 5 21 1.17 -5.93
 9 4 21 -2.03 -1.55
 8 4 21 -3.17 -4.96
 7 4 21 -0.66 -1.07
 6 4 21 -0.62 1.12
 5 4 21 3.11 4.83
 4 4 21 -1.96 0.60
 3 4 21 4.76 3.06
 2 4 21 -0.38 -2.18
 1 4 21 11.93 -0.14
 0 4 21 7.72 -0.73
 9 3 21 -0.33 -3.24
 8 3 21 -3.23 0.35
 7 3 21 -2.88 1.34
 6 3 21 -0.72 -0.16
 5 3 21 -2.74 3.77
 4 3 21 5.91 2.42
 3 3 21 -2.84 3.86
 2 3 21 6.87 2.20
 1 3 21 4.51 2.61
 0 3 21 1.39 -7.59
 9 2 21 1.96 2.04
 8 2 21 1.45 -0.22
 7 2 21 1.28 -1.58
 6 2 21 -1.56 -0.32
 5 2 21 4.05 -0.08
 4 2 21 4.94 1.61
 3 2 21 -0.92 3.43
 2 2 21 1.03 2.19
 1 2 21 8.15 -0.08
 0 2 21 5.80 -0.19
 9 1 21 0.04 -1.58
 8 1 21 -5.14 -1.23
 7 1 21 5.73 1.02
 6 1 21 1.83 -0.33
 5 1 21 0.58 2.41
 4 1 21 5.94 0.87
 3 1 21 2.50 0.08
 2 1 21 5.06 2.36
 1 1 21 7.61 -0.62
 0 1 21 6.16 -1.77
 9 0 21 -0.08 -0.57
 8 0 21 -0.39 1.68
 7 0 21 -0.22 -1.66
 6 0 21 -0.32 -3.19
 5 0 21 0.09 -1.15
 4 0 21 0.36 3.67
 3 0 21 0.02 3.11
 2 0 21 -0.05 3.27
 1 0 21 -0.15 0.43
 3 11 22 -5.21 -3.62
 2 11 22 7.36 -2.33
 1 11 22 3.42 -2.52
 0 11 22 -0.67 -4.14
 4 10 22 4.75 0.67
 3 10 22 1.77 1.61
 2 10 22 -0.24 1.05
 1 10 22 -5.97 1.94
 0 10 22 -3.91 -0.02
 6 9 22 -1.42 -3.52
 5 9 22 -4.37 7.61
 4 9 22 -3.71 -1.55
 3 9 22 -0.33 -2.97
 2 9 22 3.80 3.58
 1 9 22 -4.47 -3.19
 0 9 22 1.10 -0.52
 6 8 22 -0.53 4.86
 5 8 22 -0.97 -0.59
 4 8 22 11.74 4.17
 3 8 22 -0.83 2.95
 2 8 22 0.47 -5.10
 1 8 22 0.24 -1.42
 0 8 22 -1.31 0.60
 7 7 22 -0.12 1.48
 6 7 22 0.29 6.99
 5 7 22 2.68 3.17
 4 7 22 -4.63 -2.36
 3 7 22 1.17 -7.33
 2 7 22 -3.19 -3.00
 1 7 22 -1.29 -4.92
 0 7 22 0.32 -7.66
 8 6 22 -0.28 5.93
 7 6 22 1.63 7.66
 6 6 22 0.78 4.53
 5 6 22 3.92 -2.88
 4 6 22 5.29 -2.05
 3 6 22 4.28 -1.79
 2 6 22 -1.08 -3.04
 1 6 22 -0.52 -1.17
 0 6 22 0.21 0.75
 8 5 22 1.81 -4.17
 7 5 22 1.96 -1.52
 6 5 22 5.68 4.40
 5 5 22 -4.74 0.90
 4 5 22 1.16 0.89
 3 5 22 -0.72 0.88
 2 5 22 1.68 -5.14
 1 5 22 -2.04 -1.21
 0 5 22 1.21 1.01
 8 4 22 -1.03 0.18
 7 4 22 0.35 0.66
 6 4 22 1.29 -0.75
 5 4 22 0.42 -3.10
 4 4 22 -0.28 -0.96
 3 4 22 1.93 -4.24
 2 4 22 3.90 -0.25
 1 4 22 -0.58 -1.61
 0 4 22 -2.75 1.01
 9 3 22 -1.79 1.86
 8 3 22 -5.18 -5.34
 7 3 22 -0.42 1.14
 6 3 22 0.14 0.00
 5 3 22 2.63 -2.94
 4 3 22 1.50 -5.77
 3 3 22 -1.50 -5.51
 2 3 22 -3.28 0.79
 1 3 22 -3.98 -2.94
 0 3 22 -0.20 -0.33
 9 2 22 3.22 1.79
 8 2 22 -0.26 -2.67
 7 2 22 0.33 6.86
 6 2 22 2.23 1.00
 5 2 22 0.49 0.27
 4 2 22 -2.40 0.81
 3 2 22 -4.81 -7.51
 2 2 22 0.56 -3.66
 1 2 22 3.56 -3.02
 0 2 22 -4.81 1.85
 9 1 22 0.61 1.67
 8 1 22 -0.40 -3.36
 7 1 22 1.68 4.03
 6 1 22 -1.09 -1.22
 5 1 22 2.74 -4.03
 4 1 22 2.43 -0.64
 3 1 22 3.99 -4.78
 2 1 22 -1.14 -2.50
 1 1 22 -5.41 -0.27
 0 1 22 -0.03 2.21
 9 0 22 0.10 -0.11
 8 0 22 -4.69 0.63
 7 0 22 0.34 -0.19
 6 0 22 1.26 -0.51
 5 0 22 -5.41 0.08
 4 0 22 0.09 -0.49
 3 0 22 -6.36 0.26
 2 0 22 1.62 0.48
 1 0 22 1.69 0.18
 0 0 22 -4.04 -0.22
 2 11 23 -1.87 -1.18
 1 11 23 1.06 -4.37
 0 11 23 0.34 -4.07
 4 10 23 5.80 -4.39
 3 10 23 -0.22 -5.66
 2 10 23 -7.85 -8.19
 1 10 23 1.36 -3.95
 0 10 23 -7.14 1.18
 5 9 23 4.31 0.59
 4 9 23 -4.41 -3.70
 3 9 23 4.65 -5.40
 2 9 23 0.82 -1.89
 1 9 23 2.66 4.98
 0 9 23 0.41 1.52
 6 8 23 -2.29 -1.26
 5 8 23 2.05 0.57
 4 8 23 2.94 -6.11
 3 8 23 -2.34 -2.95
 2 8 23 -2.47 -2.86
 1 8 23 -1.53 -1.36
 0 8 23 -1.51 -0.29
 7 7 23 -4.31 0.16
 6 7 23 2.09 -2.60
 5 7 23 -0.93 0.12
 4 7 23 -2.34 -4.67
 3 7 23 -3.67 -0.87
 2 7 23 -1.60 2.08
 1 7 23 -0.20 -0.78
 0 7 23 1.06 4.12
 7 6 23 4.96 -2.70
 6 6 23 -0.33 -0.71
 5 6 23 -2.27 -1.23
 4 6 23 -5.03 0.17
 3 6 23 -8.79 2.83
 2 6 23 0.38 5.77
 1 6 23 0.49 -2.94
 0 6 23 -8.04 0.46
 8 5 23 2.55 -1.61
 7 5 23 6.41 -2.90
 6 5 23 0.94 -2.75
 5 5 23 -3.74 -0.94
 4 5 23 1.13 4.15
 3 5 23 -2.27 0.64
 2 5 23 3.56 2.15
 1 5 23 0.50 -2.18
 0 5 23 1.05 3.49
 8 4 23 -0.27 -1.26
 7 4 23 1.52 -6.65
 6 4 23 -0.12 -2.03
 5 4 23 0.31 -1.70
 4 4 23 -3.36 -4.33
 3 4 23 -0.32 1.46
 2 4 23 -0.78 -1.94
 1 4 23 0.62 -1.09
 0 4 23 -2.45 -0.62
 8 3 23 -5.21 1.72
 7 3 23 -3.47 -2.20
 6 3 23 -0.06 -0.88
 5 3 23 -0.61 -1.70
 4 3 23 2.45 1.48
 3 3 23 -4.56 3.75
 2 3 23 13.38 -1.90
 1 3 23 4.97 0.73
 0 3 23 0.55 8.75
 9 2 23 -3.36 2.57
 8 2 23 1.15 -0.72
 6 2 23 -3.34 0.42
 5 2 23 2.34 -0.64
 4 2 23 -7.53 -6.80
 3 2 23 -2.09 2.28
 2 2 23 4.93 3.14
 1 2 23 -2.58 -3.86
 0 2 23 -0.55 0.33
 7 2 23 -1.72 -3.42
 9 1 23 -0.69 -1.83
 8 1 23 -2.80 -0.45
 7 1 23 -1.06 0.50
 6 1 23 1.42 0.79
 5 1 23 7.49 -2.11
 4 1 23 8.57 -0.95
 3 1 23 -2.08 6.07
 2 1 23 9.41 0.99
 1 1 23 3.99 -1.30
 0 1 23 2.62 5.59
 9 0 23 0.05 7.73
 8 0 23 -0.37 -0.20
 7 0 23 -0.33 -5.62
 6 0 23 -0.14 -1.36
 5 0 23 0.08 1.65
 4 0 23 0.23 -2.42
 3 0 23 0.44 -7.29
 2 0 23 0.14 -1.05
 1 0 23 0.35 -5.33
 1 11 24 3.71 2.78
 0 11 24 -1.29 -2.82
 3 10 24 0.57 5.00
 2 10 24 -1.66 2.83
 1 10 24 -5.40 6.90
 0 10 24 4.14 -0.42
 5 9 24 -3.79 -0.49
 4 9 24 1.61 -0.81
 3 9 24 2.92 3.73
 2 9 24 0.02 1.77
 1 9 24 6.76 1.32
 0 9 24 1.74 -3.09
 6 8 24 3.73 4.56
 5 8 24 0.56 4.57
 4 8 24 3.80 2.20
 3 8 24 -1.81 -1.97
 2 8 24 -4.93 0.48
 1 8 24 0.03 2.43
 0 8 24 6.56 0.50
 6 7 24 1.84 3.05
 5 7 24 -0.03 -0.25
 4 7 24 -4.87 -8.24
 3 7 24 -0.75 -1.17
 2 7 24 -4.28 -2.24
 1 7 24 2.93 -0.88
 0 7 24 -0.26 -1.19
 7 6 24 -0.75 9.86
 6 6 24 2.03 -2.60
 5 6 24 1.27 6.32
 4 6 24 2.16 0.18
 3 6 24 -3.05 6.21
 2 6 24 -3.43 1.32
 1 6 24 -1.36 1.02
 0 6 24 -2.61 1.13
 7 5 24 8.63 -0.62
 6 5 24 -1.23 1.58
 5 5 24 -0.94 1.49
 4 5 24 0.46 -2.77
 3 5 24 -1.09 0.77
 2 5 24 2.09 0.24
 1 5 24 2.16 1.15
 0 5 24 0.64 -0.03
 8 4 24 -4.28 -0.46
 7 4 24 2.11 -0.09
 6 4 24 1.66 -4.95
 5 4 24 -0.58 5.03
 4 4 24 2.42 -3.76
 3 4 24 4.77 -1.23
 2 4 24 -1.10 1.32
 1 4 24 3.04 -2.99
 0 4 24 -5.68 1.93
 8 3 24 0.60 -2.48
 7 3 24 7.71 -0.88
 6 3 24 -1.66 -3.40
 5 3 24 2.31 -1.63
 4 3 24 3.78 0.50
 3 3 24 -1.81 -4.94
 2 3 24 -0.57 2.55
 1 3 24 -3.36 -1.02
 0 3 24 0.08 -1.29
 8 2 24 0.22 0.30
 7 2 24 2.17 3.76
 6 2 24 1.97 -1.37
 5 2 24 -3.64 0.19
 4 2 24 -3.96 -6.53
 3 2 24 -2.56 -4.08
 2 2 24 -4.53 -1.55
 1 2 24 1.69 -1.89
 0 2 24 -6.23 1.61
 8 1 24 0.09 -0.09
 7 1 24 1.28 2.27
 6 1 24 -2.81 -3.06
 5 1 24 1.26 -4.18
 4 1 24 -2.72 -1.57
 3 1 24 -2.52 -1.98
 2 1 24 1.74 -4.31
 1 1 24 -1.09 1.88
 0 1 24 -0.97 3.56
 8 0 24 3.66 0.22
 7 0 24 0.54 -0.34
 6 0 24 3.22 0.07
 5 0 24 -3.09 -0.08
 4 0 24 -4.78 -0.10
 3 0 24 -2.78 0.27
 2 0 24 -3.70 0.38
 1 0 24 0.05 -0.01
 0 0 24 -8.81 -0.21
 3 10 25 -0.40 -0.68
 2 10 25 -0.30 -4.75
 1 10 25 0.80 1.74
 0 10 25 -3.70 4.69
 4 9 25 2.49 -4.66
 3 9 25 5.88 0.16
 2 9 25 5.17 0.40
 1 9 25 0.16 2.24
 0 9 25 0.55 -1.55
 5 8 25 4.48 2.13
 4 8 25 2.13 -2.92
 3 8 25 1.44 -2.86
 2 8 25 1.87 -2.35
 1 8 25 2.77 -5.05
 0 8 25 -0.60 0.60
 6 7 25 4.23 1.25
 5 7 25 0.29 -0.75
 4 7 25 2.41 -2.07
 3 7 25 -0.28 2.79
 2 7 25 -0.05 -1.06
 1 7 25 -3.12 -0.34
 0 7 25 1.44 1.95
 7 6 25 1.92 -1.99
 6 6 25 -1.21 -1.59
 5 6 25 -1.82 -0.05
 4 6 25 -9.66 1.58
 3 6 25 -2.94 -1.27
 2 6 25 -1.76 -1.91
 1 6 25 -4.19 -2.57
 0 6 25 0.11 0.23
 7 5 25 2.54 -4.50
 6 5 25 -0.08 -0.08
 5 5 25 -2.96 -1.62
 4 5 25 3.90 0.46
 3 5 25 1.35 3.72
 2 5 25 1.77 0.32
 1 5 25 0.15 5.18
 0 5 25 0.40 7.43
 8 4 25 3.61 -4.42
 7 4 25 -2.30 -4.98
 6 4 25 1.13 -2.23
 5 4 25 -1.09 1.05
 4 4 25 -7.19 1.40
 3 4 25 -1.53 2.08
 2 4 25 -3.78 0.87
 1 4 25 4.56 0.93
 0 4 25 0.46 -0.27
 8 3 25 -3.66 -4.35
 7 3 25 -2.62 -2.67
 6 3 25 1.06 -1.61
 5 3 25 -6.88 -2.32
 4 3 25 0.43 1.21
 3 3 25 -0.74 -1.53
 2 3 25 6.39 2.23
 1 3 25 1.62 6.03
 0 3 25 0.94 2.17
 8 2 25 -0.13 -0.06
 7 2 25 -2.15 -2.20
 6 2 25 -1.31 -2.80
 5 2 25 0.17 -1.85
 4 2 25 -0.25 -0.76
 3 2 25 0.99 2.16
 2 2 25 -1.67 1.01
 1 2 25 1.50 4.27
 0 2 25 3.19 -0.05
 8 1 25 -5.39 -0.84
 7 1 25 -4.68 -0.36
 6 1 25 6.44 -0.14
 5 1 25 0.79 0.69
 4 1 25 -4.19 0.82
 3 1 25 -4.26 -0.71
 2 1 25 1.38 1.71
 1 1 25 5.85 3.01
 0 1 25 0.02 1.49
 8 0 25 -0.06 -1.51
 7 0 25 0.02 4.07
 6 0 25 -0.03 7.10
 5 0 25 0.37 -1.91
 4 0 25 0.32 1.35
 3 0 25 0.10 0.96
 2 0 25 0.25 4.63
 1 0 25 0.07 4.36
 2 10 26 -5.97 4.43
 1 10 26 -3.53 3.67
 0 10 26 -1.87 0.00
 4 9 26 -4.02 0.01
 3 9 26 -4.08 0.45
 2 9 26 6.12 0.86
 1 9 26 4.52 -3.75
 0 9 26 0.92 -2.43
 5 8 26 -1.94 0.50
 4 8 26 1.18 -6.49
 3 8 26 -5.47 2.49
 2 8 26 -1.39 2.12
 1 8 26 4.69 -4.13
 0 8 26 -1.16 0.10
 6 7 26 -0.27 -4.47
 5 7 26 -2.29 -4.13
 4 7 26 -6.39 -6.11
 3 7 26 -0.68 3.75
 2 7 26 4.11 -1.15
 1 7 26 1.08 -3.45
 0 7 26 -0.44 -3.22
 6 6 26 -1.15 2.95
 5 6 26 2.38 6.70
 4 6 26 -1.01 4.11
 3 6 26 2.21 6.95
 2 6 26 -0.38 -1.03
 1 6 26 -3.31 -2.37
 0 6 26 5.40 -0.12
 7 5 26 1.46 0.16
 6 5 26 -2.32 6.90
 5 5 26 2.42 0.35
 4 5 26 -0.09 2.99
 3 5 26 2.68 2.07
 2 5 26 -0.25 1.23
 1 5 26 2.81 5.83
 0 5 26 -0.57 4.49
 7 4 26 -1.72 -0.49
 6 4 26 3.53 5.16
 5 4 26 -0.27 2.40
 4 4 26 2.72 -1.14
 3 4 26 3.76 -1.36
 2 4 26 1.23 -3.01
 1 4 26 0.12 -4.54
 0 4 26 1.81 0.13
 7 3 26 0.50 0.22
 6 3 26 -3.38 -0.22
 5 3 26 4.12 -0.66
 4 3 26 3.36 1.29
 3 3 26 3.09 -3.02
 2 3 26 0.69 1.70
 1 3 26 -1.17 -3.42
 0 3 26 -1.06 -3.79
 8 2 26 1.06 -0.81
 7 2 26 0.07 1.67
 6 2 26 1.14 2.07
 5 2 26 -3.95 2.31
 4 2 26 -0.21 -1.40
 3 2 26 1.17 -2.51
 2 2 26 1.98 -3.38
 1 2 26 5.77 0.88
 0 2 26 -2.68 -0.45
 8 1 26 -3.56 -5.13
 7 1 26 -1.29 -0.29
 6 1 26 -6.14 -4.18
 5 1 26 0.84 -3.22
 4 1 26 -0.26 1.16
 3 1 26 5.63 -1.18
 2 1 26 0.53 1.20
 1 1 26 -2.01 1.25
 0 1 26 -0.47 -4.07
 8 0 26 0.93 0.25
 7 0 26 -0.10 -0.28
 6 0 26 0.51 0.02
 5 0 26 -1.06 -0.05
 4 0 26 -2.87 -0.01
 3 0 26 -2.23 0.24
 2 0 26 2.34 0.36
 1 0 26 5.50 -0.61
 0 0 26 1.31 0.86
 3 9 27 4.20 -0.79
 2 9 27 1.07 -2.61
 1 9 27 1.25 0.20
 0 9 27 0.57 2.85
 4 8 27 12.28 -5.48
 3 8 27 1.61 -5.53
 2 8 27 3.62 -3.01
 1 8 27 0.40 -4.65
 0 8 27 -5.09 1.69
 5 7 27 1.25 1.64
 4 7 27 -0.93 -1.78
 3 7 27 -2.96 -3.63
 2 7 27 -5.24 -2.58
 1 7 27 -7.06 -4.71
 0 7 27 -0.28 1.20
 6 6 27 -0.52 -0.79
 5 6 27 -2.20 -3.43
 4 6 27 -1.76 -2.81
 3 6 27 -1.08 -5.85
 2 6 27 -5.28 -0.38
 1 6 27 -2.43 -0.69
 0 6 27 -1.66 0.19
 6 5 27 2.85 -1.44
 5 5 27 2.22 -2.73
 4 5 27 0.79 2.17
 3 5 27 -0.90 -6.16
 2 5 27 1.00 -1.51
 1 5 27 -2.94 3.86
 0 5 27 0.15 0.06
 7 4 27 0.42 -5.44
 6 4 27 5.32 0.36
 5 4 27 0.21 -3.91
 4 4 27 2.20 -2.72
 3 4 27 1.14 -1.89
 2 4 27 -0.16 -0.48
 1 4 27 1.59 -1.63
 0 4 27 0.31 -0.29
 7 3 27 -0.75 2.10
 6 3 27 2.63 -3.15
 5 3 27 -0.31 -2.54
 4 3 27 0.21 -2.53
 3 3 27 -0.96 -1.04
 2 3 27 3.14 1.74
 1 3 27 -0.19 1.88
 0 3 27 0.94 2.65
 7 2 27 -0.87 -5.12
 6 2 27 2.63 -2.64
 5 2 27 -0.07 0.44
 4 2 27 -2.76 -1.71
 3 2 27 -0.94 0.02
 2 2 27 -0.67 1.33
 1 2 27 0.29 -1.12
 0 2 27 -4.74 -0.13
 7 1 27 -1.51 0.36
 6 1 27 4.38 0.66
 5 1 27 -2.44 -0.62
 4 1 27 -1.27 -2.27
 3 1 27 -1.69 -0.39
 2 1 27 3.21 2.53
 1 1 27 4.99 -3.16
 0 1 27 -1.22 -0.48
 7 0 27 0.10 3.47
 6 0 27 -0.13 0.17
 5 0 27 0.15 -1.06
 4 0 27 0.16 3.50
 3 0 27 -0.12 -2.35
 2 0 27 0.26 1.89
 1 0 27 0.00 -1.25
 2 9 28 3.39 -0.76
 1 9 28 4.96 3.39
 0 9 28 0.09 5.67
 4 8 28 -3.37 -2.52
 3 8 28 -0.56 5.72
 2 8 28 -2.29 0.12
 1 8 28 -3.35 3.89
 0 8 28 0.43 0.02
 5 7 28 -3.72 -4.56
 4 7 28 -1.93 -0.98
 3 7 28 1.47 5.10
 2 7 28 -2.70 -5.48
 1 7 28 -0.85 -1.57
 0 7 28 0.03 5.53
 5 6 28 -2.81 7.95
 4 6 28 -1.59 0.49
 3 6 28 -2.05 0.24
 2 6 28 -2.44 1.70
 1 6 28 2.32 0.34
 0 6 28 0.47 0.05
 6 5 28 2.26 2.57
 5 5 28 0.20 -1.12
 4 5 28 1.97 5.65
 3 5 28 -4.82 2.04
 2 5 28 -4.22 10.00
 1 5 28 1.50 4.04
 0 5 28 -1.54 -8.14
 6 4 28 -1.49 4.70
 5 4 28 -4.70 2.47
 4 4 28 -0.55 -0.40
 3 4 28 -2.85 1.41
 2 4 28 -1.33 -0.09
 1 4 28 3.13 0.39
 0 4 28 -1.19 0.03
 7 3 28 0.22 -0.74
 6 3 28 2.33 1.53
 5 3 28 0.08 2.13
 4 3 28 1.63 0.41
 3 3 28 -0.51 0.41
 2 3 28 1.18 0.52
 1 3 28 -0.30 -0.24
 0 3 28 -1.03 -1.55
 7 2 28 0.86 0.40
 6 2 28 -2.11 4.59
 5 2 28 -0.58 -2.17
 4 2 28 -0.61 -1.66
 3 2 28 -0.24 -2.61
 2 2 28 1.01 2.96
 1 2 28 -0.32 1.14
 0 2 28 -0.45 -1.25
 7 1 28 -2.15 0.94
 6 1 28 -0.34 1.71
 5 1 28 3.08 -0.71
 4 1 28 1.75 -0.53
 3 1 28 0.55 1.29
 2 1 28 1.94 -5.17
 1 1 28 0.30 -3.19
 0 1 28 1.45 -5.11
 7 0 28 1.28 0.12
 6 0 28 4.30 0.11
 5 0 28 1.50 0.04
 4 0 28 -3.15 -0.01
 3 0 28 1.13 -0.13
 2 0 28 2.95 0.12
 1 0 28 -2.32 0.28
 0 0 28 -6.70 0.06
 3 8 29 -2.23 2.02
 2 8 29 4.09 -0.67
 1 8 29 7.56 -4.05
 0 8 29 2.16 2.03
 4 7 29 -1.06 -2.35
 3 7 29 2.40 -0.04
 2 7 29 1.49 -1.61
 1 7 29 -0.01 3.41
 0 7 29 -0.55 0.66
 5 6 29 2.17 0.28
 4 6 29 -1.30 2.54
 3 6 29 -2.05 -2.02
 2 6 29 -4.65 1.65
 1 6 29 -0.85 0.45
 0 6 29 1.63 0.48
 5 5 29 -0.68 -1.99
 4 5 29 2.66 -4.47
 3 5 29 0.20 -0.44
 2 5 29 2.88 2.61
 1 5 29 -3.21 1.12
 0 5 29 -0.22 -5.76
 6 4 29 2.73 -3.22
 5 4 29 1.75 -2.12
 4 4 29 1.12 0.20
 3 4 29 -4.66 -2.11
 2 4 29 0.64 -1.54
 1 4 29 6.32 1.30
 0 4 29 -9.31 -0.22
 6 3 29 1.76 -3.54
 5 3 29 -2.95 -2.05
 4 3 29 -2.20 -3.31
 3 3 29 2.74 -3.35
 2 3 29 -3.99 3.00
 1 3 29 -0.95 -0.69
 0 3 29 0.85 -2.16
 7 2 29 4.16 -3.52
 6 2 29 2.07 -2.16
 5 2 29 0.25 -0.42
 4 2 29 2.96 0.70
 3 2 29 1.16 -0.87
 2 2 29 -2.98 -4.09
 1 2 29 0.04 3.61
 0 2 29 -2.02 -0.16
 7 1 29 -0.17 1.30
 6 1 29 -0.15 1.96
 5 1 29 -0.57 0.53
 4 1 29 -2.80 -0.57
 3 1 29 -1.49 -3.27
 2 1 29 -0.67 0.17
 1 1 29 -0.92 -2.76
 0 1 29 -2.06 -0.32
 7 0 29 -0.05 -7.77
 6 0 29 -0.12 -1.68
 5 0 29 0.15 -2.11
 4 0 29 -0.19 -0.77
 3 0 29 -0.48 -0.11
 2 0 29 0.26 -4.83
 1 0 29 -0.18 2.83
 1 8 30 2.94 0.91
 0 8 30 2.11 -0.53
 3 7 30 1.60 2.61
 2 7 30 -3.35 -3.87
 1 7 30 3.11 -0.27
 0 7 30 0.21 3.89
 4 6 30 0.41 1.55
 3 6 30 -1.43 3.21
 2 6 30 1.35 4.67
 1 6 30 -3.86 -0.07
 0 6 30 -0.42 -0.43
 5 5 30 3.20 1.27
 4 5 30 -4.03 2.59
 3 5 30 -3.22 0.48
 2 5 30 -2.22 2.03
 1 5 30 3.81 -1.28
 0 5 30 -1.25 1.91
 5 4 30 -0.60 1.88
 4 4 30 -0.33 0.68
 3 4 30 2.92 3.98
 2 4 30 5.09 -0.20
 1 4 30 -0.71 5.50
 0 4 30 -0.26 -0.43
 6 3 30 -1.40 2.74
 5 3 30 -2.09 -2.36
 4 3 30 0.19 2.57
 3 3 30 0.98 5.31
 2 3 30 0.78 2.36
 1 3 30 1.42 1.23
 0 3 30 -0.24 -1.72
 6 2 30 1.93 -0.13
 5 2 30 0.02 3.04
 4 2 30 -3.21 1.40
 3 2 30 2.94 -0.56
 2 2 30 1.65 4.96
 1 2 30 2.36 2.75
 0 2 30 5.16 -4.14
 6 1 30 0.85 -4.52
 5 1 30 -2.99 -1.94
 4 1 30 0.80 0.21
 3 1 30 0.44 0.19
 2 1 30 0.09 -0.08
 1 1 30 2.92 4.33
 0 1 30 -0.11 -0.14
 6 0 30 5.50 -0.26
 5 0 30 -2.02 -0.23
 4 0 30 -1.08 0.00
 3 0 30 0.38 0.04
 2 0 30 -6.51 0.30
 1 0 30 -5.81 -0.53
 0 0 30 4.31 -0.21
 2 7 31 1.85 1.27
 1 7 31 -2.14 -3.71
 0 7 31 -0.65 -6.43
 3 6 31 4.61 -2.43
 2 6 31 0.18 -3.34
 1 6 31 4.37 -6.98
 0 6 31 -2.01 0.06
 4 5 31 1.35 -0.43
 3 5 31 2.98 0.53
 2 5 31 3.94 -2.16
 1 5 31 -2.87 -0.74
 0 5 31 -0.49 -0.18
 5 4 31 3.48 -3.88
 4 4 31 1.27 -2.78
 3 4 31 -0.16 -2.32
 2 4 31 0.66 -1.44
 1 4 31 -4.61 -1.42
 0 4 31 -7.23 0.64
 5 3 31 1.87 -1.70
 4 3 31 -1.51 -3.95
 3 3 31 0.56 -0.64
 2 3 31 -4.23 0.75
 1 3 31 -0.85 -2.62
 0 3 31 0.97 2.25
 6 2 31 3.33 1.94
 5 2 31 0.27 -3.21
 4 2 31 3.01 0.92
 3 2 31 -0.76 -3.94
 2 2 31 1.38 -3.95
 1 2 31 1.74 2.82
 0 2 31 -2.31 0.00
 6 1 31 -0.95 0.75
 5 1 31 -0.57 -2.53
 4 1 31 -3.08 -2.30
 3 1 31 -1.32 -3.02
 2 1 31 -0.40 -1.89
 1 1 31 0.12 -5.68
 0 1 31 -1.64 -2.16
 6 0 31 -0.25 -3.21
 5 0 31 0.04 1.90
 4 0 31 -0.05 1.14
 3 0 31 0.03 -2.34
 2 0 31 0.18 -1.78
 1 0 31 0.51 -0.69
 0 7 32 0.13 6.86
 2 6 32 -0.51 3.13
 1 6 32 -3.60 -0.16
 0 6 32 -1.79 -0.44
 3 5 32 -0.92 -4.06
 2 5 32 -1.56 1.82
 1 5 32 1.12 0.53
 0 5 32 -0.30 0.77
 4 4 32 -3.40 2.03
 3 4 32 1.67 1.41
 2 4 32 -1.84 1.58
 1 4 32 -6.14 0.75
 0 4 32 0.72 -0.80
 5 3 32 -1.90 -1.56
 4 3 32 -4.96 1.52
 3 3 32 -1.08 1.67
 2 3 32 1.91 -0.95
 1 3 32 0.70 1.77
 0 3 32 -0.09 4.84
 5 2 32 -1.51 -0.41
 4 2 32 -1.93 -1.61
 3 2 32 4.77 3.06
 2 2 32 4.84 4.74
 1 2 32 -0.71 -0.97
 0 2 32 1.75 -1.88
 5 1 32 -3.03 4.63
 4 1 32 1.27 -2.53
 3 1 32 0.08 4.46
 2 1 32 0.26 2.90
 1 1 32 1.27 -3.30
 0 1 32 -0.40 -3.41
 5 0 32 1.37 -0.01
 4 0 32 0.25 0.28
 3 0 32 -5.74 -0.25
 2 0 32 2.00 0.27
 1 0 32 0.05 0.09
 0 0 32 4.50 0.72
 1 6 33 -1.35 -1.14
 0 6 33 -2.38 -0.27
 2 5 33 0.93 -0.68
 1 5 33 -2.73 -0.65
 0 5 33 -0.21 -2.72
 3 4 33 -1.63 -2.18
 2 4 33 1.44 -1.73
 1 4 33 0.21 0.76
 0 4 33 -0.83 0.05
 4 3 33 -0.67 -2.71
 3 3 33 -0.57 1.05
 2 3 33 -0.23 0.23
 1 3 33 1.81 1.31
 0 3 33 0.55 -1.92
 4 2 33 1.79 3.05
 3 2 33 3.39 -1.41
 2 2 33 -1.03 -2.16
 1 2 33 0.53 1.45
 0 2 33 2.12 0.02
 4 1 33 -2.12 0.36
 3 1 33 -1.60 -6.18
 2 1 33 1.67 -3.88
 1 1 33 -4.79 -2.19
 0 1 33 -0.82 1.33
 5 0 33 0.16 4.56
 4 0 33 0.15 -6.56
 3 0 33 0.22 -0.68
 2 0 33 0.31 -5.43
 1 0 33 0.26 -0.32
 3 5 33 4.40 2.24
 1 5 34 -3.22 2.37
 0 5 34 -0.02 3.15
 2 4 34 -1.69 -1.71
 1 4 34 -4.61 4.90
 0 4 34 5.55 -1.17
 3 3 34 2.94 4.15
 2 3 34 -2.82 1.53
 1 3 34 -1.71 5.01
 0 3 34 0.51 0.20
 3 2 34 5.27 2.50
 2 2 34 -0.25 0.43
 1 2 34 -4.47 0.66
 0 2 34 3.70 -1.27
 4 1 34 3.65 -0.79
 3 1 34 0.35 3.60
 2 1 34 -1.19 -4.60
 1 1 34 0.96 -1.13
 0 1 34 0.90 4.52
 4 0 34 -0.71 0.15
 3 0 34 1.90 0.01
 2 0 34 -0.54 0.07
 1 0 34 -8.72 -0.01
 0 0 34 -0.02 0.59
 0 4 35 1.14 0.28
 2 3 35 3.29 -2.13
 1 3 35 -1.53 -1.40
 0 3 35 -0.42 -2.18
 2 2 35 0.48 -3.56
 1 2 35 4.13 -0.01
 0 2 35 -1.30 0.00
 3 1 35 0.91 -2.31
 2 1 35 -0.17 1.37
 1 1 35 -2.36 -1.49
 0 1 35 0.11 -4.00
 3 0 35 -0.22 0.15
 2 0 35 0.07 -0.93
 1 0 35 -0.16 1.33
 0 2 36 3.85 -0.44
 1 1 36 0.12 1.47
 0 1 36 0.11 2.89
 1 0 36 -0.33 0.44
 0 0 36 4.40 -0.18
 0 2 0 245.19 -4.54
 11 6 0 -0.45 1.48
 11 7 0 0.08 -1.68
 10 8 0 -0.94 0.13
 11 8 0 -0.57 3.09
 10 9 0 -8.00 -0.38
 11 9 0 0.28 -1.55
 9 10 0 0.08 4.39
 10 10 0 -1.74 -0.14
 11 10 0 -0.05 -0.38
 8 11 0 -4.13 -0.12
 9 11 0 -0.26 2.57
 10 11 0 -0.22 -0.13
 11 11 0 -0.02 -0.43
 7 12 0 0.04 -3.71
 8 12 0 4.96 -0.12
 9 12 0 0.19 -0.18
 10 12 0 -2.94 0.14
 11 12 0 0.13 1.21
 6 13 0 -2.58 0.14
 7 13 0 -0.18 -3.91
 8 13 0 0.94 -0.19
 9 13 0 0.01 2.48
 10 13 0 -1.14 0.01
 11 13 0 0.04 0.38
 4 14 0 -1.84 -0.99
 5 14 0 0.07 -3.11
 6 14 0 -0.28 0.00
 7 14 0 0.52 0.97
 8 14 0 0.55 0.06
 9 14 0 -0.14 -0.05
 10 14 0 -0.65 -0.21
 0 1 1 0.09 175.51
 11 6 1 -2.18 2.90
 11 7 1 -0.40 -1.67
 10 8 1 -1.11 -0.97
 11 8 1 2.47 -0.36
 10 9 1 -1.14 1.86
 11 9 1 -2.88 -0.48
 9 10 1 -3.68 -0.35
 10 10 1 0.67 -5.33
 11 10 1 3.07 -0.32
 8 11 1 -2.42 -1.30
 9 11 1 1.69 2.62
 10 11 1 1.96 -0.33
 11 11 1 -0.36 0.32
 7 12 1 -1.71 1.83
 8 12 1 4.03 -0.91
 9 12 1 -2.79 -1.18
 10 12 1 0.89 1.43
 11 12 1 1.17 0.12
 6 13 1 -2.45 -0.78
 7 13 1 -0.92 -0.64
 8 13 1 0.25 1.64
 9 13 1 0.43 0.87
 10 13 1 -0.18 -2.39
 11 13 1 0.37 0.10
 4 14 1 -1.44 0.71
 5 14 1 -4.36 1.37
 6 14 1 -0.21 -0.58
 7 14 1 -0.36 0.02
 8 14 1 1.52 -1.49
 9 14 1 0.09 1.78
 10 14 1 0.70 -0.27
 11 6 2 -2.56 -1.59
 11 7 2 1.70 -2.45
 10 8 2 -2.87 0.11
 11 8 2 0.26 1.30
 10 9 2 -0.96 0.90
 11 9 2 -1.80 -2.34
 9 10 2 -0.59 1.78
 10 10 2 -2.26 0.07
 11 10 2 -2.10 0.58
 8 11 2 -1.72 0.39
 9 11 2 -1.91 1.09
 10 11 2 0.87 0.90
 11 11 2 0.23 -0.58
 7 12 2 -0.54 -2.78
 8 12 2 -0.38 0.70
 9 12 2 1.64 -2.33
 10 12 2 -1.95 -1.62
 11 12 2 -0.19 -1.24
 6 13 2 -0.50 1.72
 7 13 2 -1.99 0.08
 8 13 2 -1.01 -0.87
 9 13 2 2.05 -0.59
 10 13 2 -3.15 0.99
 11 13 2 0.40 0.77
 4 14 2 2.08 -0.74
 5 14 2 0.17 -0.48
 6 14 2 1.83 0.28
 7 14 2 -1.26 1.72
 8 14 2 -1.31 1.23
 9 14 2 -0.66 0.08
 10 14 2 0.28 -0.55
 11 6 3 -0.89 3.83
 11 7 3 -1.62 -3.31
 10 8 3 -2.29 2.65
 11 8 3 -0.05 2.25
 10 9 3 2.67 2.00
 11 9 3 -3.10 -1.03
 9 10 3 -1.72 -0.61
 10 10 3 0.63 -3.82
 11 10 3 1.69 -0.17
 8 11 3 1.33 -4.35
 9 11 3 1.95 -0.68
 10 11 3 1.14 0.08
 11 11 3 0.23 -0.72
 7 12 3 -2.31 -2.48
 8 12 3 2.51 0.04
 9 12 3 -0.51 -1.81
 10 12 3 1.04 0.64
 11 12 3 1.30 0.74
 6 13 3 -2.82 0.03
 7 13 3 -0.77 -0.75
 8 13 3 3.43 -0.95
 9 13 3 2.71 1.99
 10 13 3 0.92 -1.89
 11 13 3 1.08 1.37
 4 14 3 3.34 -1.54
 5 14 3 -0.05 -3.18
 6 14 3 -0.84 0.72
 7 14 3 -0.70 -0.73
 8 14 3 1.33 -1.34
 9 14 3 -0.80 2.02
 10 14 3 0.79 0.97
 11 6 4 -2.15 1.13
 11 7 4 -1.69 -3.28
 10 8 4 -3.05 0.48
 11 8 4 -1.11 2.69
 10 9 4 -0.04 0.35
 11 9 4 -0.46 -1.58
 9 10 4 -1.87 3.22
 10 10 4 -0.06 -1.65
 11 10 4 -3.27 -0.61
 8 11 4 -0.45 0.88
 9 11 4 -0.03 -0.61
 10 11 4 -0.91 1.05
 11 11 4 -0.81 0.35
 7 12 4 0.22 1.34
 8 12 4 0.42 3.17
 9 12 4 0.19 0.75
 10 12 4 -1.79 0.69
 11 12 4 -0.29 -0.80
 6 13 4 1.55 -0.33
 7 13 4 1.87 -0.79
 8 13 4 -1.20 1.34
 9 13 4 0.91 0.81
 10 13 4 0.16 0.56
 11 13 4 -0.88 -0.10
 4 14 4 -1.27 -2.41
 5 14 4 -1.29 -1.64
 6 14 4 1.42 -0.54
 7 14 4 0.02 0.40
 8 14 4 -0.28 3.89
 9 14 4 -1.22 -0.28
 10 14 4 -0.81 1.00
 11 6 5 -2.59 4.38
 11 7 5 -2.57 -0.79
 10 8 5 0.16 -1.53
 11 8 5 -0.10 1.34
 10 9 5 1.99 1.28
 11 9 5 -3.22 1.43
 9 10 5 -1.92 -3.11
 10 10 5 2.76 -0.77
 11 10 5 0.94 -0.19
 8 11 5 -0.66 -1.24
 9 11 5 -0.35 -0.54
 10 11 5 -0.58 0.87
 11 11 5 0.60 0.64
 7 12 5 -0.09 -3.55
 8 12 5 2.75 1.34
 9 12 5 -1.58 -2.96
 10 12 5 1.23 0.11
 11 12 5 2.34 -0.28
 6 13 5 -2.46 0.21
 7 13 5 -5.97 0.33
 8 13 5 -0.10 1.39
 9 13 5 -0.23 0.24
 10 13 5 0.27 -0.71
 11 13 5 0.99 0.28
 4 14 5 -4.51 -0.12
 5 14 5 1.36 -0.84
 6 14 5 2.07 2.22
 7 14 5 0.35 0.46
 8 14 5 2.51 -0.78
 9 14 5 0.08 0.40
 10 14 5 0.36 0.78
 11 6 6 0.34 2.47
 11 7 6 2.64 -2.30
 10 8 6 -5.91 1.20
 11 8 6 -0.92 1.67
 10 9 6 1.25 -1.51
 11 9 6 1.25 0.03
 9 10 6 -4.34 -1.93
 10 10 6 -0.88 1.90
 11 10 6 0.03 -1.43
 8 11 6 -1.53 4.92
 9 11 6 2.73 -0.93
 10 11 6 1.91 -0.63
 11 11 6 -0.27 0.45
 7 12 6 1.73 -1.87
 8 12 6 -1.22 3.14
 9 12 6 -0.60 -0.45
 10 12 6 -0.32 -0.19
 11 12 6 -0.59 -0.22
 6 13 6 -2.25 -4.06
 7 13 6 1.77 1.38
 8 13 6 1.89 0.40
 9 13 6 0.33 -0.83
 10 13 6 1.19 0.88
 11 13 6 -0.32 0.90
 4 14 6 -1.22 -1.26
 5 14 6 0.38 -0.65
 6 14 6 -1.37 0.45
 7 14 6 2.16 -3.38
 8 14 6 -0.41 2.04
 9 14 6 0.66 -0.05
 10 14 6 0.88 -1.61
 11 5 7 0.44 -1.59
 11 6 7 -1.68 2.68
 11 7 7 2.25 -1.21
 10 8 7 -0.62 -2.53
 11 8 7 3.86 1.48
 10 9 7 2.53 -2.31
 11 9 7 0.81 0.30
 9 10 7 -0.25 -4.25
 10 10 7 2.48 0.13
 11 10 7 2.09 1.19
 8 11 7 0.74 2.66
 9 11 7 2.67 -0.32
 10 11 7 0.68 1.27
 11 11 7 -0.96 -0.06
 7 12 7 4.21 0.47
 8 12 7 1.26 1.11
 9 12 7 -1.23 0.52
 10 12 7 -1.50 1.62
 11 12 7 0.77 1.26
 6 13 7 2.48 0.39
 7 13 7 -0.10 -2.44
 8 13 7 0.90 -0.26
 9 13 7 0.35 -0.83
 10 13 7 -0.87 -0.19
 11 13 7 -0.63 0.20
 4 14 7 1.01 -0.85
 5 14 7 0.38 -3.96
 6 14 7 1.11 1.35
 7 14 7 1.04 1.10
 8 14 7 2.20 2.42
 9 14 7 -1.20 0.13
 10 14 7 0.28 0.61
 11 5 8 1.55 -0.95
 11 6 8 1.66 0.64
 11 7 8 1.68 -2.61
 10 8 8 -5.99 3.22
 11 8 8 1.28 -1.82
 10 9 8 0.63 -2.13
 11 9 8 0.63 -2.13
 9 10 8 1.00 0.64
 10 10 8 -2.44 1.73
 11 10 8 -0.99 0.06
 8 11 8 -1.86 0.51
 9 11 8 -0.06 0.90
 10 11 8 2.39 0.40
 11 11 8 -0.46 -1.14
 7 12 8 0.96 -3.29
 8 12 8 1.50 0.87
 9 12 8 -0.33 -0.20
 10 12 8 -1.70 0.48
 11 12 8 0.93 -0.58
 5 13 8 0.69 0.13
 6 13 8 -2.69 -3.91
 7 13 8 -1.68 -1.80
 8 13 8 1.04 -0.07
 9 13 8 0.21 0.25
 10 13 8 0.71 -1.72
 11 13 8 -1.00 0.20
 3 14 8 -3.11 2.61
 4 14 8 -4.23 -2.41
 5 14 8 0.72 -0.73
 6 14 8 -0.83 0.47
 7 14 8 1.73 -0.31
 8 14 8 0.73 -0.20
 9 14 8 -0.39 0.53
 10 14 8 0.82 0.40
 11 5 9 1.34 -0.52
 11 6 9 0.01 -0.52
 11 7 9 -0.11 -1.92
 10 8 9 0.24 -0.44
 11 8 9 0.74 -1.73
 9 9 9 0.27 2.40
 10 9 9 -0.53 -0.48
 11 9 9 1.85 -0.99
 9 10 9 0.31 -5.46
 10 10 9 1.56 -2.68
 11 10 9 0.51 -0.85
 8 11 9 -1.13 2.97
 9 11 9 -0.09 -1.25
 10 11 9 -0.54 3.17
 11 11 9 0.99 0.19
 7 12 9 1.44 -0.76
 8 12 9 1.23 -1.01
 9 12 9 -0.58 -3.50
 10 12 9 -1.14 -1.08
 11 12 9 0.72 0.65
 5 13 9 -0.10 0.29
 6 13 9 -1.20 1.84
 7 13 9 0.74 -0.37
 8 13 9 -0.52 2.10
 9 13 9 0.45 -1.66
 10 13 9 -0.38 0.12
 11 13 9 -0.45 0.84
 3 14 9 0.43 -0.91
 4 14 9 3.03 1.18
 5 14 9 0.52 -2.34
 6 14 9 -0.25 1.66
 7 14 9 -0.20 -1.04
 8 14 9 -0.13 2.42
 9 14 9 -0.57 -0.70
 10 14 9 -1.28 0.07
 11 4 10 -1.40 4.03
 11 5 10 4.47 0.41
 11 6 10 -0.89 1.67
 10 7 10 -1.28 4.88
 11 7 10 0.89 -1.55
 10 8 10 -7.20 4.84
 11 8 10 -1.67 -1.99
 9 9 10 2.32 -3.51
 10 9 10 -1.56 0.03
 11 9 10 0.77 -0.64
 9 10 10 2.37 0.68
 10 10 10 0.98 1.05
 11 10 10 -1.29 0.13
 8 11 10 -2.30 1.56
 9 11 10 -0.65 -1.23
 10 11 10 0.87 0.57
 11 11 10 0.12 1.37
 7 12 10 3.44 -2.32
 8 12 10 -0.40 2.27
 9 12 10 0.74 -0.69
 10 12 10 0.31 -1.10
 11 12 10 0.85 1.05
 5 13 10 -3.13 2.16
 6 13 10 -1.34 -1.35
 7 13 10 0.96 0.50
 8 13 10 0.31 1.43
 9 13 10 -0.89 0.12
 10 13 10 1.58 0.97
 11 13 10 -0.86 -0.60
 2 14 10 2.19 1.97
 3 14 10 0.09 0.46
 4 14 10 -1.87 2.38
 5 14 10 -0.63 -1.90
 6 14 10 1.01 -1.05
 7 14 10 1.36 -0.21
 8 14 10 0.21 0.96
 9 14 10 1.34 0.16
 10 14 10 0.53 -0.31
 11 4 11 -2.19 -0.14
 11 5 11 3.51 -0.11
 11 6 11 -0.19 0.86
 10 7 11 1.22 -2.10
 11 7 11 0.46 0.38
 10 8 11 2.90 1.79
 11 8 11 1.97 0.74
 9 9 11 1.50 0.42
 10 9 11 -1.66 -2.88
 11 9 11 1.02 2.06
 8 10 11 -1.90 1.21
 9 10 11 -0.34 -0.44
 10 10 11 2.26 -1.30
 11 10 11 1.63 -0.83
 8 11 11 -2.96 4.76
 9 11 11 -1.31 -0.53
 10 11 11 -1.07 1.09
 11 11 11 -0.92 -0.08
 6 12 11 0.77 4.94
 7 12 11 0.80 3.65
 8 12 11 1.66 2.08
 9 12 11 -0.98 -2.49
 10 12 11 -0.95 -0.15
 11 12 11 -0.16 -1.38
 5 13 11 -0.25 -0.55
 6 13 11 -0.91 1.58
 7 13 11 -1.12 1.62
 8 13 11 -0.11 1.27
 9 13 11 -0.29 -0.78
 10 13 11 -0.07 0.42
 11 13 11 -1.33 0.28
 2 14 11 -1.10 -1.07
 3 14 11 1.09 0.85
 4 14 11 -1.31 -0.63
 5 14 11 4.06 -1.88
 6 14 11 -1.18 2.28
 7 14 11 0.18 -1.10
 8 14 11 -0.56 1.01
 9 14 11 -0.21 -1.46
 10 14 11 -1.70 0.33
 11 3 12 -0.05 1.72
 11 4 12 -0.75 0.45
 11 5 12 2.24 0.74
 11 6 12 0.68 1.97
 10 7 12 2.15 -5.15
 11 7 12 1.30 0.37
 10 8 12 0.62 2.29
 11 8 12 -0.50 -1.03
 9 9 12 0.58 -3.85
 10 9 12 0.66 -1.63
 11 9 12 0.55 -0.64
 8 10 12 7.87 -0.20
 9 10 12 3.20 -2.31
 10 10 12 1.14 1.42
 11 10 12 0.84 -1.01
 7 11 12 3.33 -0.42
 8 11 12 1.65 -0.91
 9 11 12 -0.14 -0.62
 10 11 12 -0.41 -0.72
 11 11 12 -0.80 -1.58
 6 12 12 1.46 -0.53
 7 12 12 3.56 -0.17
 8 12 12 2.53 1.04
 9 12 12 1.37 1.84
 10 12 12 -0.38 -0.14
 11 12 12 1.36 0.63
 5 13 12 -0.48 -0.65
 6 13 12 -0.47 0.09
 7 13 12 -0.48 -1.48
 8 13 12 2.16 1.03
 9 13 12 -0.14 -0.13
 10 13 12 -0.17 0.38
 11 13 12 -0.35 0.23
 0 14 12 -0.87 -0.90
 1 14 12 3.18 -0.90
 2 14 12 2.98 -0.20
 3 14 12 0.98 -0.76
 4 14 12 -0.74 -1.81
 5 14 12 -0.24 0.27
 6 14 12 1.38 -2.35
 7 14 12 2.02 -2.15
 8 14 12 -0.23 -0.62
 9 14 12 -0.11 0.60
 10 14 12 0.87 0.85
 11 2 13 -1.19 -2.64
 11 3 13 6.15 -1.08
 11 4 13 0.26 0.08
 11 5 13 3.62 1.66
 11 6 13 -0.04 -0.26
 10 7 13 -3.60 2.39
 11 7 13 0.17 -0.46
 10 8 13 1.29 1.50
 11 8 13 1.71 -0.19
 9 9 13 -0.17 1.73
 10 9 13 -2.88 -1.27
 11 9 13 -0.40 -2.71
 8 10 13 -0.45 2.30
 9 10 13 0.78 0.48
 10 10 13 -2.82 -0.26
 11 10 13 1.40 -0.62
 7 11 13 7.30 0.56
 8 11 13 1.67 1.70
 9 11 13 1.15 0.30
 10 11 13 -1.49 0.68
 11 11 13 0.51 -0.37
 6 12 13 -0.03 1.16
 7 12 13 -1.89 0.47
 8 12 13 -1.80 0.62
 9 12 13 -0.53 -1.13
 10 12 13 -1.08 -1.24
 11 12 13 0.71 -0.79
 4 13 13 3.35 -1.59
 5 13 13 -1.88 -1.95
 6 13 13 0.39 -3.58
 7 13 13 -3.14 -0.18
 8 13 13 -1.43 0.19
 9 13 13 -0.92 -0.82
 10 13 13 0.95 -0.80
 0 14 13 0.70 1.38
 1 14 13 3.22 0.51
 2 14 13 2.18 3.88
 3 14 13 1.59 1.04
 4 14 13 -3.23 0.44
 5 14 13 -0.03 -1.36
 6 14 13 -0.49 1.54
 7 14 13 -0.59 1.22
 8 14 13 -2.08 -0.05
 9 14 13 1.08 -2.38
 10 14 13 -0.60 0.02
 11 0 14 0.55 -0.08
 11 1 14 -0.32 -0.82
 11 2 14 -3.06 -0.05
 11 3 14 2.64 -1.32
 11 4 14 -0.38 1.83
 11 5 14 0.41 1.09
 10 6 14 0.24 -4.05
 11 6 14 -0.92 -1.48
 10 7 14 -1.47 -2.06
 11 7 14 4.54 -1.20
 9 8 14 0.69 -1.48
 10 8 14 -3.13 -5.16
 11 8 14 0.10 -0.60
 9 9 14 1.66 -2.35
 10 9 14 0.00 -1.46
 11 9 14 1.28 -0.40
 8 10 14 1.54 -3.80
 9 10 14 0.97 -0.67
 10 10 14 1.65 -1.30
 11 10 14 -0.72 -0.60
 7 11 14 -0.89 3.68
 8 11 14 1.18 3.52
 9 11 14 0.35 -1.66
 10 11 14 0.68 0.98
 11 11 14 0.16 -0.35
 6 12 14 2.06 -1.28
 7 12 14 2.47 3.56
 8 12 14 -0.17 0.36
 9 12 14 -0.69 0.46
 10 12 14 0.87 -0.78
 11 12 14 -0.29 1.40
 4 13 14 2.32 3.64
 5 13 14 1.34 -2.24
 6 13 14 0.00 3.20
 7 13 14 2.09 0.69
 8 13 14 -0.92 0.75
 9 13 14 0.82 0.01
 10 13 14 0.65 1.39
 0 14 14 -7.53 1.33
 1 14 14 4.00 3.72
 2 14 14 0.17 -2.23
 3 14 14 4.61 -1.58
 4 14 14 1.93 -0.47
 5 14 14 2.27 -0.80
 6 14 14 2.35 1.72
 7 14 14 1.98 -0.49
 8 14 14 -0.14 0.54
 9 14 14 0.79 0.02
 10 14 14 0.76 0.63
 11 0 15 -0.09 2.13
 11 1 15 3.21 1.38
 11 2 15 0.51 -1.62
 11 3 15 3.99 0.36
 11 4 15 1.61 -0.31
 11 5 15 3.91 0.92
 10 6 15 0.24 4.07
 11 6 15 -0.68 -0.74
 10 7 15 -2.82 -0.42
 11 7 15 2.04 -0.11
 9 8 15 -3.32 -3.17
 10 8 15 0.54 2.67
 11 8 15 0.11 0.35
 9 9 15 0.27 1.61
 10 9 15 -1.64 0.33
 11 9 15 -2.47 0.33
 8 10 15 0.71 -2.34
 9 10 15 -0.44 -0.75
 10 10 15 -0.67 -0.23
 11 10 15 -1.08 -2.40
 7 11 15 1.43 0.61
 8 11 15 -1.34 0.71
 9 11 15 0.96 1.36
 10 11 15 -0.21 0.67
 11 11 15 0.14 -0.63
 5 12 15 -2.25 -5.58
 6 12 15 0.73 -0.65
 7 12 15 -1.42 -2.01
 8 12 15 -2.72 0.21
 9 12 15 -0.21 -4.30
 10 12 15 -1.87 1.04
 11 12 15 -0.02 -1.84
 3 13 15 -1.67 -4.06
 4 13 15 -0.23 -0.91
 5 13 15 -0.97 0.55
 6 13 15 0.75 -1.99
 7 13 15 0.29 -1.51
 8 13 15 -1.99 0.09
 9 13 15 -0.01 -0.60
 10 13 15 -0.24 -0.31
 0 14 15 0.12 0.26
 1 14 15 0.19 -3.22
 2 14 15 0.60 1.93
 3 14 15 2.03 4.18
 4 14 15 -1.46 -1.90
 5 14 15 -0.89 -0.92
 6 14 15 -0.30 -0.59
 7 14 15 -0.48 1.17
 8 14 15 -0.98 0.23
 9 14 15 0.84 -1.98
 11 0 16 3.70 -0.13
 11 1 16 -1.81 -0.28
 11 2 16 -0.88 -0.23
 11 3 16 -0.48 -0.79
 11 4 16 -0.92 -0.39
 10 5 16 -2.28 -3.99
 11 5 16 -0.04 0.29
 10 6 16 6.87 3.46
 11 6 16 0.53 -2.81
 10 7 16 -5.01 -1.61
 11 7 16 -1.04 -1.32
 9 8 16 1.13 5.53
 10 8 16 2.06 -0.97
 11 8 16 0.81 -1.79
 8 9 16 -0.19 2.49
 9 9 16 0.86 -0.60
 10 9 16 -0.81 -1.04
 11 9 16 1.76 0.13
 8 10 16 4.30 2.10
 9 10 16 -0.56 -0.41
 10 10 16 -1.75 -0.95
 11 10 16 1.05 -1.48
 6 11 16 3.08 1.25
 7 11 16 2.61 4.29
 8 11 16 -3.53 4.20
 9 11 16 -0.16 2.60
 10 11 16 0.22 0.72
 11 11 16 1.41 -0.58
 5 12 16 2.38 -3.38
 6 12 16 5.03 -1.48
 7 12 16 0.27 1.81
 8 12 16 0.97 2.41
 9 12 16 -0.50 -0.79
 10 12 16 0.17 -0.05
 11 12 16 0.36 0.13
 3 13 16 -0.55 -2.30
 4 13 16 3.44 -0.21
 5 13 16 1.68 -0.43
 6 13 16 0.86 0.92
 7 13 16 0.94 2.83
 8 13 16 1.27 0.38
 9 13 16 -0.05 -0.15
 10 13 16 -0.74 -0.37
 0 14 16 1.64 0.57
 1 14 16 -1.57 4.03
 2 14 16 1.63 -2.00
 3 14 16 -0.28 -2.93
 4 14 16 0.66 -0.76
 5 14 16 2.16 -1.33
 6 14 16 1.76 1.46
 7 14 16 1.89 -0.92
 8 14 16 -1.22 1.08
 9 14 16 -0.92 0.27
 11 0 17 -0.01 -4.89
 11 1 17 -1.85 -1.01
 11 2 17 -0.93 -1.38
 11 3 17 0.37 -2.49
 11 4 17 0.19 -0.90
 10 5 17 -3.11 -0.44
 11 5 17 -2.09 -1.03
 10 6 17 -3.05 4.63
 11 6 17 0.00 -1.72
 9 7 17 -1.79 -0.98
 10 7 17 -4.52 0.36
 11 7 17 -0.62 -0.65
 9 8 17 1.55 -4.55
 10 8 17 -2.24 -1.24
 11 8 17 2.55 -1.42
 8 9 17 -4.24 -2.53
 9 9 17 0.68 1.88
 10 9 17 0.09 0.97
 11 9 17 -1.62 -0.16
 7 10 17 0.84 -1.53
 8 10 17 0.32 -1.09
 9 10 17 4.07 -0.62
 10 10 17 -0.03 -0.18
 11 10 17 0.39 -0.67
 6 11 17 -4.27 -9.19
 7 11 17 -2.04 0.01
 8 11 17 -0.14 -3.23
 9 11 17 -0.08 -1.81
 10 11 17 -0.24 -2.09
 11 11 17 -1.76 0.70
 5 12 17 -3.00 -4.02
 6 12 17 2.23 -0.45
 7 12 17 1.51 -2.92
 8 12 17 -1.56 -0.06
 9 12 17 0.60 -0.36
 10 12 17 0.29 0.89
 11 12 17 0.33 -0.53
 1 13 17 2.33 0.49
 2 13 17 2.28 1.00
 3 13 17 0.47 -2.92
 4 13 17 0.95 -6.04
 5 13 17 -3.35 -4.35
 6 13 17 1.13 -2.64
 7 13 17 -0.07 -2.78
 8 13 17 2.08 -1.50
 9 13 17 -0.13 -0.52
 10 13 17 -0.21 -1.04
 0 14 17 -5.01 -0.33
 1 14 17 0.17 -0.88
 2 14 17 -0.59 -1.47
 3 14 17 -0.95 2.37
 4 14 17 -2.25 0.22
 5 14 17 -1.29 -0.67
 6 14 17 1.03 -1.38
 7 14 17 -1.25 -0.88
 8 14 17 -1.02 0.85
 9 14 17 0.16 -1.49
 11 0 18 -2.80 0.03
 11 1 18 2.65 -0.51
 11 2 18 0.42 1.43
 11 3 18 1.58 -0.15
 10 4 18 5.46 3.86
 11 4 18 1.81 -0.09
 10 5 18 0.39 -2.63
 11 5 18 -0.57 0.15
 10 6 18 2.82 0.77
 11 6 18 0.98 -0.54
 9 7 18 1.90 5.56
 10 7 18 2.61 0.73
 11 7 18 1.78 -0.29
 9 8 18 0.21 -0.38
 10 8 18 1.57 -1.43
 11 8 18 -0.39 0.21
 8 9 18 -0.61 1.42
 9 9 18 1.75 0.79
 10 9 18 0.67 -0.93
 11 9 18 -0.64 -0.40
 7 10 18 -0.19 1.59
 8 10 18 -1.29 3.08
 9 10 18 -1.55 3.59
 10 10 18 -2.84 0.24
 11 10 18 -0.62 -0.23
 6 11 18 -1.53 2.26
 7 11 18 2.08 4.52
 8 11 18 2.71 0.99
 9 11 18 -3.13 0.17
 10 11 18 -0.19 1.22
 11 11 18 -0.03 -1.01
 4 12 18 2.52 -0.53
 5 12 18 2.37 -0.18
 6 12 18 0.86 -1.37
 7 12 18 -0.19 1.13
 8 12 18 -1.85 1.61
 9 12 18 -1.50 -0.77
 10 12 18 -0.47 0.53
 0 13 18 -0.68 1.67
 1 13 18 1.00 2.25
 2 13 18 2.90 0.94
 3 13 18 -2.64 -2.65
 4 13 18 0.05 1.92
 5 13 18 -1.38 2.70
 6 13 18 0.17 2.99
 7 13 18 -2.75 2.42
 8 13 18 -1.92 2.35
 9 13 18 -0.88 0.75
 10 13 18 -0.69 1.42
 0 14 18 4.22 0.43
 1 14 18 4.44 -0.86
 2 14 18 0.84 0.02
 3 14 18 3.67 -2.75
 4 14 18 0.44 -0.39
 5 14 18 1.58 0.38
 6 14 18 0.30 1.39
 7 14 18 -0.10 1.19
 8 14 18 -0.18 0.22
 9 14 18 -1.11 0.16
 11 0 19 0.07 0.23
 11 1 19 -1.40 -1.40
 11 2 19 -0.24 0.02
 10 3 19 3.85 -0.61
 11 3 19 -1.33 2.20
 10 4 19 -1.74 3.90
 11 4 19 -2.33 1.94
 10 5 19 0.05 3.88
 11 5 19 0.85 1.62
 9 6 19 -3.09 2.00
 10 6 19 -1.99 2.54
 11 6 19 -1.74 -1.53
 9 7 19 2.60 -1.87
 10 7 19 -0.69 -2.54
 11 7 19 0.19 -1.22
 8 8 19 -0.83 -0.78
 9 8 19 -2.04 -0.13
 10 8 19 -2.25 1.47
 11 8 19 -0.54 -1.84
 8 9 19 2.77 0.77
 9 9 19 2.58 -3.56
 10 9 19 1.39 0.53
 11 9 19 -0.37 -0.89
 7 10 19 1.17 -5.80
 8 10 19 -1.33 -3.84
 9 10 19 0.05 -2.11
 10 10 19 0.21 0.07
 11 10 19 0.58 -1.44
 5 11 19 2.10 -2.21
 6 11 19 -0.15 -1.41
 7 11 19 2.00 -2.97
 8 11 19 -1.89 0.79
 9 11 19 2.36 -1.61
 10 11 19 1.85 -1.97
 11 11 19 0.34 -0.27
 4 12 19 -4.20 -5.01
 5 12 19 -3.40 -1.84
 6 12 19 -0.24 -3.94
 7 12 19 0.78 -0.16
 8 12 19 0.06 -0.01
 9 12 19 0.99 -1.29
 10 12 19 0.16 2.03
 0 13 19 -0.35 5.14
 1 13 19 4.76 -3.03
 2 13 19 -4.75 -0.74
 3 13 19 -1.46 0.11
 4 13 19 0.80 0.35
 5 13 19 1.41 -2.06
 6 13 19 1.42 -2.13
 7 13 19 0.26 -0.93
 8 13 19 1.16 -1.15
 9 13 19 4.07 -0.03
 0 14 19 -4.26 -0.37
 1 14 19 -4.19 2.73
 2 14 19 -0.14 -2.46
 3 14 19 -0.25 -0.52
 4 14 19 -0.80 -4.16
 5 14 19 -3.03 -0.99
 6 14 19 0.96 -0.54
 7 14 19 0.96 -0.84
 8 14 19 -1.11 -1.60
 9 14 19 0.79 0.05
 10 0 20 1.60 -0.01
 11 0 20 -0.61 -0.09
 10 1 20 -1.38 -4.71
 11 1 20 -0.80 1.61
 10 2 20 -1.73 -0.78
 11 2 20 0.20 0.14
 10 3 20 3.20 -1.36
 11 3 20 2.17 -0.55
 10 4 20 0.79 1.79
 11 4 20 -0.02 -0.16
 10 5 20 1.28 -0.15
 11 5 20 0.49 -3.45
 9 6 20 -1.12 -1.23
 10 6 20 1.25 0.41
 11 6 20 1.78 -0.46
 9 7 20 -2.53 1.52
 10 7 20 0.00 0.26
 11 7 20 0.18 -0.16
 8 8 20 -1.87 4.05
 9 8 20 -1.94 0.27
 10 8 20 0.90 -0.22
 11 8 20 0.33 1.23
 7 9 20 -0.13 3.52
 8 9 20 -4.17 2.61
 9 9 20 -3.25 2.70
 10 9 20 0.34 0.93
 11 9 20 0.63 -0.94
 6 10 20 1.00 0.74
 7 10 20 -3.13 2.60
 8 10 20 -1.81 1.82
 9 10 20 -1.65 2.12
 10 10 20 -4.95 0.07
 11 10 20 -1.27 1.66
 5 11 20 0.71 2.08
 6 11 20 -2.04 4.41
 7 11 20 -1.13 2.25
 8 11 20 1.23 -0.65
 9 11 20 -0.04 0.88
 10 11 20 -0.24 -0.01
 11 11 20 1.09 -0.45
 3 12 20 -0.79 2.00
 4 12 20 0.45 -0.23
 5 12 20 0.86 0.93
 6 12 20 0.03 -1.37
 7 12 20 -3.37 0.53
 8 12 20 -1.63 -1.15
 9 12 20 -1.20 -0.84
 10 12 20 -0.51 0.59
 0 13 20 -0.97 -4.84
 1 13 20 2.20 2.47
 2 13 20 5.99 1.52
 3 13 20 0.43 -0.22
 4 13 20 -1.94 -2.60
 5 13 20 -1.67 1.65
 6 13 20 -0.81 1.45
 7 13 20 -0.31 1.41
 8 13 20 -1.61 -0.28
 9 13 20 -0.35 0.59
 0 14 20 1.25 -0.21
 1 14 20 4.20 -2.72
 2 14 20 1.53 -0.36
 3 14 20 -0.47 0.66
 4 14 20 1.02 0.54
 5 14 20 -0.44 0.44
 6 14 20 0.99 0.15
 7 14 20 -1.31 -1.02
 8 14 20 -0.28 1.53
 10 0 21 0.06 -1.26
 11 0 21 0.33 1.97
 10 1 21 -1.71 3.85
 11 1 21 -2.09 -0.70
 10 2 21 -1.16 -2.83
 11 2 21 -0.16 -1.49
 10 3 21 -1.05 1.65
 11 3 21 -0.07 -0.86
 10 4 21 -1.57 1.17
 11 4 21 1.35 -1.97
 9 5 21 1.78 -3.22
 10 5 21 -0.83 -3.74
 11 5 21 -0.89 -0.20
 9 6 21 0.53 -2.03
 10 6 21 -1.30 3.69
 11 6 21 2.35 -3.17
 8 7 21 -1.61 -3.73
 9 7 21 -2.33 0.68
 10 7 21 0.58 -1.28
 11 7 21 0.09 0.34
 8 8 21 6.36 0.53
 9 8 21 3.41 0.55
 10 8 21 0.72 0.34
 11 8 21 -1.32 -1.32
 7 9 21 1.96 -2.13
 8 9 21 -0.25 2.47
 9 9 21 1.66 -1.26
 10 9 21 1.87 1.14
 11 9 21 -0.18 0.26
 6 10 21 9.01 -0.77
 7 10 21 0.54 -2.76
 8 10 21 1.53 -2.34
 9 10 21 0.16 -0.93
 10 10 21 1.47 -0.72
 11 10 21 0.85 -1.33
 4 11 21 -2.46 -3.53
 5 11 21 1.16 -5.22
 6 11 21 0.12 -0.62
 7 11 21 0.84 1.93
 8 11 21 0.83 0.58
 9 11 21 0.52 0.19
 10 11 21 1.48 -3.14
 11 11 21 -0.37 0.68
 1 12 21 -0.81 -0.12
 2 12 21 -0.31 -1.22
 3 12 21 2.92 -4.90
 4 12 21 2.29 -4.41
 5 12 21 -0.13 -0.78
 6 12 21 3.42 0.61
 7 12 21 2.28 -3.21
 8 12 21 0.63 1.29
 9 12 21 1.21 0.01
 10 12 21 1.48 0.61
 0 13 21 -0.21 3.42
 1 13 21 4.22 2.37
 2 13 21 -2.05 -1.53
 3 13 21 -1.71 -2.87
 4 13 21 0.17 -2.08
 5 13 21 0.20 1.61
 6 13 21 1.87 0.34
 7 13 21 0.00 -0.04
 8 13 21 0.48 1.25
 9 13 21 1.18 -0.44
 0 14 21 1.02 -0.36
 1 14 21 -3.33 -1.89
 2 14 21 -2.51 -0.54
 3 14 21 -2.05 -2.79
 4 14 21 1.47 0.07
 5 14 21 0.14 -1.39
 6 14 21 0.53 0.67
 7 14 21 1.69 0.35
 8 14 21 -0.09 0.32
 10 0 22 -3.84 0.22
 11 0 22 -1.10 -0.28
 10 1 22 -1.97 0.47
 11 1 22 1.27 -0.80
 10 2 22 -3.20 -2.97
 11 2 22 -1.46 -0.12
 10 3 22 -2.23 -0.38
 11 3 22 2.56 0.75
 9 4 22 3.03 -0.16
 10 4 22 -0.78 1.60
 11 4 22 -0.91 0.44
 9 5 22 -1.91 1.60
 10 5 22 -1.16 2.59
 11 5 22 1.11 -1.54
 9 6 22 1.62 5.96
 10 6 22 -0.04 0.91
 11 6 22 -0.74 1.00
 8 7 22 -0.52 1.55
 9 7 22 -2.42 2.42
 10 7 22 -0.49 2.67
 11 7 22 1.94 -0.21
 7 8 22 -1.18 -2.07
 8 8 22 -2.18 3.92
 9 8 22 -2.39 0.05
 10 8 22 0.42 -1.69
 11 8 22 -0.87 1.98
 7 9 22 0.03 3.14
 8 9 22 -1.20 2.02
 9 9 22 -3.00 -0.44
 10 9 22 -0.87 0.98
 11 9 22 0.01 -0.80
 5 10 22 0.05 2.62
 6 10 22 1.85 -0.41
 7 10 22 -3.32 -2.00
 8 10 22 -4.20 -0.70
 9 10 22 -1.90 0.37
 10 10 22 -2.49 -0.89
 11 10 22 -0.21 -0.40
 4 11 22 -3.39 0.21
 5 11 22 -1.96 2.71
 6 11 22 -3.11 2.16
 7 11 22 -4.14 1.88
 8 11 22 -2.19 -2.28
 9 11 22 -0.62 -2.02
 10 11 22 -1.46 -0.57
 0 12 22 2.63 -0.31
 1 12 22 3.16 -4.53
 2 12 22 2.82 -2.91
 3 12 22 0.67 0.04
 4 12 22 1.62 2.31
 5 12 22 -0.27 2.37
 6 12 22 -1.32 0.14
 7 12 22 -3.19 -1.26
 8 12 22 -1.90 -1.21
 9 12 22 -0.34 -2.60
 10 12 22 -0.64 -0.05
 0 13 22 -0.25 -6.24
 1 13 22 1.59 -1.41
 2 13 22 3.55 2.64
 3 13 22 0.66 1.59
 4 13 22 -1.50 0.66
 5 13 22 -4.37 1.92
 6 13 22 -1.36 0.30
 7 13 22 -2.64 0.13
 8 13 22 -0.62 -0.93
 9 13 22 -0.86 -0.37
 0 14 22 -0.90 -0.72
 1 14 22 1.03 -2.48
 2 14 22 1.41 -0.99
 3 14 22 -0.17 2.03
 4 14 22 -1.85 2.13
 5 14 22 -2.22 1.62
 6 14 22 -1.72 0.94
 7 14 22 -1.42 -1.24
 8 14 22 -1.45 -0.66
 10 0 23 -0.15 -2.23
 11 0 23 0.16 0.08
 10 1 23 -6.56 0.31
 11 1 23 -0.29 1.90
 10 2 23 -0.06 1.10
 11 2 23 0.41 -0.41
 9 3 23 -2.02 -1.92
 10 3 23 -1.21 0.20
 11 3 23 -1.44 0.02
 9 4 23 -4.27 -2.35
 10 4 23 -3.56 0.81
 11 4 23 -1.78 -1.75
 9 5 23 -1.19 -1.46
 10 5 23 1.09 0.59
 11 5 23 0.57 -1.30
 8 6 23 -1.41 -0.37
 9 6 23 0.33 -0.03
 10 6 23 -0.09 -0.27
 11 6 23 0.52 -0.31
 8 7 23 1.71 -1.46
 9 7 23 0.28 -4.12
 10 7 23 3.01 -2.35
 11 7 23 2.73 0.32
 7 8 23 -1.97 -3.71
 8 8 23 2.22 -2.68
 9 8 23 -0.21 0.24
 10 8 23 2.69 2.66
 11 8 23 0.01 0.52
 6 9 23 2.09 -0.74
 7 9 23 1.50 2.30
 8 9 23 2.27 0.88
 9 9 23 5.05 1.54
 10 9 23 1.60 -0.41
 11 9 23 -0.12 0.46
 5 10 23 2.44 -4.10
 6 10 23 3.18 1.03
 7 10 23 1.06 -0.53
 8 10 23 0.49 0.86
 9 10 23 0.67 -0.03
 10 10 23 -1.31 1.27
 11 10 23 0.10 0.16
 3 11 23 3.78 -3.76
 4 11 23 0.27 -4.21
 5 11 23 0.58 -0.47
 6 11 23 4.83 1.22
 7 11 23 1.89 0.17
 8 11 23 1.14 1.56
 9 11 23 1.69 1.39
 10 11 23 0.78 -0.57
 0 12 23 -9.28 -0.17
 1 12 23 -0.22 -3.86
 2 12 23 -0.67 -2.74
 3 12 23 1.76 -4.49
 4 12 23 1.21 -4.53
 5 12 23 1.66 0.20
 6 12 23 1.54 0.60
 7 12 23 2.25 0.31
 8 12 23 0.24 -0.56
 9 12 23 1.25 2.57
 0 13 23 -0.23 -0.07
 1 13 23 1.96 1.63
 2 13 23 -3.46 -1.21
 3 13 23 -2.37 -0.25
 4 13 23 -0.11 -0.89
 5 13 23 1.41 1.54
 6 13 23 2.91 2.35
 7 13 23 0.25 1.22
 8 13 23 0.63 1.29
 9 13 23 1.48 1.11
 0 14 23 -1.47 -0.15
 1 14 23 -0.33 -0.36
 2 14 23 -2.84 -0.98
 3 14 23 -0.22 -2.38
 4 14 23 0.25 -2.21
 5 14 23 1.17 -0.20
 6 14 23 0.65 0.77
 7 14 23 0.64 1.40
 8 14 23 0.25 0.01
 9 0 24 0.32 -0.15
 10 0 24 3.29 -0.17
 11 0 24 -0.08 -0.30
 9 1 24 2.56 2.49
 10 1 24 0.44 0.31
 11 1 24 -0.30 1.68
 9 2 24 -0.05 1.06
 10 2 24 -1.14 2.87
 11 2 24 -2.48 -0.27
 9 3 24 1.27 -0.88
 10 3 24 -0.56 0.43
 11 3 24 -0.78 0.29
 9 4 24 1.02 2.02
 10 4 24 -0.55 2.84
 11 4 24 -0.60 1.73
 8 5 24 -0.94 0.15
 9 5 24 1.08 -3.62
 10 5 24 -1.30 -0.80
 11 5 24 1.33 -0.71
 8 6 24 -3.98 4.36
 9 6 24 -1.89 1.23
 10 6 24 0.23 2.76
 11 6 24 -0.05 0.47
 7 7 24 -0.25 5.13
 8 7 24 -2.32 0.77
 9 7 24 0.00 1.43
 10 7 24 -1.20 0.30
 11 7 24 0.18 0.39
 7 8 24 -4.01 -0.72
 8 8 24 -2.21 0.37
 9 8 24 -0.60 -0.15
 10 8 24 -2.81 0.31
 11 8 24 -0.20 0.95
 6 9 24 -1.85 -0.17
 7 9 24 -2.62 -2.19
 8 9 24 -1.70 0.59
 9 9 24 -1.36 0.46
 10 9 24 -2.13 -0.38
 11 9 24 -1.48 -1.36
 4 10 24 -1.62 1.58
 5 10 24 -3.44 5.00
 6 10 24 -0.09 -0.16
 7 10 24 -3.40 -2.78
 8 10 24 -2.41 -1.81
 9 10 24 -3.08 -0.33
 10 10 24 -3.36 -0.83
 11 10 24 -0.05 0.53
 2 11 24 8.29 -3.51
 3 11 24 -2.78 2.40
 4 11 24 -3.69 -1.93
 5 11 24 -1.52 -0.02
 6 11 24 0.38 -1.12
 7 11 24 -1.10 -1.64
 8 11 24 -2.30 -2.63
 9 11 24 -0.89 -0.94
 10 11 24 -0.49 -1.50
 0 12 24 5.30 -0.23
 1 12 24 -1.30 2.64
 2 12 24 2.56 0.86
 3 12 24 -1.08 4.03
 4 12 24 -1.46 -0.84
 5 12 24 -0.34 1.14
 6 12 24 -0.40 -0.20
 7 12 24 -1.79 -0.64
 8 12 24 -0.60 -1.18
 9 12 24 0.17 -0.74
 0 13 24 -0.27 -4.47
 1 13 24 4.21 -0.82
 2 13 24 1.37 -1.86
 3 13 24 -1.92 1.68
 4 13 24 -0.97 -2.03
 5 13 24 -0.19 0.83
 6 13 24 0.45 -0.62
 7 13 24 -0.52 -0.42
 8 13 24 -0.32 -1.59
 0 14 24 2.89 -0.96
 1 14 24 -1.63 -0.79
 2 14 24 0.27 0.83
 3 14 24 -0.64 0.51
 4 14 24 -0.61 1.43
 5 14 24 -2.08 1.44
 6 14 24 -0.82 -1.01
 7 14 24 -1.79 -0.26
 9 0 25 -0.12 5.00
 10 0 25 0.34 4.05
 11 0 25 -0.08 -0.40
 9 1 25 2.62 -1.18
 10 1 25 -2.23 2.58
 11 1 25 -3.90 -0.48
 9 2 25 0.29 1.92
 10 2 25 -3.34 1.58
 11 2 25 -0.84 0.36
 9 3 25 -2.43 -3.56
 10 3 25 -1.62 2.47
 11 3 25 0.27 -1.01
 9 4 25 0.16 -1.07
 10 4 25 -0.44 -0.56
 11 4 25 0.12 -1.67
 8 5 25 1.84 -4.10
 9 5 25 1.44 -0.74
 10 5 25 -0.73 1.30
 11 5 25 1.08 1.38
 8 6 25 3.32 -2.88
 9 6 25 2.35 -0.51
 10 6 25 1.78 -1.05
 11 6 25 2.04 -1.81
 7 7 25 -1.48 0.24
 8 7 25 0.73 -1.27
 9 7 25 1.71 0.10
 10 7 25 1.25 0.38
 11 7 25 2.64 -0.42
 6 8 25 2.98 2.03
 7 8 25 -0.28 -3.28
 8 8 25 2.55 0.68
 9 8 25 1.68 0.22
 10 8 25 0.91 -0.43
 11 8 25 0.42 0.73
 5 9 25 0.83 -2.75
 6 9 25 2.60 2.13
 7 9 25 2.92 2.79
 8 9 25 1.90 1.36
 9 9 25 1.44 1.81
 10 9 25 2.61 2.43
 11 9 25 1.10 0.56
 4 10 25 1.98 -3.56
 5 10 25 5.38 -2.72
 6 10 25 4.22 -1.21
 7 10 25 0.47 -0.98
 8 10 25 0.17 2.36
 9 10 25 1.72 2.71
 10 10 25 2.01 0.11
 0 11 25 0.19 -0.67
 1 11 25 -4.82 -4.41
 2 11 25 -0.07 -6.09
 3 11 25 -0.70 -1.39
 4 11 25 -1.56 -2.54
 5 11 25 0.59 -1.76
 6 11 25 3.86 3.91
 7 11 25 1.27 1.68
 8 11 25 1.57 2.56
 9 11 25 1.77 0.41
 10 11 25 0.38 0.57
 0 12 25 -2.79 0.79
 1 12 25 -2.17 -6.65
 2 12 25 -0.12 -2.92
 3 12 25 1.65 -2.50
 4 12 25 2.40 -2.02
 5 12 25 1.44 -0.02
 6 12 25 1.58 3.56
 7 12 25 -0.26 0.77
 8 12 25 -0.58 -0.52
 9 12 25 -0.39 0.36
 0 13 25 -0.07 -1.19
 1 13 25 -0.61 0.91
 2 13 25 -0.35 1.26
 3 13 25 0.95 -1.13
 4 13 25 1.14 -0.36
 5 13 25 -0.22 2.85
 6 13 25 -0.13 2.57
 7 13 25 -0.59 2.22
 8 13 25 -0.84 0.67
 0 14 25 -1.07 -0.19
 1 14 25 1.84 -3.61
 2 14 25 -1.18 -1.98
 3 14 25 -0.09 -1.89
 4 14 25 1.61 1.22
 5 14 25 1.11 1.21
 6 14 25 0.62 0.66
 7 14 25 0.73 0.37
 9 0 26 6.43 -0.07
 10 0 26 0.80 0.06
 11 0 26 0.96 0.02
 9 1 26 -1.68 1.48
 10 1 26 0.97 2.62
 11 1 26 1.91 0.61
 9 2 26 2.31 -2.00
 10 2 26 0.38 -1.07
 11 2 26 -1.09 2.17
 8 3 26 -5.01 -2.89
 9 3 26 -0.35 2.13
 10 3 26 -1.19 0.70
 11 3 26 -0.04 1.22
 8 4 26 -1.17 -2.39
 9 4 26 -0.44 0.65
 10 4 26 -1.25 1.51
 11 4 26 0.36 2.77
 8 5 26 -0.29 1.64
 9 5 26 -1.74 2.31
 10 5 26 -2.48 -1.71
 11 5 26 -0.82 -1.03
 7 6 26 -0.51 0.41
 8 6 26 -2.22 3.45
 9 6 26 -2.76 0.49
 10 6 26 -2.30 -0.12
 11 6 26 -0.09 1.03
 7 7 26 -0.51 0.01
 8 7 26 -1.72 1.55
 9 7 26 -3.69 -0.17
 10 7 26 -0.43 -0.29
 11 7 26 -0.38 -0.82
 6 8 26 -0.41 -1.14
 7 8 26 0.90 -1.54
 8 8 26 -2.64 2.15
 9 8 26 0.81 -1.85
 10 8 26 0.09 -1.74
 11 8 26 -0.62 1.03
 5 9 26 -2.73 0.88
 6 9 26 -1.66 -3.76
 7 9 26 2.38 -2.01
 8 9 26 -2.98 -1.70
 9 9 26 1.02 -2.67
 10 9 26 -0.20 -0.02
 11 9 26 -0.48 -0.99
 3 10 26 -1.35 3.87
 4 10 26 4.17 -2.60
 5 10 26 -4.83 -1.65
 6 10 26 -0.56 -1.73
 7 10 26 -1.60 -2.75
 8 10 26 -0.48 -2.76
 9 10 26 -0.48 -2.46
 10 10 26 -0.95 -0.62
 0 11 26 -0.92 -3.80
 1 11 26 2.25 1.37
 2 11 26 5.39 -1.11
 3 11 26 -4.18 -1.48
 4 11 26 -2.03 -1.08
 5 11 26 -3.86 0.69
 6 11 26 0.87 -1.17
 7 11 26 -0.14 -2.78
 8 11 26 -2.20 -2.31
 9 11 26 -0.83 -1.38
 0 12 26 0.87 -0.66
 1 12 26 1.57 0.43
 2 12 26 -1.13 0.26
 3 12 26 -1.24 -0.12
 4 12 26 -3.62 0.28
 5 12 26 -2.55 -0.19
 6 12 26 -1.09 -1.75
 7 12 26 -0.66 -2.75
 8 12 26 -0.31 -1.94
 9 12 26 0.17 -0.82
 0 13 26 0.27 -2.00
 1 13 26 3.68 -0.43
 2 13 26 1.49 0.05
 3 13 26 -2.37 0.92
 4 13 26 -2.18 -2.13
 5 13 26 -2.20 -1.13
 6 13 26 0.26 -2.18
 7 13 26 0.42 -1.21
 8 13 26 0.61 -1.29
 0 14 26 0.15 -0.31
 1 14 26 -0.98 1.45
 2 14 26 -3.11 2.37
 3 14 26 -0.80 2.26
 4 14 26 -2.75 1.31
 5 14 26 -0.66 0.40
 6 14 26 -0.35 -1.29
 8 0 27 0.18 5.68
 9 0 27 -0.13 0.17
 10 0 27 0.11 -2.86
 11 0 27 0.13 -0.57
 8 1 27 -6.63 -1.01
 9 1 27 -3.32 -0.60
 10 1 27 0.15 0.18
 11 1 27 0.43 2.02
 8 2 27 0.28 -2.89
 9 2 27 -2.80 1.82
 10 2 27 1.20 -0.62
 11 2 27 -1.33 1.20
 8 3 27 1.07 -2.10
 9 3 27 -0.17 -4.79
 10 3 27 -1.06 -0.02
 11 3 27 -0.41 -0.88
 8 4 27 -0.63 -4.48
 9 4 27 -0.33 -0.28
 10 4 27 0.04 -0.27
 11 4 27 2.01 -1.12
 7 5 27 0.09 0.23
 8 5 27 1.69 -2.26
 9 5 27 -1.34 -1.62
 10 5 27 -0.92 0.74
 11 5 27 1.35 0.77
 7 6 27 5.23 -0.01
 8 6 27 0.08 2.36
 9 6 27 1.21 0.35
 10 6 27 1.74 -1.31
 11 6 27 0.27 -0.95
 6 7 27 4.80 -1.59
 7 7 27 2.00 1.80
 8 7 27 0.18 -0.34
 9 7 27 1.28 -2.12
 10 7 27 1.11 1.30
 11 7 27 1.44 0.72
 5 8 27 2.33 -2.69
 6 8 27 6.00 2.11
 7 8 27 2.97 0.03
 8 8 27 0.42 0.56
 9 8 27 0.61 0.25
 10 8 27 1.26 1.17
 11 8 27 -1.34 -0.16
 4 9 27 6.40 -0.01
 5 9 27 2.30 1.77
 6 9 27 2.35 2.23
 7 9 27 -0.88 3.33
 8 9 27 -1.41 0.68
 9 9 27 2.51 1.12
 10 9 27 1.30 1.50
 0 10 27 -2.45 1.78
 1 10 27 2.46 2.57
 2 10 27 -0.95 -3.25
 3 10 27 3.73 -2.50
 4 10 27 1.07 -0.62
 5 10 27 0.25 2.12
 6 10 27 2.65 3.14
 7 10 27 -2.36 0.72
 8 10 27 -0.61 0.84
 9 10 27 -0.90 1.83
 10 10 27 0.59 0.66
 0 11 27 0.51 -4.13
 1 11 27 -2.55 -2.83
 2 11 27 -1.24 -5.36
 3 11 27 1.80 -0.53
 4 11 27 1.03 0.02
 5 11 27 -1.62 1.08
 6 11 27 2.40 2.57
 7 11 27 0.73 2.78
 8 11 27 0.01 0.61
 9 11 27 0.65 1.41
 0 12 27 1.49 0.04
 1 12 27 2.98 -1.26
 2 12 27 -0.30 -4.93
 3 12 27 2.35 0.23
 4 12 27 -0.04 0.79
 5 12 27 2.11 0.92
 6 12 27 1.11 2.61
 7 12 27 -1.16 1.61
 8 12 27 -0.59 0.66
 0 13 27 0.31 -3.13
 1 13 27 -1.22 -0.57
 2 13 27 -1.83 -0.47
 3 13 27 0.08 1.31
 4 13 27 1.29 0.24
 5 13 27 1.25 1.82
 6 13 27 1.58 1.91
 7 13 27 -0.45 0.79
 0 14 27 -1.12 -0.07
 1 14 27 0.78 -0.75
 2 14 27 0.42 -1.04
 3 14 27 1.36 0.07
 4 14 27 2.38 -0.15
 5 14 27 1.01 1.08
 6 14 27 0.18 1.82
 8 0 28 -0.62 -0.12
 9 0 28 -0.32 0.05
 10 0 28 4.57 -0.23
 11 0 28 0.80 0.09
 8 1 28 -0.83 4.08
 9 1 28 -0.34 -1.41
 10 1 28 -1.20 1.01
 11 1 28 1.49 1.11
 8 2 28 -0.94 0.35
 9 2 28 -2.44 0.72
 10 2 28 0.63 -0.39
 11 2 28 0.09 2.39
 8 3 28 -1.68 0.70
 9 3 28 -2.76 0.78
 10 3 28 -1.01 -0.21
 11 3 28 -0.35 -0.32
 7 4 28 1.30 6.47
 8 4 28 -2.13 2.44
 9 4 28 -0.18 1.79
 10 4 28 -1.09 1.16
 11 4 28 0.99 2.04
 7 5 28 -0.39 -1.41
 8 5 28 -1.89 0.59
 9 5 28 -1.64 1.81
 10 5 28 -1.15 0.24
 11 5 28 -0.01 0.94
 6 6 28 -0.99 1.97
 7 6 28 -2.50 3.44
 8 6 28 -1.80 0.03
 9 6 28 -1.84 0.67
 10 6 28 -1.80 -0.82
 11 6 28 -1.39 1.05
 6 7 28 0.09 -3.75
 7 7 28 -2.35 -2.75
 8 7 28 -1.49 -3.02
 9 7 28 -0.67 -0.25
 10 7 28 -0.05 -1.63
 11 7 28 -0.58 -1.58
 5 8 28 -2.99 0.40
 6 8 28 -0.85 1.86
 7 8 28 -3.13 -2.86
 8 8 28 0.13 -0.98
 9 8 28 0.21 -0.81
 10 8 28 -1.03 -1.00
 11 8 28 -1.07 -0.06
 3 9 28 1.51 4.84
 4 9 28 -4.45 2.31
 5 9 28 -3.32 -2.27
 6 9 28 -0.03 0.21
 7 9 28 -0.47 -2.17
 8 9 28 2.26 -2.02
 9 9 28 -0.31 -0.77
 10 9 28 0.10 -2.10
 0 10 28 2.47 -0.03
 1 10 28 -2.93 10.09
 2 10 28 -4.74 -0.13
 3 10 28 -6.39 4.77
 4 10 28 -4.38 -0.51
 5 10 28 -0.18 -2.13
 6 10 28 0.03 -2.93
 7 10 28 0.51 -4.60
 8 10 28 0.22 -1.06
 9 10 28 -0.46 -1.43
 0 11 28 -0.38 -1.22
 1 11 28 2.23 1.23
 2 11 28 -0.26 -1.63
 3 11 28 -3.48 3.18
 4 11 28 -2.69 -3.84
 5 11 28 -1.16 -2.01
 6 11 28 1.30 -0.77
 7 11 28 3.36 -1.13
 8 11 28 0.13 -1.28
 9 11 28 -0.68 -0.47
 0 12 28 1.33 -0.10
 1 12 28 -2.00 3.15
 2 12 28 1.06 1.42
 3 12 28 -1.08 1.76
 4 12 28 -1.30 -4.19
 5 12 28 -1.73 -0.67
 6 12 28 0.43 -1.38
 7 12 28 0.35 -1.49
 8 12 28 1.39 -0.74
 0 13 28 0.16 1.55
 1 13 28 0.32 2.09
 2 13 28 0.81 0.29
 3 13 28 -4.09 1.19
 4 13 28 -0.24 -1.51
 5 13 28 0.25 -0.17
 6 13 28 0.89 -0.82
 7 13 28 0.34 -0.97
 0 14 28 2.15 -0.02
 1 14 28 -1.08 1.56
 2 14 28 -1.00 1.96
 3 14 28 -1.74 1.17
 4 14 28 -1.61 0.31
 5 14 28 -0.28 1.71
 6 14 28 -0.06 -0.87
 8 0 29 0.04 5.79
 9 0 29 -0.01 3.49
 10 0 29 -0.22 1.15
 11 0 29 -0.17 -1.83
 8 1 29 1.31 -2.88
 9 1 29 -3.07 0.10
 10 1 29 0.10 0.24
 11 1 29 -0.16 -0.73
 8 2 29 1.68 -2.61
 9 2 29 0.62 0.88
 10 2 29 -0.91 -0.21
 11 2 29 0.45 0.74
 7 3 29 1.93 -2.59
 8 3 29 -0.48 -0.26
 9 3 29 1.40 -2.58
 10 3 29 1.92 0.63
 11 3 29 1.51 -1.20
 7 4 29 3.35 -0.54
 8 4 29 3.43 -3.29
 9 4 29 -1.17 0.40
 10 4 29 1.02 0.59
 11 4 29 0.95 -0.04
 6 5 29 2.29 0.25
 7 5 29 1.49 -1.43
 8 5 29 1.70 0.39
 9 5 29 1.38 -0.47
 10 5 29 -1.35 1.99
 11 5 29 1.48 -0.02
 6 6 29 -1.74 1.30
 7 6 29 -0.07 -1.17
 8 6 29 0.29 1.21
 9 6 29 1.22 3.23
 10 6 29 -0.09 1.53
 11 6 29 -0.09 -0.06
 5 7 29 1.07 1.60
 6 7 29 2.02 2.90
 7 7 29 0.59 -1.19
 8 7 29 2.66 -0.68
 9 7 29 1.27 -1.12
 10 7 29 1.00 1.52
 11 7 29 0.43 0.81
 4 8 29 5.38 2.92
 5 8 29 4.87 -1.99
 6 8 29 3.19 1.44
 7 8 29 3.75 0.76
 8 8 29 1.17 1.91
 9 8 29 0.97 2.86
 10 8 29 0.46 0.80
 0 9 29 -0.68 -6.37
 1 9 29 -2.12 1.75
 2 9 29 3.15 0.52
 3 9 29 -1.60 2.05
 4 9 29 3.15 -3.07
 5 9 29 3.10 1.03
 6 9 29 1.30 3.10
 7 9 29 2.62 1.49
 8 9 29 -0.05 2.45
 9 9 29 -1.67 1.21
 10 9 29 0.52 1.69
 0 10 29 0.76 1.70
 1 10 29 4.83 -3.30
 2 10 29 1.75 0.13
 3 10 29 3.01 0.99
 4 10 29 2.34 -0.81
 5 10 29 0.09 0.94
 6 10 29 -1.32 2.61
 7 10 29 -0.43 0.27
 8 10 29 -2.33 2.37
 9 10 29 -0.72 0.68
 0 11 29 -0.80 0.98
 1 11 29 -3.66 -4.05
 2 11 29 1.58 -3.86
 3 11 29 -0.52 -2.10
 4 11 29 -0.06 1.20
 5 11 29 0.32 3.99
 6 11 29 1.52 0.51
 7 11 29 -0.60 0.42
 8 11 29 0.62 1.32
 0 12 29 0.62 0.20
 1 12 29 4.03 -1.44
 2 12 29 2.65 -2.25
 3 12 29 2.37 2.27
 4 12 29 0.56 1.59
 5 12 29 -1.40 2.54
 6 12 29 -0.83 2.60
 7 12 29 -1.85 0.43
 8 12 29 -1.88 -0.13
 0 13 29 0.17 -2.37
 1 13 29 0.16 -1.66
 2 13 29 -0.56 -0.07
 3 13 29 0.60 0.47
 4 13 29 1.34 0.88
 5 13 29 -0.17 0.16
 6 13 29 -0.53 0.19
 0 14 29 0.12 -0.04
 1 14 29 1.48 -1.48
 2 14 29 0.25 -0.63
 3 14 29 1.08 0.76
 4 14 29 1.20 2.33
 5 14 29 0.48 -0.21
 7 0 30 7.51 -0.29
 8 0 30 4.26 -0.01
 9 0 30 1.20 -0.12
 10 0 30 2.61 -0.02
 11 0 30 2.08 0.12
 7 1 30 1.18 -1.18
 8 1 30 -4.77 0.51
 9 1 30 1.25 -0.18
 10 1 30 -2.64 -0.41
 11 1 30 1.04 -0.14
 7 2 30 0.84 2.25
 8 2 30 2.94 -3.54
 9 2 30 0.56 -1.53
 10 2 30 -0.72 -1.88
 11 2 30 2.01 1.04
 7 3 30 1.03 0.59
 8 3 30 -1.36 -1.59
 9 3 30 0.16 2.29
 10 3 30 -2.13 0.91
 11 3 30 -0.52 -0.11
 6 4 30 0.17 2.69
 7 4 30 -3.92 0.63
 8 4 30 -1.03 1.11
 9 4 30 -0.77 1.96
 10 4 30 -1.90 0.51
 11 4 30 0.72 0.28
 6 5 30 2.28 1.44
 7 5 30 0.87 0.59
 8 5 30 -0.35 -2.32
 9 5 30 -1.62 -0.23
 10 5 30 -0.98 -0.50
 11 5 30 -1.34 -0.11
 5 6 30 -1.27 0.66
 6 6 30 -3.15 3.20
 7 6 30 -2.38 -0.47
 8 6 30 -2.02 -0.40
 9 6 30 -1.45 -0.45
 10 6 30 -0.18 -1.52
 11 6 30 0.71 -0.02
 4 7 30 -0.92 -1.64
 5 7 30 0.96 -1.87
 6 7 30 1.16 -7.11
 7 7 30 1.81 -2.34
 8 7 30 -0.86 -2.69
 9 7 30 -1.34 -1.70
 10 7 30 -0.07 -1.22
 2 8 30 -2.07 -0.47
 3 8 30 -1.04 0.82
 4 8 30 -1.34 -5.50
 5 8 30 -1.33 -1.14
 6 8 30 0.07 -3.52
 7 8 30 0.17 -1.18
 8 8 30 -0.22 -1.62
 9 8 30 1.70 -0.49
 10 8 30 0.61 -1.47
 0 9 30 0.02 2.20
 1 9 30 3.27 4.13
 2 9 30 1.20 0.77
 3 9 30 2.15 -1.00
 4 9 30 0.27 1.01
 5 9 30 -2.52 -0.60
 6 9 30 2.53 -1.74
 7 9 30 -0.10 -0.44
 8 9 30 -0.18 -0.81
 9 9 30 0.59 -0.82
 0 10 30 1.91 0.04
 1 10 30 -0.74 2.94
 2 10 30 -2.50 1.26
 3 10 30 -1.82 -3.64
 4 10 30 -1.26 -1.10
 5 10 30 -1.95 -2.43
 6 10 30 -0.93 -3.79
 7 10 30 0.60 -1.20
 8 10 30 1.79 -3.29
 9 10 30 1.02 -1.33
 0 11 30 -0.22 1.59
 1 11 30 4.36 0.65
 2 11 30 -2.42 -1.82
 3 11 30 -1.59 0.47
 4 11 30 -2.22 -1.44
 5 11 30 -1.95 -1.91
 6 11 30 1.41 -3.16
 7 11 30 1.85 -2.04
 8 11 30 1.24 -0.30
 0 12 30 -4.58 -0.12
 1 12 30 0.08 2.89
 2 12 30 -1.22 0.18
 3 12 30 -1.94 0.44
 4 12 30 -2.11 -0.65
 5 12 30 -1.22 -3.69
 6 12 30 0.19 -1.27
 7 12 30 1.86 -2.17
 0 13 30 0.27 -2.48
 1 13 30 -1.87 1.17
 2 13 30 -0.80 0.10
 3 13 30 -1.93 0.40
 4 13 30 -1.24 -3.29
 5 13 30 -0.25 -1.90
 6 13 30 0.86 -0.65
 0 14 30 -0.32 0.28
 1 14 30 -0.68 2.16
 2 14 30 -0.06 0.14
 3 14 30 -0.85 0.45
 4 14 30 -2.04 -0.75
 7 0 31 0.08 -5.69
 8 0 31 -0.44 -6.23
 9 0 31 0.03 -1.55
 10 0 31 -0.04 -3.01
 11 0 31 -0.23 0.12
 7 1 31 -5.52 1.76
 8 1 31 0.20 -1.54
 9 1 31 -1.98 -2.54
 10 1 31 -0.18 1.48
 11 1 31 1.50 -0.86
 7 2 31 2.00 -3.87
 8 2 31 0.77 -3.79
 9 2 31 0.14 -1.47
 10 2 31 0.66 -3.19
 11 2 31 0.38 -0.75
 6 3 31 0.35 -0.62
 7 3 31 0.19 -0.99
 8 3 31 1.99 -3.88
 9 3 31 -1.58 0.41
 10 3 31 0.40 0.51
 11 3 31 0.22 0.97
 6 4 31 3.31 0.01
 7 4 31 0.28 -2.66
 8 4 31 4.40 0.62
 9 4 31 -0.80 0.31
 10 4 31 0.40 1.10
 11 4 31 1.54 -0.62
 5 5 31 3.52 -1.53
 6 5 31 2.61 -1.18
 7 5 31 -0.06 -0.20
 8 5 31 -0.50 0.16
 9 5 31 -0.14 1.68
 10 5 31 -0.33 0.48
 11 5 31 0.84 -0.10
 4 6 31 2.64 -1.02
 5 6 31 2.33 0.11
 6 6 31 3.68 0.82
 7 6 31 1.39 -0.16
 8 6 31 0.49 1.11
 9 6 31 0.14 0.33
 10 6 31 1.34 1.35
 11 6 31 0.04 0.57
 3 7 31 5.42 -1.33
 4 7 31 1.37 3.78
 5 7 31 0.20 0.76
 6 7 31 0.11 1.93
 7 7 31 -0.77 1.94
 8 7 31 -1.51 1.70
 9 7 31 0.60 -0.65
 10 7 31 -0.34 1.08
 0 8 31 -8.93 1.01
 1 8 31 5.96 -2.46
 2 8 31 8.41 -3.75
 3 8 31 3.09 -1.64
 4 8 31 3.65 5.35
 5 8 31 -1.37 1.88
 6 8 31 2.82 -0.21
 7 8 31 0.87 2.41
 8 8 31 -0.29 0.88
 9 8 31 0.08 0.22
 10 8 31 -0.05 0.90
 0 9 31 -0.30 -0.63
 1 9 31 -1.62 -3.37
 2 9 31 2.20 -2.97
 3 9 31 -1.10 1.79
 4 9 31 2.97 2.27
 5 9 31 0.38 0.70
 6 9 31 -0.36 2.70
 7 9 31 -1.45 -0.09
 8 9 31 -2.21 -1.41
 9 9 31 -0.29 0.48
 0 10 31 -0.95 0.72
 1 10 31 3.40 -0.28
 2 10 31 2.57 0.70
 3 10 31 1.60 1.63
 4 10 31 0.46 3.85
 5 10 31 -1.84 1.50
 6 10 31 -3.52 2.82
 7 10 31 -2.53 0.83
 8 10 31 -0.81 0.17
 0 11 31 -0.18 0.79
 1 11 31 -0.89 -0.02
 2 11 31 -0.38 -1.61
 3 11 31 0.82 0.69
 4 11 31 0.09 -1.30
 5 11 31 -0.84 2.50
 6 11 31 0.42 2.74
 7 11 31 -1.46 -0.77
 8 11 31 0.21 1.25
 0 12 31 3.52 0.02
 1 12 31 3.10 0.95
 2 12 31 2.89 -1.13
 3 12 31 0.93 2.24
 4 12 31 -0.79 1.52
 5 12 31 -0.93 2.44
 6 12 31 -0.49 1.99
 7 12 31 -1.33 1.95
 0 13 31 0.14 -1.53
 1 13 31 1.73 0.08
 2 13 31 0.14 -1.09
 3 13 31 -0.85 1.50
 4 13 31 0.43 1.73
 5 13 31 0.42 1.49
 0 14 31 2.02 0.06
 1 14 31 0.98 -1.32
 2 14 31 1.35 0.07
 3 14 31 0.90 0.60
 4 14 31 1.18 2.04
 6 0 32 -5.60 0.13
 7 0 32 4.52 -0.22
 8 0 32 0.23 -0.10
 9 0 32 -2.66 -0.07
 10 0 32 -0.48 0.00
 11 0 32 -0.22 0.02
 6 1 32 0.75 0.47
 7 1 32 1.81 -2.42
 8 1 32 0.07 2.69
 9 1 32 -1.24 -0.58
 10 1 32 -0.74 -0.60
 11 1 32 -1.10 -0.07
 6 2 32 -3.93 3.64
 7 2 32 -0.55 -1.63
 8 2 32 -1.97 1.98
 9 2 32 -1.09 -0.37
 10 2 32 -1.33 0.12
 11 2 32 1.62 0.68
 6 3 32 -2.16 -3.84
 7 3 32 -2.16 0.68
 8 3 32 -0.41 0.92
 9 3 32 -0.18 -0.23
 10 3 32 0.04 1.39
 11 3 32 -0.85 0.01
 5 4 32 -2.02 -1.97
 6 4 32 -2.73 2.21
 7 4 32 0.95 -3.25
 8 4 32 -2.40 -1.46
 9 4 32 -1.14 0.23
 10 4 32 -0.98 -1.10
 11 4 32 -0.33 1.07
 4 5 32 -1.54 -3.02
 5 5 32 -2.50 -1.87
 6 5 32 1.55 -2.75
 7 5 32 -2.58 1.01
 8 5 32 -0.49 1.67
 9 5 32 -1.45 -0.72
 10 5 32 0.37 -0.46
 11 5 32 0.14 0.26
 3 6 32 -3.29 -1.24
 4 6 32 -0.60 4.06
 5 6 32 0.99 0.72
 6 6 32 -2.54 0.02
 7 6 32 0.28 -1.73
 8 6 32 -1.12 -2.40
 9 6 32 -0.59 0.09
 10 6 32 -0.38 -0.43
 1 7 32 2.73 0.89
 2 7 32 -3.46 -4.20
 3 7 32 -3.73 -1.36
 4 7 32 1.11 1.56
 5 7 32 -2.62 -1.84
 6 7 32 0.82 -1.41
 7 7 32 -0.89 -1.38
 8 7 32 0.59 -1.94
 9 7 32 -0.75 -0.16
 10 7 32 0.43 -0.37
 0 8 32 -3.60 -0.35
 1 8 32 -1.29 4.92
 2 8 32 -2.71 3.05
 3 8 32 -0.44 -0.70
 4 8 32 -2.91 -4.37
 5 8 32 -2.39 -2.49
 6 8 32 -1.15 -1.41
 7 8 32 -0.59 -1.24
 8 8 32 0.39 -0.47
 9 8 32 1.72 -0.31
 0 9 32 -0.15 0.64
 1 9 32 -0.78 2.43
 2 9 32 -1.82 0.64
 3 9 32 -1.23 0.49
 4 9 32 -0.98 -1.51
 5 9 32 -0.13 -3.33
 6 9 32 0.85 0.52
 7 9 32 1.10 0.12
 8 9 32 0.61 -0.09
 9 9 32 0.58 -0.46
 0 10 32 0.98 0.25
 1 10 32 0.53 3.29
 2 10 32 -0.68 -0.91
 3 10 32 -3.24 -2.37
 4 10 32 -4.24 -4.15
 5 10 32 0.63 0.81
 6 10 32 1.97 -1.95
 7 10 32 -0.34 -0.47
 8 10 32 1.25 0.10
 0 11 32 -0.10 3.34
 1 11 32 0.22 2.49
 2 11 32 -0.96 -1.22
 3 11 32 -2.49 1.17
 4 11 32 0.44 -1.74
 5 11 32 -1.04 -0.89
 6 11 32 0.34 -1.16
 7 11 32 1.51 -0.16
 0 12 32 -2.98 0.27
 1 12 32 -4.05 1.32
 2 12 32 0.50 -1.45
 3 12 32 -0.73 -0.85
 4 12 32 -1.02 -0.46
 5 12 32 -1.02 -0.32
 6 12 32 -0.94 -1.44
 0 13 32 -0.19 1.39
 1 13 32 -0.98 0.29
 2 13 32 -0.98 0.42
 3 13 32 -1.48 0.43
 4 13 32 1.57 -0.56
 5 13 32 -0.15 -0.37
 0 14 32 -0.10 0.51
 1 14 32 -1.24 1.47
 2 14 32 0.61 0.69
 3 14 32 -0.17 -0.41
 6 0 33 0.18 -2.22
 7 0 33 0.10 -0.61
 8 0 33 0.18 -0.81
 9 0 33 -0.03 -1.41
 10 0 33 0.11 0.10
 11 0 33 -0.07 -0.56
 5 1 33 2.94 0.66
 6 1 33 0.74 -0.42
 7 1 33 1.74 1.74
 8 1 33 -0.20 0.98
 9 1 33 1.07 -0.67
 10 1 33 -1.46 1.01
 11 1 33 0.08 -0.60
 5 2 33 -0.09 -3.63
 6 2 33 -1.30 -1.89
 7 2 33 3.64 -0.51
 8 2 33 0.80 -0.59
 9 2 33 0.07 -0.15
 10 2 33 -0.36 -0.78
 11 2 33 0.86 0.07
 5 3 33 -2.61 -1.89
 6 3 33 2.02 -0.34
 7 3 33 0.41 -0.12
 8 3 33 1.55 -2.23
 9 3 33 -1.44 -2.18
 10 3 33 0.52 0.96
 11 3 33 -0.08 -0.77
 4 4 33 -0.87 0.27
 5 4 33 4.24 -2.40
 6 4 33 1.34 -2.62
 7 4 33 0.96 -1.96
 8 4 33 -0.07 1.02
 9 4 33 1.20 1.62
 10 4 33 -0.74 1.85
 11 4 33 0.90 1.51
 4 5 33 0.70 -0.65
 5 5 33 0.52 -0.33
 6 5 33 0.85 -0.10
 7 5 33 0.94 -0.16
 8 5 33 0.50 -1.13
 9 5 33 -0.94 0.01
 10 5 33 0.73 0.76
 2 6 33 -0.06 -2.38
 3 6 33 2.52 0.16
 4 6 33 4.34 1.92
 5 6 33 1.04 2.57
 6 6 33 2.42 2.31
 7 6 33 0.06 0.48
 8 6 33 -0.40 1.97
 9 6 33 1.00 0.92
 10 6 33 0.22 1.17
 0 7 33 -0.96 1.07
 1 7 33 0.12 -0.02
 2 7 33 0.92 -1.71
 3 7 33 3.33 -1.61
 4 7 33 -1.25 0.67
 5 7 33 1.77 3.16
 6 7 33 -0.92 0.10
 7 7 33 -2.16 -0.43
 8 7 33 -0.15 -0.26
 9 7 33 -0.08 0.82
 10 7 33 -0.89 0.09
 0 8 33 -0.45 0.50
 1 8 33 1.38 0.84
 2 8 33 3.87 1.08
 3 8 33 1.81 -0.92
 4 8 33 1.56 3.84
 5 8 33 -0.97 1.80
 6 8 33 -0.01 2.48
 7 8 33 1.25 0.46
 8 8 33 -1.26 1.42
 9 8 33 -0.92 0.93
 0 9 33 -0.53 0.33
 1 9 33 0.72 2.72
 2 9 33 2.29 -0.69
 3 9 33 -1.44 0.72
 4 9 33 -0.47 -0.33
 5 9 33 0.99 0.23
 6 9 33 -0.85 1.39
 7 9 33 -1.19 1.02
 8 9 33 -0.43 0.82
 0 10 33 3.67 -0.15
 1 10 33 2.49 -2.44
 2 10 33 2.45 0.47
 3 10 33 1.01 1.96
 4 10 33 -0.06 2.75
 5 10 33 -1.10 2.11
 6 10 33 -3.00 -0.28
 7 10 33 -0.67 0.95
 8 10 33 -1.86 0.87
 0 11 33 -0.31 0.93
 1 11 33 2.71 -0.09
 2 11 33 0.27 -0.85
 3 11 33 -1.29 1.07
 4 11 33 0.07 -0.21
 5 11 33 -1.32 1.43
 6 11 33 -0.16 0.42
 7 11 33 0.11 -1.65
 0 12 33 -0.45 0.26
 1 12 33 2.41 -1.54
 2 12 33 2.87 1.69
 3 12 33 1.63 1.00
 4 12 33 -0.42 0.41
 5 12 33 -1.85 0.89
 6 12 33 -0.93 -0.78
 0 13 33 -0.09 -1.99
 1 13 33 1.82 -0.83
 2 13 33 0.96 0.02
 3 13 33 -1.03 1.19
 4 13 33 -0.41 0.35
 0 14 33 1.22 0.18
 1 14 33 1.17 -0.43
 2 14 33 0.76 -0.16
 5 0 34 3.88 0.04
 6 0 34 -1.48 0.00
 7 0 34 2.28 0.19
 8 0 34 2.46 -0.11
 9 0 34 1.72 0.17
 10 0 34 1.66 0.11
 11 0 34 0.36 0.19
 5 1 34 -6.56 1.28
 6 1 34 -0.93 2.72
 7 1 34 -0.74 -0.83
 8 1 34 1.42 0.73
 9 1 34 -0.53 -1.58
 10 1 34 -1.20 -0.07
 11 1 34 -0.69 0.15
 4 2 34 -0.67 0.95
 5 2 34 0.21 1.97
 6 2 34 -1.26 -0.93
 7 2 34 -2.48 -0.35
 8 2 34 -1.13 -3.28
 9 2 34 -1.83 1.53
 10 2 34 -0.80 -1.75
 11 2 34 0.41 0.38
 4 3 34 -3.88 1.04
 5 3 34 -4.52 1.69
 6 3 34 -0.90 -1.07
 7 3 34 -2.53 -0.93
 8 3 34 -1.11 1.00
 9 3 34 0.98 -0.04
 10 3 34 0.28 -0.35
 3 4 34 1.46 0.93
 4 4 34 -0.14 1.65
 5 4 34 0.42 0.47
 6 4 34 -2.59 1.15
 7 4 34 -1.06 -0.91
 8 4 34 0.19 -2.47
 9 4 34 -1.00 -1.15
 10 4 34 -0.23 -0.87
 2 5 34 -2.02 1.18
 3 5 34 1.49 -2.29
 4 5 34 -0.56 -3.47
 5 5 34 1.05 -1.45
 6 5 34 2.05 -2.73
 7 5 34 -0.31 -2.87
 8 5 34 -1.98 0.00
 9 5 34 -0.16 0.09
 10 5 34 -1.12 -0.96
 0 6 34 2.94 0.09
 1 6 34 -3.83 2.06
 2 6 34 0.55 -0.67
 3 6 34 -3.80 1.20
 4 6 34 -0.64 0.52
 5 6 34 2.06 0.79
 6 6 34 -0.67 1.26
 7 6 34 0.99 0.98
 8 6 34 -0.52 -1.58
 9 6 34 0.90 -0.54
 10 6 34 0.17 -0.91
 0 7 34 0.54 3.18
 1 7 34 2.07 2.35
 2 7 34 3.02 0.50
 3 7 34 -0.56 -0.79
 4 7 34 0.15 -2.65
 5 7 34 0.67 -1.81
 6 7 34 1.10 -0.14
 7 7 34 0.85 -0.19
 8 7 34 0.38 -0.16
 9 7 34 0.45 -1.49
 0 8 34 0.43 -0.27
 1 8 34 0.57 0.31
 2 8 34 0.59 0.11
 3 8 34 -2.43 2.05
 4 8 34 1.10 -2.00
 5 8 34 -0.29 -0.57
 6 8 34 0.70 -1.77
 7 8 34 1.00 -0.44
 8 8 34 0.47 -0.82
 9 8 34 0.08 0.87
 0 9 34 -0.12 1.91
 1 9 34 1.15 1.44
 2 9 34 -1.41 0.52
 3 9 34 1.82 -0.59
 4 9 34 -0.52 -1.14
 5 9 34 0.01 -1.11
 6 9 34 0.86 -1.68
 7 9 34 0.53 0.02
 8 9 34 1.14 0.27
 0 10 34 -2.64 -0.02
 1 10 34 -0.19 -0.10
 2 10 34 -0.01 -0.82
 3 10 34 0.78 -2.07
 4 10 34 0.22 -2.20
 5 10 34 -1.73 -0.46
 6 10 34 0.34 -0.13
 7 10 34 -0.67 -0.12
 0 11 34 0.04 0.49
 1 11 34 0.36 1.43
 2 11 34 -1.97 0.52
 3 11 34 0.60 -0.50
 4 11 34 -0.23 0.07
 5 11 34 1.26 0.90
 6 11 34 0.70 -1.35
 0 12 34 -0.64 0.46
 1 12 34 -0.90 0.76
 2 12 34 0.47 -2.36
 3 12 34 0.47 -1.68
 4 12 34 1.22 -0.90
 5 12 34 0.04 -0.39
 0 13 34 -0.03 -1.70
 1 13 34 -1.50 1.21
 2 13 34 -0.78 0.17
 3 13 34 -0.33 -0.37
 4 0 35 0.19 -4.92
 5 0 35 -0.27 -2.08
 6 0 35 0.13 -1.69
 7 0 35 -0.10 -3.51
 8 0 35 -0.05 -0.30
 9 0 35 -0.08 -2.42
 10 0 35 0.05 -0.64
 4 1 35 -3.87 -1.12
 5 1 35 1.12 0.32
 6 1 35 -0.56 0.66
 7 1 35 0.54 1.54
 8 1 35 0.77 -0.32
 9 1 35 1.25 0.91
 10 1 35 0.50 2.05
 3 2 35 2.17 -2.48
 4 2 35 1.73 0.88
 5 2 35 0.71 -1.99
 6 2 35 0.39 -1.43
 7 2 35 -0.06 -1.84
 8 2 35 0.99 -1.07
 9 2 35 -0.06 -0.99
 10 2 35 -0.39 -1.57
 3 3 35 0.96 -0.74
 4 3 35 0.64 0.47
 5 3 35 0.11 -2.55
 6 3 35 -1.15 1.21
 7 3 35 -1.18 -0.81
 8 3 35 0.42 0.02
 9 3 35 -0.87 -1.19
 10 3 35 0.14 0.82
 1 4 35 -2.19 -1.10
 2 4 35 -0.31 -2.34
 3 4 35 3.19 -2.07
 4 4 35 0.34 -1.85
 5 4 35 1.69 -1.20
 6 4 35 2.01 1.07
 7 4 35 1.50 -1.86
 8 4 35 0.20 0.40
 9 4 35 -1.61 2.30
 10 4 35 -0.72 1.01
 0 5 35 0.03 1.21
 1 5 35 0.64 1.45
 2 5 35 1.41 -3.31
 3 5 35 2.22 2.18
 4 5 35 2.07 1.44
 5 5 35 1.14 -0.01
 6 5 35 0.84 0.22
 7 5 35 -0.56 0.17
 8 5 35 0.59 1.76
 9 5 35 -1.72 0.04
 10 5 35 -0.72 0.43
 0 6 35 0.31 -0.04
 1 6 35 0.75 -2.40
 2 6 35 -0.08 -1.61
 3 6 35 3.37 -0.25
 4 6 35 2.25 1.44
 5 6 35 2.61 1.16
 6 6 35 2.28 2.44
 7 6 35 0.96 0.27
 8 6 35 -1.51 1.15
 9 6 35 -1.64 0.32
 0 7 35 -0.57 -3.71
 1 7 35 0.67 1.18
 2 7 35 3.06 -0.16
 3 7 35 3.07 0.31
 4 7 35 0.71 0.11
 5 7 35 -0.91 1.87
 6 7 35 0.01 0.65
 7 7 35 -2.07 -0.08
 8 7 35 -2.15 -0.21
 9 7 35 0.30 0.66
 0 8 35 -2.84 0.09
 1 8 35 2.00 -2.02
 2 8 35 0.23 1.70
 3 8 35 2.18 -0.40
 4 8 35 -0.23 3.58
 5 8 35 -2.86 1.73
 6 8 35 -1.24 0.68
 7 8 35 -0.80 1.85
 8 8 35 -0.01 -0.24
 0 9 35 -0.25 -1.84
 1 9 35 2.02 0.60
 2 9 35 1.92 -0.41
 3 9 35 0.03 0.16
 4 9 35 1.18 1.55
 5 9 35 -0.25 -0.76
 6 9 35 -0.35 -0.14
 7 9 35 -1.86 -0.89
 8 9 35 -2.12 -0.20
 0 10 35 0.93 0.03
 1 10 35 1.56 -1.65
 2 10 35 2.04 0.68
 3 10 35 1.51 -0.59
 4 10 35 -0.75 1.40
 5 10 35 -1.16 2.33
 6 10 35 -1.67 -0.49
 7 10 35 -1.01 0.37
 0 11 35 0.01 1.34
 1 11 35 1.50 0.78
 2 11 35 0.31 0.44
 3 11 35 -1.24 1.48
 4 11 35 -0.88 -0.38
 5 11 35 -0.66 -0.11
 6 11 35 -2.16 1.08
 0 12 35 1.47 0.06
 1 12 35 -0.09 -0.87
 2 12 35 0.76 1.89
 3 12 35 0.68 1.75
 4 12 35 -0.40 0.51
 0 13 35 -0.30 1.48
 1 13 35 1.20 -0.48
 2 13 35 1.11 0.39
 2 0 36 -1.19 -0.15
 3 0 36 -0.97 -0.29
 4 0 36 1.11 -0.02
 5 0 36 1.47 -0.07
 6 0 36 -0.85 -0.07
 7 0 36 -0.66 0.26
 8 0 36 -1.26 -0.05
 9 0 36 -2.49 0.18
 10 0 36 1.36 0.07
 2 1 36 -2.64 2.05
 3 1 36 -1.40 0.50
 4 1 36 1.37 -0.98
 5 1 36 0.41 1.56
 6 1 36 -2.64 2.08
 7 1 36 -0.02 1.75
 8 1 36 -1.56 0.98
 9 1 36 0.46 -1.08
 10 1 36 -1.03 -2.07
 1 2 36 -1.11 -0.28
 2 2 36 -2.56 -1.26
 3 2 36 1.47 0.21
 4 2 36 0.45 -1.76
 5 2 36 1.39 0.49
 6 2 36 -1.22 1.01
 7 2 36 -1.11 -0.62
 8 2 36 -1.32 -2.01
 9 2 36 -2.99 0.21
 10 2 36 -1.42 -0.04
 0 3 36 0.41 -0.63
 1 3 36 1.82 1.91
 2 3 36 -3.06 0.63
 3 3 36 0.54 1.56
 4 3 36 -1.46 -1.48
 5 3 36 -1.39 0.07
 6 3 36 -1.43 -1.76
 7 3 36 -0.15 -1.14
 8 3 36 -0.37 0.20
 9 3 36 -0.59 1.23
 10 3 36 0.64 0.21
 0 4 36 3.66 -0.53
 1 4 36 -1.12 3.76
 2 4 36 -1.25 2.44
 3 4 36 0.69 -0.55
 4 4 36 -1.97 -0.59
 5 4 36 2.47 -1.54
 6 4 36 -0.81 -1.36
 7 4 36 -0.25 -3.24
 8 4 36 -0.45 -0.73
 9 4 36 -0.02 -0.98
 0 5 36 0.45 -3.43
 1 5 36 1.23 -0.15
 2 5 36 -4.23 -0.05
 3 5 36 0.66 0.34
 4 5 36 -0.24 -3.38
 5 5 36 -0.37 -2.02
 6 5 36 0.39 -0.99
 7 5 36 0.68 -0.34
 8 5 36 -0.03 0.55
 9 5 36 -0.43 0.46
 0 6 36 -2.21 -0.15
 1 6 36 -1.07 3.86
 2 6 36 0.23 -1.16
 3 6 36 -1.27 -2.26
 4 6 36 -2.36 1.55
 5 6 36 1.02 -1.66
 6 6 36 -0.44 -0.95
 7 6 36 1.45 -1.50
 8 6 36 -0.01 -0.71
 9 6 36 0.12 -1.18
 0 7 36 0.22 -1.48
 1 7 36 -1.18 0.02
 2 7 36 -1.66 -1.30
 3 7 36 2.07 -0.33
 4 7 36 -0.03 -0.48
 5 7 36 0.03 -2.46
 6 7 36 0.11 -0.86
 7 7 36 0.51 0.27
 8 7 36 -0.30 0.97
 0 8 36 -0.87 -0.01
 1 8 36 -0.50 0.35
 2 8 36 0.57 -0.70
 3 8 36 -0.30 -3.29
 4 8 36 -0.85 -1.11
 5 8 36 0.08 -1.65
 6 8 36 -0.39 -0.21
 7 8 36 1.02 0.18
 8 8 36 1.63 0.11
 0 9 36 0.07 0.25
 1 9 36 -1.83 0.25
 2 9 36 -2.77 -0.35
 3 9 36 -0.32 -0.34
 4 9 36 0.52 -2.38
 5 9 36 0.20 -2.11
 6 9 36 0.23 -0.15
 7 9 36 -1.08 0.97
 0 10 36 0.21 0.14
 1 10 36 -0.38 -0.19
 2 10 36 0.87 -0.58
 3 10 36 -0.32 -1.69
 4 10 36 -0.23 -0.25
 5 10 36 1.30 0.48
 6 10 36 0.77 0.36
 0 11 36 -0.28 1.25
 1 11 36 -1.38 0.12
 2 11 36 -0.29 0.58
 3 11 36 0.10 -0.85
 4 11 36 1.09 -2.31
 5 11 36 -0.70 0.44
 0 12 36 -1.57 0.36
 1 12 36 -0.78 0.08
 2 12 36 0.27 -0.85
 3 12 36 -0.91 -1.49
 4 12 36 1.21 0.01
 0 13 36 -0.12 -1.51
 0 0 0 0.00 0.00
# SQUEEZE RESULTS (Version = 260217)
# Note: Data are Listed for all Voids in the P1 Unit Cell
# i.e. Centre of Gravity, Solvent Accessible Volume,
# Recovered number of Electrons in the Void and
# Details about the Squeezed Material
;
_platon_squeeze_void_probe_radius 1.20
_olex2_submission_special_instructions 'No special instructions were received'
loop_
_space_group_symop_operation_xyz
'x, y, z'
'-x+1/2, -y, z+1/2'
'-x, y+1/2, -z+1/2'
'x+1/2, -y+1/2, -z'
loop_
_atom_site_label
_atom_site_type_symbol
_atom_site_fract_x
_atom_site_fract_y
_atom_site_fract_z
_atom_site_U_iso_or_equiv
_atom_site_adp_type
_atom_site_occupancy
_atom_site_site_symmetry_order
_atom_site_calc_flag
_atom_site_refinement_flags_posn
_atom_site_refinement_flags_adp
_atom_site_refinement_flags_occupancy
_atom_site_disorder_assembly
_atom_site_disorder_group
Zn1 Zn 1.05014(9) -0.37035(7) 0.82386(3) 0.0297(4) Uani 1 1 d . . . . .
Zn2 Zn 0.46634(8) 0.24195(8) 0.57642(3) 0.0272(3) Uani 1 1 d . . . . .
Zn3 Zn 0.17654(15) 0.15987(14) 0.60421(5) 0.0886(7) Uani 1 1 d . . . . .
O1 O 0.2706(7) 0.3012(6) 0.6035(3) 0.075(3) Uani 1 1 d . . . . .
O2 O 0.4319(6) 0.3592(5) 0.5955(2) 0.061(2) Uani 1 1 d . . . . .
O3 O -0.0393(7) 0.9972(5) 0.6753(2) 0.058(2) Uani 1 1 d . . . . .
O4 O 0.0791(7) 1.0474(6) 0.6361(3) 0.067(3) Uani 1 1 d . . . . .
O5 O 0.3371(7) 0.0781(5) 0.6153(2) 0.052(2) Uani 1 1 d . . . . .
O6 O 0.4961(6) 0.1497(6) 0.6106(2) 0.053(2) Uani 1 1 d . . . . .
O7 O 0.8045(8) -0.2985(7) 0.8355(2) 0.083(3) Uani 1 1 d . . . . .
O8 O 0.9445(7) -0.3039(5) 0.7956(2) 0.057(2) Uani 1 1 d . . . . .
O9 O 0.2357(7) 0.1885(7) 0.5425(2) 0.070(3) Uani 1 1 d . . . . .
O10 O 0.4086(5) 0.2233(6) 0.52780(18) 0.048(2) Uani 1 1 d . . . . .
O11 O 0.3649(5) 0.3162(5) 0.36239(17) 0.0379(19) Uani 1 1 d . . . . .
O12 O 0.5035(5) 0.2702(5) 0.3981(2) 0.049(2) Uani 1 1 d . . . . .
O13 O 1.1668(8) -0.3663(7) 0.7848(3) 0.083(3) Uani 1 1 d D U . . .
N1 N 0.1324(6) 0.2440(6) 0.4380(2) 0.0284(19) Uani 1 1 d . U . . .
C1 C 0.3267(10) 0.3653(8) 0.6039(3) 0.041(3) Uani 1 1 d . . . . .
C2 C 0.2880(10) 0.4534(8) 0.6144(4) 0.056(4) Uani 1 1 d . . . . .
C3 C 0.1779(11) 0.4671(8) 0.6277(4) 0.078(5) Uani 1 1 d . . . . .
H3 H 0.1320 0.4186 0.6326 0.093 Uiso 1 1 calc R . . . .
C4 C 0.1409(12) 0.5529(10) 0.6332(4) 0.087(5) Uani 1 1 d . . . . .
H4 H 0.0668 0.5611 0.6394 0.105 Uiso 1 1 calc R . . . .
C5 C 0.2065(11) 0.6268(9) 0.6301(4) 0.065(4) Uani 1 1 d . . . . .
C6 C 0.3117(12) 0.6122(9) 0.6176(4) 0.085(5) Uani 1 1 d . . . . .
H6 H 0.3568 0.6616 0.6134 0.102 Uiso 1 1 calc R . . . .
C7 C 0.3551(11) 0.5274(8) 0.6108(4) 0.078(5) Uani 1 1 d . . . . .
H7 H 0.4289 0.5209 0.6039 0.093 Uiso 1 1 calc R . . . .
C8 C 0.1602(12) 0.7192(8) 0.6366(4) 0.067(3) Uani 1 1 d . U . . .
C9 C 0.0804(12) 0.7349(9) 0.6600(4) 0.085(4) Uani 1 1 d . U . . .
H9 H 0.0484 0.6869 0.6721 0.102 Uiso 1 1 calc R . . . .
C10 C 0.0415(12) 0.8225(8) 0.6674(4) 0.078(4) Uani 1 1 d . U . . .
H10 H -0.0112 0.8323 0.6853 0.094 Uiso 1 1 calc R . . . .
C11 C 0.0825(10) 0.8922(7) 0.6477(4) 0.058(3) Uani 1 1 d . U . . .
C12 C 0.1670(12) 0.8715(9) 0.6230(4) 0.079(4) Uani 1 1 d . U . . .
H12 H 0.1964 0.9179 0.6093 0.094 Uiso 1 1 calc R . . . .
C13 C 0.2074(13) 0.7913(9) 0.6181(4) 0.084(4) Uani 1 1 d . U . . .
H13 H 0.2669 0.7823 0.6024 0.101 Uiso 1 1 calc R . . . .
C14 C 0.0386(10) 0.9851(8) 0.6527(3) 0.047(3) Uani 1 1 d . . . . .
C15 C 0.4374(10) 0.0896(8) 0.6228(3) 0.042(3) Uani 1 1 d . . . . .
C16 C 0.4889(9) 0.0216(8) 0.6482(3) 0.049(3) Uani 1 1 d . . . . .
C17 C 0.6069(10) 0.0223(9) 0.6504(4) 0.061(4) Uani 1 1 d . . . . .
H17 H 0.6497 0.0589 0.6356 0.073 Uiso 1 1 calc R . . . .
C18 C 0.6541(9) -0.0338(8) 0.6754(4) 0.062(4) Uani 1 1 d . . . . .
H18 H 0.7311 -0.0337 0.6771 0.074 Uiso 1 1 calc R . . . .
C19 C 0.6001(9) -0.0873(8) 0.6969(3) 0.050(3) Uani 1 1 d . U . . .
C20 C 0.4819(11) -0.0867(10) 0.6946(4) 0.088(5) Uani 1 1 d . . . . .
H20 H 0.4405 -0.1208 0.7107 0.105 Uiso 1 1 calc R . . . .
C21 C 0.4293(10) -0.0372(10) 0.6692(4) 0.073(5) Uani 1 1 d . . . . .
H21 H 0.3531 -0.0429 0.6660 0.088 Uiso 1 1 calc R . . . .
C22 C 0.6581(10) -0.1445(9) 0.7242(3) 0.055(3) Uani 1 1 d . U . . .
C23 C 0.7518(11) -0.1840(10) 0.7169(4) 0.070(3) Uani 1 1 d . U . . .
H23 H 0.7777 -0.1809 0.6932 0.084 Uiso 1 1 calc R . . . .
C24 C 0.8151(11) -0.2298(9) 0.7417(4) 0.070(3) Uani 1 1 d . U . . .
H24 H 0.8825 -0.2544 0.7346 0.084 Uiso 1 1 calc R . . . .
C25 C 0.7787(9) -0.2399(8) 0.7779(3) 0.046(3) Uani 1 1 d . U . . .
C26 C 0.6815(12) -0.2014(10) 0.7863(4) 0.077(4) Uani 1 1 d . U . . .
H26 H 0.6561 -0.2038 0.8101 0.093 Uiso 1 1 calc R . . . .
C27 C 0.6154(11) -0.1563(9) 0.7592(4) 0.069(3) Uani 1 1 d . U . . .
H27 H 0.5449 -0.1353 0.7650 0.083 Uiso 1 1 calc R . . . .
C28 C 0.8460(11) -0.2805(8) 0.8046(3) 0.054(3) Uani 1 1 d . U . . .
C29 C 0.3073(10) 0.2093(8) 0.5216(3) 0.041(3) Uani 1 1 d . U . . .
C30 C 0.2758(8) 0.2252(7) 0.4818(3) 0.033(2) Uani 1 1 d . U . . .
C31 C 0.1641(7) 0.2258(7) 0.4721(3) 0.030(2) Uani 1 1 d . U . . .
H31 H 0.1107 0.2134 0.4896 0.036 Uiso 1 1 calc R . . . .
C32 C 0.2087(7) 0.2629(7) 0.4143(2) 0.026(2) Uani 1 1 d . U . . .
H32 H 0.1853 0.2771 0.3910 0.032 Uiso 1 1 calc R . . . .
C33 C 0.3248(7) 0.2638(7) 0.4209(3) 0.029(2) Uani 1 1 d . U . . .
C34 C 0.3546(7) 0.2433(7) 0.4553(3) 0.032(2) Uani 1 1 d . U . . .
H34 H 0.4295 0.2412 0.4613 0.038 Uiso 1 1 calc R . . . .
C35 C 0.4029(8) 0.2832(7) 0.3926(3) 0.034(3) Uani 1 1 d . U . . .
N2 N 1.3364(16) -0.3655(16) 0.7578(5) 0.120(6) Uani 0.853(17) 1 d D U P A 1
C36 C 1.2652(15) -0.3557(14) 0.7868(5) 0.101(5) Uani 0.853(17) 1 d D U P A 1
H36 H 1.2953 -0.3399 0.8091 0.121 Uiso 0.853(17) 1 calc R . P A 1
C37 C 1.4484(18) -0.345(2) 0.7622(8) 0.151(9) Uani 0.853(17) 1 d D U P A 1
H37A H 1.4594 -0.3185 0.7857 0.227 Uiso 0.853(17) 1 d R . P A 1
H37B H 1.4707 -0.3033 0.7438 0.227 Uiso 0.853(17) 1 d R . P A 1
H37C H 1.4921 -0.3983 0.7603 0.227 Uiso 0.853(17) 1 d R . P A 1
C38 C 1.297(2) -0.4158(19) 0.7265(7) 0.144(10) Uani 0.853(17) 1 d D U P A 1
H38A H 1.2269 -0.4425 0.7320 0.215 Uiso 0.853(17) 1 calc GR . P A 1
H38B H 1.3500 -0.4619 0.7208 0.215 Uiso 0.853(17) 1 calc GR . P A 1
H38C H 1.2894 -0.3764 0.7062 0.215 Uiso 0.853(17) 1 calc GR . P A 1
N2A N 1.305(5) -0.370(7) 0.7415(16) 0.099(11) Uani 0.147(17) 1 d D U P A 2
C36A C 1.204(6) -0.401(5) 0.7552(16) 0.093(9) Uani 0.147(17) 1 d D U P A 2
H36A H 1.1653 -0.4459 0.7433 0.111 Uiso 0.147(17) 1 calc R . P A 2
C37A C 1.411(5) -0.400(9) 0.751(4) 0.104(19) Uani 0.147(17) 1 d D U P A 2
H37D H 1.4536 -0.4067 0.7288 0.156 Uiso 0.147(17) 1 d R . P A 2
H37E H 1.4068 -0.4569 0.7628 0.156 Uiso 0.147(17) 1 d R . P A 2
H37F H 1.4466 -0.3575 0.7663 0.156 Uiso 0.147(17) 1 d R . P A 2
C38A C 1.326(8) -0.336(8) 0.707(2) 0.106(19) Uani 0.147(17) 1 d D U P A 2
H38D H 1.4040 -0.3268 0.7033 0.158 Uiso 0.147(17) 1 d R . P A 2
H38E H 1.2871 -0.2808 0.7036 0.158 Uiso 0.147(17) 1 d R . P A 2
H38F H 1.2998 -0.3786 0.6890 0.158 Uiso 0.147(17) 1 d R . P A 2
loop_
_atom_site_aniso_label
_atom_site_aniso_U_11
_atom_site_aniso_U_22
_atom_site_aniso_U_33
_atom_site_aniso_U_23
_atom_site_aniso_U_13
_atom_site_aniso_U_12
Zn1 0.0270(6) 0.0344(7) 0.0277(7) 0.0027(5) -0.0050(5) -0.0002(6)
Zn2 0.0134(6) 0.0398(7) 0.0284(6) 0.0106(6) 0.0005(5) 0.0063(6)
Zn3 0.0687(12) 0.1039(15) 0.0931(14) 0.0111(12) 0.0013(10) 0.0014(11)
O1 0.047(6) 0.025(5) 0.154(10) -0.006(5) 0.018(6) 0.001(5)
O2 0.041(5) 0.038(5) 0.104(7) -0.024(4) 0.004(5) 0.010(4)
O3 0.062(5) 0.039(5) 0.073(5) -0.005(4) 0.022(5) -0.009(4)
O4 0.060(6) 0.035(5) 0.108(8) 0.021(5) 0.020(5) -0.011(4)
O5 0.042(6) 0.046(5) 0.068(6) 0.031(4) 0.004(4) 0.021(4)
O6 0.031(4) 0.063(6) 0.065(6) 0.045(5) -0.006(4) 0.000(4)
O7 0.084(7) 0.123(9) 0.043(6) 0.030(6) -0.022(5) 0.038(6)
O8 0.045(5) 0.067(6) 0.059(5) 0.027(4) -0.019(4) 0.011(5)
O9 0.041(5) 0.139(9) 0.030(5) 0.032(5) 0.005(4) -0.027(5)
O10 0.017(4) 0.094(7) 0.032(4) 0.015(4) -0.016(3) -0.002(4)
O11 0.025(4) 0.063(5) 0.025(4) 0.004(4) 0.001(3) -0.013(4)
O12 0.018(4) 0.066(6) 0.062(5) 0.020(5) 0.000(3) -0.008(4)
O13 0.060(6) 0.099(7) 0.089(7) 0.020(6) 0.024(5) -0.019(6)
N1 0.018(4) 0.046(5) 0.022(4) 0.008(4) -0.003(4) -0.008(4)
C1 0.039(8) 0.030(8) 0.054(8) 0.007(6) 0.008(6) 0.007(7)
C2 0.063(9) 0.029(8) 0.077(10) -0.013(6) 0.014(7) -0.005(7)
C3 0.063(10) 0.038(9) 0.131(13) -0.015(8) 0.053(9) -0.008(8)
C4 0.070(10) 0.062(11) 0.130(14) 0.010(9) 0.066(10) 0.027(9)
C5 0.060(9) 0.043(9) 0.092(10) 0.006(7) 0.028(8) -0.001(8)
C6 0.063(10) 0.037(9) 0.155(16) -0.009(9) 0.043(10) -0.025(8)
C7 0.050(8) 0.043(9) 0.140(14) -0.040(9) 0.011(9) 0.004(8)
C8 0.082(7) 0.031(6) 0.090(7) -0.003(6) 0.040(6) 0.025(6)
C9 0.099(8) 0.035(6) 0.123(9) 0.018(6) 0.047(7) 0.007(7)
C10 0.081(8) 0.046(7) 0.106(8) 0.018(6) 0.049(7) 0.013(7)
C11 0.062(7) 0.030(6) 0.083(8) -0.006(6) 0.023(6) -0.002(6)
C12 0.090(8) 0.041(7) 0.105(8) -0.014(7) 0.045(7) -0.009(7)
C13 0.097(8) 0.043(7) 0.111(9) -0.014(7) 0.049(7) 0.011(7)
C14 0.038(7) 0.046(8) 0.055(8) -0.013(7) 0.005(7) 0.009(7)
C15 0.026(7) 0.050(8) 0.050(8) 0.029(6) -0.007(6) 0.015(6)
C16 0.033(8) 0.061(8) 0.053(8) 0.024(7) -0.013(6) 0.013(6)
C17 0.040(8) 0.066(9) 0.076(10) 0.026(8) -0.008(7) 0.000(7)
C18 0.024(6) 0.064(9) 0.098(10) 0.044(9) -0.009(7) 0.010(7)
C19 0.030(6) 0.059(7) 0.061(7) 0.038(6) -0.002(6) -0.002(6)
C20 0.056(10) 0.094(11) 0.112(12) 0.082(10) 0.004(8) 0.016(8)
C21 0.040(8) 0.088(11) 0.092(11) 0.067(10) -0.003(7) 0.007(8)
C22 0.038(6) 0.070(7) 0.058(6) 0.036(6) -0.019(5) 0.011(6)
C23 0.067(7) 0.086(8) 0.057(7) 0.038(6) -0.007(6) 0.027(7)
C24 0.053(6) 0.083(8) 0.073(7) 0.030(7) 0.002(6) 0.035(6)
C25 0.043(5) 0.056(6) 0.039(5) 0.025(5) -0.010(4) 0.016(5)
C26 0.075(8) 0.087(8) 0.070(7) 0.027(7) 0.005(7) 0.015(7)
C27 0.060(7) 0.078(8) 0.069(7) 0.030(7) -0.014(6) 0.024(6)
C28 0.063(8) 0.053(7) 0.047(8) 0.008(6) -0.011(7) 0.006(7)
C29 0.039(7) 0.058(7) 0.027(6) 0.003(5) -0.001(6) 0.008(6)
C30 0.023(5) 0.047(6) 0.028(5) -0.003(5) -0.004(4) -0.002(5)
C31 0.018(5) 0.046(6) 0.026(5) 0.006(5) 0.005(4) 0.006(5)
C32 0.014(5) 0.046(6) 0.019(5) 0.017(4) 0.000(4) -0.008(4)
C33 0.012(4) 0.048(6) 0.029(5) 0.008(5) -0.002(4) -0.007(4)
C34 0.010(4) 0.050(6) 0.036(5) -0.008(5) -0.008(4) -0.008(5)
C35 0.013(5) 0.047(6) 0.042(6) 0.006(5) 0.004(5) -0.016(5)
N2 0.102(11) 0.137(12) 0.120(12) 0.005(10) 0.031(10) -0.004(11)
C36 0.085(10) 0.113(10) 0.103(10) -0.001(9) 0.035(9) -0.012(10)
C37 0.120(17) 0.16(2) 0.18(2) 0.027(17) -0.006(17) -0.034(17)
C38 0.134(19) 0.14(2) 0.16(2) 0.017(17) 0.000(17) 0.004(16)
N2A 0.08(2) 0.12(2) 0.10(2) 0.02(2) 0.011(19) -0.01(2)
C36A 0.069(15) 0.109(16) 0.099(16) 0.023(15) 0.015(15) -0.012(15)
C37A 0.08(3) 0.12(4) 0.11(3) 0.02(3) 0.00(3) 0.00(3)
C38A 0.09(3) 0.12(3) 0.11(3) 0.01(3) 0.02(3) 0.00(3)
loop_
_atom_type_symbol
_atom_type_description
_atom_type_scat_dispersion_real
_atom_type_scat_dispersion_imag
_atom_type_scat_source
C C 0.0033 0.0016 'International Tables Vol C Tables 4.2.6.8 and 6.1.1.4'
H H 0.0000 0.0000 'International Tables Vol C Tables 4.2.6.8 and 6.1.1.4'
N N 0.0061 0.0033 'International Tables Vol C Tables 4.2.6.8 and 6.1.1.4'
O O 0.0106 0.0060 'International Tables Vol C Tables 4.2.6.8 and 6.1.1.4'
Zn Zn 0.2839 1.4301 'International Tables Vol C Tables 4.2.6.8 and 6.1.1.4'
loop_
_geom_angle_atom_site_label_1
_geom_angle_atom_site_label_2
_geom_angle_atom_site_label_3
_geom_angle
_geom_angle_site_symmetry_1
_geom_angle_site_symmetry_3
O3 Zn1 O4 56.9(3) 3_636 3_636
O3 Zn1 O13 94.9(4) 3_636 .
O3 Zn1 C14 29.1(4) 3_636 3_636
O4 Zn1 C14 27.9(3) 3_636 3_636
O8 Zn1 O3 118.7(4) . 3_636
O8 Zn1 O4 99.4(3) . 3_636
O8 Zn1 O11 122.3(4) . 2_655
O8 Zn1 O13 93.4(4) . .
O8 Zn1 C14 110.0(4) . 3_636
O11 Zn1 O3 116.3(3) 2_655 3_636
O11 Zn1 O4 95.9(3) 2_655 3_636
O11 Zn1 O13 98.3(4) 2_655 .
O11 Zn1 C14 109.1(3) 2_655 3_636
O13 Zn1 O4 151.8(4) . 3_636
O13 Zn1 C14 123.9(4) . 3_636
O2 Zn2 O10 112.9(4) . .
O2 Zn2 N1 102.0(3) . 4_556
O6 Zn2 O2 117.1(4) . .
O6 Zn2 O10 125.1(4) . .
O6 Zn2 N1 93.5(3) . 4_556
O10 Zn2 N1 97.1(3) . 4_556
O1 Zn3 O9 72.2(4) . .
O4 Zn3 O1 150.1(4) 1_545 .
O4 Zn3 O9 137.6(3) 1_545 .
O5 Zn3 O1 94.1(3) . .
O5 Zn3 O4 87.2(3) . 1_545
O5 Zn3 O9 90.8(3) . .
O5 Zn3 O12 170.1(3) . 4_456
O7 Zn3 O1 74.2(4) 3_656 .
O7 Zn3 O4 76.3(3) 3_656 1_545
O7 Zn3 O5 83.7(3) 3_656 .
O7 Zn3 O9 145.5(3) 3_656 .
O7 Zn3 O12 90.2(3) 3_656 4_456
O12 Zn3 O1 91.6(3) 4_456 .
O12 Zn3 O4 83.8(3) 4_456 1_545
O12 Zn3 O9 98.6(3) 4_456 .
C1 O1 Zn3 172.9(8) . .
C1 O2 Zn2 110.9(7) . .
C14 O3 Zn1 101.6(7) . 3_666
Zn3 O4 Zn1 104.9(3) 1_565 3_666
C14 O4 Zn1 80.1(7) . 3_666
C14 O4 Zn3 173.6(8) . 1_565
C15 O5 Zn3 140.4(7) . .
C15 O6 Zn2 131.5(7) . .
C28 O7 Zn3 151.1(9) . 3_646
C28 O8 Zn1 127.8(8) . .
C29 O9 Zn3 149.5(8) . .
C29 O10 Zn2 122.5(7) . .
C35 O11 Zn1 127.0(6) . 2_654
C35 O12 Zn3 142.6(7) . 4_556
C36 O13 Zn1 130.6(12) . .
C36A O13 Zn1 147(3) . .
C31 N1 Zn2 122.2(6) . 4_456
C32 N1 Zn2 119.1(6) . 4_456
C32 N1 C31 118.2(8) . .
O1 C1 O2 120.0(10) . .
O1 C1 C2 124.0(11) . .
O2 C1 C2 116.0(11) . .
C3 C2 C1 121.4(11) . .
C7 C2 C1 121.1(11) . .
C7 C2 C3 117.5(11) . .
C2 C3 H3 120.5 . .
C4 C3 C2 119.1(12) . .
C4 C3 H3 120.5 . .
C3 C4 H4 118.1 . .
C5 C4 C3 123.8(12) . .
C5 C4 H4 118.1 . .
C4 C5 C6 115.9(12) . .
C4 C5 C8 121.0(12) . .
C6 C5 C8 122.8(13) . .
C5 C6 H6 118.2 . .
C5 C6 C7 123.6(12) . .
C7 C6 H6 118.2 . .
C2 C7 C6 119.6(12) . .
C2 C7 H7 120.2 . .
C6 C7 H7 120.2 . .
C9 C8 C5 122.5(12) . .
C9 C8 C13 118.8(11) . .
C13 C8 C5 118.6(11) . .
C8 C9 H9 118.9 . .
C8 C9 C10 122.2(12) . .
C10 C9 H9 118.9 . .
C9 C10 H10 120.5 . .
C11 C10 C9 118.9(12) . .
C11 C10 H10 120.5 . .
C10 C11 C12 116.2(11) . .
C10 C11 C14 121.0(11) . .
C12 C11 C14 122.8(12) . .
C11 C12 H12 117.8 . .
C13 C12 C11 124.3(13) . .
C13 C12 H12 117.8 . .
C8 C13 H13 120.4 . .
C12 C13 C8 119.2(13) . .
C12 C13 H13 120.4 . .
O3 C14 Zn1 49.3(5) . 3_666
O3 C14 C11 118.3(11) . .
O4 C14 Zn1 72.0(7) . 3_666
O4 C14 O3 121.2(10) . .
O4 C14 C11 120.5(11) . .
C11 C14 Zn1 166.2(9) . 3_666
O5 C15 C16 116.1(11) . .
O6 C15 O5 125.3(9) . .
O6 C15 C16 118.7(10) . .
C17 C16 C15 116.1(11) . .
C21 C16 C15 124.3(10) . .
C21 C16 C17 119.6(11) . .
C16 C17 H17 121.6 . .
C18 C17 C16 116.7(12) . .
C18 C17 H17 121.6 . .
C17 C18 H18 117.3 . .
C19 C18 C17 125.3(11) . .
C19 C18 H18 117.3 . .
C18 C19 C20 117.2(11) . .
C18 C19 C22 121.9(10) . .
C20 C19 C22 120.9(11) . .
C19 C20 H20 119.5 . .
C21 C20 C19 121.0(12) . .
C21 C20 H20 119.5 . .
C16 C21 H21 120.2 . .
C20 C21 C16 119.7(12) . .
C20 C21 H21 120.2 . .
C23 C22 C19 121.7(12) . .
C23 C22 C27 117.0(10) . .
C27 C22 C19 121.4(11) . .
C22 C23 H23 117.7 . .
C22 C23 C24 124.7(13) . .
C24 C23 H23 117.7 . .
C23 C24 H24 119.7 . .
C23 C24 C25 120.7(12) . .
C25 C24 H24 119.7 . .
C24 C25 C28 121.8(11) . .
C26 C25 C24 116.4(10) . .
C26 C25 C28 121.6(12) . .
C25 C26 H26 119.3 . .
C25 C26 C27 121.4(13) . .
C27 C26 H26 119.3 . .
C22 C27 C26 119.5(12) . .
C22 C27 H27 120.2 . .
C26 C27 H27 120.2 . .
O7 C28 O8 122.7(11) . .
O7 C28 C25 119.3(12) . .
O8 C28 C25 117.8(11) . .
O9 C29 O10 128.7(10) . .
O9 C29 C30 118.5(10) . .
O10 C29 C30 112.7(10) . .
C31 C30 C29 118.9(9) . .
C34 C30 C29 122.3(9) . .
C34 C30 C31 118.7(9) . .
N1 C31 C30 121.0(8) . .
N1 C31 H31 119.5 . .
C30 C31 H31 119.5 . .
N1 C32 H32 117.2 . .
N1 C32 C33 125.6(8) . .
C33 C32 H32 117.2 . .
C32 C33 C35 121.5(9) . .
C34 C33 C32 115.0(8) . .
C34 C33 C35 123.6(8) . .
C30 C34 H34 119.3 . .
C33 C34 C30 121.4(8) . .
C33 C34 H34 119.3 . .
O11 C35 C33 117.9(9) . .
O12 C35 O11 122.7(9) . .
O12 C35 C33 119.3(10) . .
C36 N2 C37 119(2) . .
C36 N2 C38 118(2) . .
C37 N2 C38 121(2) . .
O13 C36 N2 123.6(19) . .
O13 C36 H36 118.2 . .
N2 C36 H36 118.2 . .
N2 C37 H37A 109.3 . .
N2 C37 H37B 109.3 . .
N2 C37 H37C 109.8 . .
H37A C37 H37B 109.4 . .
H37A C37 H37C 109.5 . .
H37B C37 H37C 109.5 . .
N2 C38 H38A 109.5 . .
N2 C38 H38B 109.5 . .
N2 C38 H38C 109.5 . .
H38A C38 H38B 109.5 . .
H38A C38 H38C 109.5 . .
H38B C38 H38C 109.5 . .
C36A N2A C37A 127(4) . .
C36A N2A C38A 128(4) . .
C37A N2A C38A 100(6) . .
O13 C36A N2A 119(4) . .
O13 C36A H36A 120.7 . .
N2A C36A H36A 120.7 . .
N2A C37A H37D 108.5 . .
N2A C37A H37E 110.3 . .
N2A C37A H37F 109.6 . .
H37D C37A H37E 109.5 . .
H37D C37A H37F 109.5 . .
H37E C37A H37F 109.4 . .
N2A C38A H38D 110.4 . .
N2A C38A H38E 109.0 . .
N2A C38A H38F 109.1 . .
H38D C38A H38E 109.4 . .
H38D C38A H38F 109.5 . .
H38E C38A H38F 109.5 . .
loop_
_geom_bond_atom_site_label_1
_geom_bond_atom_site_label_2
_geom_bond_distance
_geom_bond_site_symmetry_2
Zn1 O3 1.985(7) 3_636
Zn1 O4 2.475(9) 3_636
Zn1 O8 1.923(7) .
Zn1 O11 1.931(6) 2_655
Zn1 O13 2.014(9) .
Zn1 C14 2.564(11) 3_636
Zn2 O2 1.935(7) .
Zn2 O6 1.904(7) .
Zn2 O10 1.945(6) .
Zn2 N1 2.081(7) 4_556
Zn3 O1 2.399(10) .
Zn3 O4 2.365(9) 1_545
Zn3 O5 2.326(8) .
Zn3 O7 2.323(9) 3_656
Zn3 O9 2.424(8) .
Zn3 O12 2.335(7) 4_456
O1 C1 1.173(13) .
O2 C1 1.308(13) .
O3 Zn1 1.985(7) 3_666
O3 C14 1.272(13) .
O4 Zn1 2.475(9) 3_666
O4 Zn3 2.364(9) 1_565
O4 C14 1.218(14) .
O5 C15 1.252(13) .
O6 C15 1.229(13) .
O7 Zn3 2.323(9) 3_646
O7 C28 1.272(14) .
O8 C28 1.282(14) .
O9 C29 1.198(13) .
O10 C29 1.259(12) .
O11 Zn1 1.931(6) 2_654
O11 C35 1.303(12) .
O12 Zn3 2.335(7) 4_556
O12 C35 1.244(11) .
O13 C36 1.200(17) .
O13 C36A 1.29(3) .
N1 Zn2 2.081(7) 4_456
N1 C31 1.345(11) .
N1 C32 1.301(11) .
C1 C2 1.451(16) .
C2 C3 1.431(17) .
C2 C7 1.378(17) .
C3 H3 0.9300 .
C3 C4 1.374(18) .
C4 H4 0.9300 .
C4 C5 1.364(18) .
C5 C6 1.367(17) .
C5 C8 1.510(17) .
C6 H6 0.9300 .
C6 C7 1.395(17) .
C7 H7 0.9300 .
C8 C9 1.314(17) .
C8 C13 1.397(18) .
C9 H9 0.9300 .
C9 C10 1.419(18) .
C10 H10 0.9300 .
C10 C11 1.363(16) .
C11 C12 1.400(17) .
C11 C14 1.498(16) .
C12 H12 0.9300 .
C12 C13 1.308(18) .
C13 H13 0.9300 .
C14 Zn1 2.564(11) 3_666
C15 C16 1.517(15) .
C16 C17 1.424(15) .
C16 C21 1.376(16) .
C17 H17 0.9300 .
C17 C18 1.370(16) .
C18 H18 0.9300 .
C18 C19 1.303(15) .
C19 C20 1.427(16) .
C19 C22 1.494(15) .
C20 H20 0.9300 .
C20 C21 1.351(17) .
C21 H21 0.9300 .
C22 C23 1.303(17) .
C22 C27 1.401(17) .
C23 H23 0.9300 .
C23 C24 1.375(16) .
C24 H24 0.9300 .
C24 C25 1.413(16) .
C25 C26 1.342(17) .
C25 C28 1.415(16) .
C26 H26 0.9300 .
C26 C27 1.445(17) .
C27 H27 0.9300 .
C29 C30 1.537(14) .
C30 C31 1.393(13) .
C30 C34 1.388(13) .
C31 H31 0.9300 .
C32 H32 0.9300 .
C32 C33 1.420(13) .
C33 C34 1.354(13) .
C33 C35 1.437(14) .
C34 H34 0.9300 .
N2 C36 1.380(19) .
N2 C37 1.39(2) .
N2 C38 1.46(2) .
C36 H36 0.9300 .
C37 H37A 0.9600 .
C37 H37B 0.9598 .
C37 H37C 0.9600 .
C38 H38A 0.9600 .
C38 H38B 0.9600 .
C38 H38C 0.9600 .
N2A C36A 1.39(3) .
N2A C37A 1.40(3) .
N2A C38A 1.40(3) .
C36A H36A 0.9300 .
C37A H37D 0.9598 .
C37A H37E 0.9601 .
C37A H37F 0.9605 .
C38A H38D 0.9603 .
C38A H38E 0.9601 .
C38A H38F 0.9598 .
loop_
_platon_squeeze_void_nr
_platon_squeeze_void_average_x
_platon_squeeze_void_average_y
_platon_squeeze_void_average_z
_platon_squeeze_void_volume
_platon_squeeze_void_count_electrons
_platon_squeeze_void_content
1 -0.015 0.250 0.000 1773 461 ' '
2 0.105 -0.250 0.500 1773 461 ' '
loop_
_platon_missing_refln_index_h
_platon_missing_refln_index_k
_platon_missing_refln_index_l
_platon_missing_refln_theta
0 2 0 2.724
0 1 1 1.469
loop_
_twin_individual_id
_twin_individual_mass_fraction_refined
1 0.89(3)
2 0.11(3)
