#------------------------------------------------------------------------------
#$Date: 2019-11-17 10:03:21 +0200 (Sun, 17 Nov 2019) $
#$Revision: 229246 $
#$URL: file:///home/coder/svn-repositories/cod/cif/7/04/52/7045284.cif $
#------------------------------------------------------------------------------
#
# This file is available in the Crystallography Open Database (COD),
# http://www.crystallography.net/
#
# All data on this site have been placed in the public domain by the
# contributors.
#
data_7045284
loop_
_publ_author_name
'Cheplakova, Anastasia M.'
'Kovalenko, Konstantin A.'
'Samsonenko, Denis G.'
'Lazarenko, Vladimir A.'
'Khrustalev, Victor N.'
'Vinogradov, Andrey S.'
'Karpov, Victor M.'
'Platonov, Vyacheslav E.'
'Fedin, Vladimir P.'
_publ_section_title
;
 Metal-organic frameworks based on octafluorobiphenyl-4,4'-dicarboxylate:
 synthesis, crystal structure, and surface functionality.
;
_journal_issue                   10
_journal_name_full
'Dalton transactions (Cambridge, England : 2003)'
_journal_page_first              3283
_journal_page_last               3297
_journal_paper_doi               10.1039/c7dt04566b
_journal_volume                  47
_journal_year                    2018
_chemical_formula_sum            'C38.5 H30 F16 N2 O12.5 Zn2'
_chemical_formula_weight         1155.38
_space_group_crystal_system      triclinic
_space_group_IT_number           2
_space_group_name_Hall           '-P 1'
_space_group_name_H-M_alt        'P -1'
_symmetry_space_group_name_Hall  '-P 1'
_symmetry_space_group_name_H-M   'P -1'
_atom_sites_solution_hydrogens   geom
_audit_creation_method           SHELXL-2014/7
_audit_update_record
;
2017-11-24 deposited with the CCDC.
2018-01-15 downloaded from the CCDC.
;
_cell_angle_alpha                81.81(3)
_cell_angle_beta                 88.66(3)
_cell_angle_gamma                84.56(3)
_cell_formula_units_Z            2
_cell_length_a                   9.7098(19)
_cell_length_b                   15.254(3)
_cell_length_c                   15.257(3)
_cell_measurement_reflns_used    600
_cell_measurement_temperature    100(2)
_cell_measurement_theta_max      33.3
_cell_measurement_theta_min      3.9
_cell_volume                     2226.5(8)
_computing_cell_refinement       'iMosflm (Battye et al., 2011)'
_computing_data_collection       'Automar (MarXperts, 2015)'
_computing_data_reduction        iMosflm
_computing_molecular_graphics    'ShelXle (H\"ubschle, 2011)'
_computing_publication_material  'CIFTAB-2014 (Sheldrick, 2015)'
_computing_structure_refinement  'SHELXL-2014 (Sheldrick, 2015)'
_computing_structure_solution    'SHELXT-2014 (Sheldrick, 2015)'
_diffrn_ambient_temperature      100(2)
_diffrn_measured_fraction_theta_full 0.917
_diffrn_measured_fraction_theta_max 0.853
_diffrn_measurement_device_type  'Rayonix SX165 CCD'
_diffrn_measurement_method       '\f scan'
_diffrn_radiation_type           synchrotron
_diffrn_radiation_wavelength     0.9699
_diffrn_reflns_av_R_equivalents  0.1763
_diffrn_reflns_av_unetI/netI     0.1958
_diffrn_reflns_Laue_measured_fraction_full 0.917
_diffrn_reflns_Laue_measured_fraction_max 0.853
_diffrn_reflns_limit_h_max       10
_diffrn_reflns_limit_h_min       -11
_diffrn_reflns_limit_k_max       18
_diffrn_reflns_limit_k_min       -19
_diffrn_reflns_limit_l_max       19
_diffrn_reflns_limit_l_min       -19
_diffrn_reflns_number            26688
_diffrn_reflns_point_group_measured_fraction_full 0.917
_diffrn_reflns_point_group_measured_fraction_max 0.853
_diffrn_reflns_theta_full        35.587
_diffrn_reflns_theta_max         38.760
_diffrn_reflns_theta_min         3.901
_diffrn_source                   synchrotron
_exptl_absorpt_coefficient_mu    2.762
_exptl_absorpt_correction_T_max  0.963
_exptl_absorpt_correction_T_min  0.666
_exptl_absorpt_correction_type   multi-scan
_exptl_absorpt_process_details   'Scala (Evans, 2006)'
_exptl_crystal_colour            colourless
_exptl_crystal_density_diffrn    1.723
_exptl_crystal_description       needle
_exptl_crystal_F_000             1158
_exptl_crystal_size_max          0.15
_exptl_crystal_size_mid          0.01
_exptl_crystal_size_min          0.01
_refine_diff_density_max         1.347
_refine_diff_density_min         -1.701
_refine_diff_density_rms         0.156
_refine_ls_extinction_coef       0.0134(19)
_refine_ls_extinction_expression Fc^*^=kFc[1+0.001xFc^2^\l^3^/sin(2\q)]^-1/4^
_refine_ls_extinction_method     'SHELXL-2014/7 (Sheldrick 2014'
_refine_ls_goodness_of_fit_ref   1.029
_refine_ls_hydrogen_treatment    constr
_refine_ls_matrix_type           full
_refine_ls_number_parameters     560
_refine_ls_number_reflns         8577
_refine_ls_number_restraints     0
_refine_ls_restrained_S_all      1.029
_refine_ls_R_factor_all          0.1551
_refine_ls_R_factor_gt           0.1034
_refine_ls_shift/su_max          0.000
_refine_ls_shift/su_mean         0.000
_refine_ls_structure_factor_coef Fsqd
_refine_ls_weighting_details
'w=1/[\s^2^(Fo^2^)+(0.1397P)^2^] where P=(Fo^2^+2Fc^2^)/3'
_refine_ls_weighting_scheme      calc
_refine_ls_wR_factor_gt          0.2467
_refine_ls_wR_factor_ref         0.2857
_reflns_Friedel_coverage         0.000
_reflns_number_gt                4809
_reflns_number_total             8577
_reflns_threshold_expression     'I > 2\s(I)'
_cod_data_source_file            c7dt04566b2.cif
_cod_data_source_block           SN568_sq
_cod_depositor_comments
'Adding full bibliography for 7045279--7045284.cif.'
_cod_original_cell_volume        2226.6(8)
_cod_original_formula_sum        'C38.50 H30 F16 N2 O12.50 Zn2'
_cod_database_code               7045284
_shelx_shelxl_version_number     2014/7
_shelx_space_group_comment
;
The symmetry employed for this shelxl refinement is uniquely defined
by the following loop, which should always be used as a source of
symmetry information in preference to the above space-group names.
They are only intended as comments.
;
_shelx_estimated_absorpt_t_min   0.682
_shelx_estimated_absorpt_t_max   0.973
_shelx_res_file
;
 
    SN568_sq.res created by SHELXL-2014/7
 
 
TITL SN568 in P-1; 100K
CELL 0.96990  9.7098  15.2541  15.2575  81.809  88.656  84.556
ZERR    2.00  0.0019   0.0031   0.0031   0.030   0.030   0.030
LATT 1
SFAC C  H  N O  F  Zn
DISP C 0.007 0.003 25.571
DISP H -0 0 0.636
DISP N 0.013 0.007 47.42
DISP O 0.021 0.012 81.964
DISP F 0.033 0.02 133.388
DISP Zn -0.206 2.502 13245.254
UNIT 77 60 4 25 32 4
 
LIST 4 ! automatically inserted. Change 6 to 4 for CHECKCIF!!
TEMP -173.0
SIZE 0.01 0.01 0.15
 
OMIT 1 2 1
OMIT 0 7 3
OMIT 0 3 6
OMIT 0 5 8
OMIT 0 6 9
OMIT 0 8 4
OMIT 1 -2 1
OMIT 0 6 7
OMIT 1 3 1
OMIT 0 7 5
OMIT 5 3 12
OMIT 0 -4 11
OMIT 0 4 7
OMIT 0 8 6
OMIT 0 6 4
OMIT 0 2 5
OMIT 1 1 1
OMIT 0 1 9
OMIT 1 -1 1
OMIT 0 1 6
OMIT 0 9 7
OMIT 0 5 1
OMIT 0 8 11
OMIT 0 9 5
OMIT 0 -2 6
OMIT 2 -2 2
OMIT 5 5 12
OMIT 0 0 8
OMIT 10 3 5
OMIT 0 4 9
OMIT 10 5 4
OMIT 0 4 0
OMIT 0 0 6
OMIT 0 4 2
OMIT 0 0 4
OMIT 5 1 12
OMIT 2 2 2
OMIT 2 3 2
OMIT 5 2 1
OMIT 0 10 8
OMIT 0 -2 5
OMIT 0 5 6
OMIT 1 6 1
OMIT 0 -4 9
OMIT 0 8 9
OMIT 0 -4 14
OMIT 0 -1 9
OMIT 0 -6 4
OMIT 0 6 6
OMIT -5 6 0
OMIT -10 1 3
OMIT 0 4 4
OMIT 4 17 6
OMIT 10 5 5
OMIT 10 4 6
OMIT 1 -5 1
OMIT 0 10 11
OMIT 10 4 8
OMIT 0 1 7
OMIT 0 2 10
OMIT 5 -1 5
OMIT 0 10 6
OMIT 0 -5 7
OMIT 0 10 9
OMIT 0 2 8
OMIT 4 16 10
OMIT 10 4 4
OMIT 5 7 7
OMIT 4 17 8
OMIT 10 1 10
OMIT 0 0 10
OMIT -4 -17 1
OMIT -10 2 4
OMIT 0 -8 4
OMIT 0 4 10
OMIT 10 1 3
OMIT 2 -3 2
OMIT 2 6 2
OMIT -7 -11 5
OMIT 0 5 7
OMIT 0 6 11
OMIT -10 4 4
OMIT 7 13 6
OMIT 10 -3 3
OMIT 5 2 14
OMIT 5 6 13
OMIT 0 -1 2
OMIT -10 3 1
OMIT -4 -17 3
OMIT 5 0 7
OMIT 10 -7 2
OMIT 0 2 3
OMIT 10 -8 1
OMIT 0 7 7
OMIT 2 1 2
OMIT 1 3 2
OMIT 2 4 2
OMIT 0 -6 11
OMIT 0 -7 13
OMIT 0 -3 2
OMIT -10 3 5
OMIT -9 3 11
OMIT 5 1 13
OMIT -10 10 1
OMIT 5 2 3
OMIT -10 0 5
OMIT 0 3 8
OMIT -10 6 2
OMIT -10 4 2
OMIT -10 2 9
OMIT 5 3 1
OMIT 10 1 4
OMIT 4 17 4
OMIT 0 7 10
OMIT 1 -6 1
OMIT 5 2 4
OMIT -9 7 10
OMIT 0 14 0
OMIT 0 8 1
OMIT 0 2 7
OMIT 0 13 6
OMIT 5 -2 12
OMIT 0 0 15
OMIT 5 8 13
OMIT 0 -5 5
OMIT -1 -6 7
OMIT 0 8 7
OMIT 0 3 3
OMIT 0 11 12
OMIT -7 -13 1
OMIT 0 -1 6
OMIT 0 -3 1
OMIT -10 2 6
OMIT 0 -9 7
OMIT -1 6 5
OMIT 0 10 1
OMIT 5 -3 8
OMIT 5 -8 1
OMIT -9 4 10
OMIT -6 0 10
OMIT 5 -3 2
OMIT 10 -3 1
OMIT 2 0 2
OMIT 0 9 12
OMIT -7 -7 11
OMIT 4 17 3
OMIT 7 14 7
OMIT 0 2 1
OMIT 5 -3 3
OMIT -7 -11 6
OMIT 5 0 10
OMIT 0 4 12
OMIT -9 6 9
OMIT 10 2 6
OMIT -10 1 8
OMIT 0 6 0
OMIT 0 -2 8
OMIT 5 -3 7
OMIT 10 3 3
OMIT 5 6 7
OMIT 10 0 10
OMIT 5 -7 7
OMIT 10 -1 4
OMIT 0 -4 2
OMIT 0 14 7
OMIT 0 11 2
OMIT 5 7 6
OMIT -10 4 0
OMIT -10 1 6
OMIT 0 -1 7
OMIT 0 -7 2
OMIT 5 0 6
OMIT 5 -10 1
OMIT 4 18 2
OMIT 2 3 3
OMIT 0 -2 1
OMIT 10 0 5
OMIT -7 -12 5
OMIT -10 -2 5
OMIT 0 -3 4
OMIT -6 -7 12
OMIT 10 -6 3
OMIT 3 1 3
OMIT 0 -4 3
OMIT 0 15 6
OMIT 0 14 10
OMIT 0 14 2
OMIT 10 3 10
OMIT -1 1 0
OMIT 1 5 1
OMIT 5 1 10
OMIT 10 -6 1
OMIT 0 -6 7
OMIT 0 8 14
OMIT 5 -8 2
OMIT 0 -6 1
OMIT -10 1 4
OMIT -10 4 6
OMIT 10 -4 3
OMIT -9 -6 1
OMIT 10 -3 4
OMIT 0 -12 7
OMIT -1 2 0
OMIT -1 3 0
OMIT 10 -5 4
OMIT 5 2 13
OMIT 0 -3 15
OMIT -6 -8 12
OMIT 10 -1 1
OMIT 6 5 0
OMIT -5 3 5
OMIT -10 -1 4
OMIT -6 -2 1
OMIT 5 -7 1
OMIT -9 5 11
OMIT 5 16 6
OMIT 0 12 1
OMIT 0 14 13
OMIT 0 -3 7
OMIT 7 13 1
OMIT -6 -11 9
OMIT 5 6 5
OMIT 3 -2 3
OMIT 0 11 4
OMIT 0 -7 3
OMIT 10 3 0
OMIT -5 7 0
OMIT -10 2 0
OMIT 1 1 8
OMIT 1 3 8
OMIT 10 -2 2
OMIT -10 1 5
OMIT -5 10 0
OMIT 10 8 5
OMIT 0 -2 9
OMIT 5 7 11
OMIT 5 7 14
OMIT -1 -5 14
OMIT 0 -8 10
OMIT 0 -10 4
OMIT -5 9 1
OMIT -10 2 5
OMIT 2 5 2
OMIT 1 -3 1
OMIT 1 5 8
OMIT 10 1 1
OMIT 10 2 11
OMIT 0 -1 14
OMIT 0 9 0
OMIT 7 14 4
OMIT 0 1 14
OMIT -10 -1 6
OMIT -9 6 11
OMIT 0 11 13
OMIT 1 9 1
OMIT 0 13 0
OMIT -5 5 1
OMIT 0 11 9
OMIT 10 2 9
OMIT 5 -4 12
OMIT 0 -2 2
OMIT 0 1 11
OMIT 0 9 2
OMIT 5 4 13
OMIT -10 1 2
OMIT 0 6 5
OMIT 10 3 9
OMIT 10 1 8
OMIT 1 4 1
OMIT -6 -7 13
OMIT 0 10 5
OMIT -10 3 8
OMIT -10 5 7
OMIT -5 5 2
OMIT 5 2 11
OMIT -1 -11 7
OMIT 0 -7 8
OMIT 5 5 4
OMIT 5 -5 5
OMIT 0 12 5
OMIT 5 -4 5
OMIT -10 3 3
OMIT 0 -8 2
OMIT 0 7 4
OMIT -1 -1 1
OMIT -6 -9 11
OMIT 6 14 1
OMIT 0 -14 5
OMIT -6 -12 6
OMIT 5 2 2
OMIT 0 -10 7
OMIT 5 7 1
OMIT -10 6 8
OMIT -9 -4 9
OMIT -10 2 2
OMIT -5 0 2
OMIT -6 -12 10
OMIT 10 -8 3
OMIT -1 -1 6
OMIT -10 0 1
OMIT 3 -4 2
OMIT 5 -11 1
OMIT 2 0 9
OMIT 7 13 3
OMIT 0 -9 6
OMIT 10 -2 5
OMIT 10 -8 4
OMIT 0 5 5
OMIT 0 -11 5
OMIT -6 -6 3
OMIT -1 -5 11
OMIT 0 15 4
OMIT -9 5 10
OMIT -5 -1 2
OMIT 0 15 1
OMIT 5 6 3
OMIT 0 11 5
OMIT 0 14 3
OMIT -9 -5 9
OMIT 2 -1 1
OMIT 4 -7 10
OMIT 3 0 1
OMIT 10 5 7
OMIT 0 -8 1
OMIT -6 -2 2
OMIT 0 3 9
OMIT -5 -3 2
OMIT 7 1 0
OMIT -6 -10 10
OMIT 6 -4 7
OMIT 5 16 4
OMIT 0 10 3
OMIT 0 -9 3
OMIT -3 0 4
OMIT 0 -9 5
OMIT 3 -4 3
OMIT -6 -10 12
OMIT 5 0 5
OMIT -3 -4 4
OMIT 0 -7 10
OMIT 5 1 6
OMIT -6 -11 11
OMIT 0 -2 19
OMIT 5 7 9
OMIT 10 0 3
OMIT 0 -5 4
OMIT 1 1 2
OMIT -1 -3 14
OMIT -6 4 0
OMIT -9 -5 4
OMIT 3 3 3
OMIT 4 17 9
OMIT 5 -3 1
OMIT 10 0 2
OMIT 4 18 4
OMIT -1 -8 6
OMIT 3 4 3
OMIT 0 4 3
OMIT 5 9 11
OMIT 5 5 14
OMIT -1 1 6
OMIT 10 4 9
OMIT -6 -14 1
OMIT -9 1 9
OMIT -6 5 1
OMIT 5 8 3
OMIT 0 7 13
OMIT 4 17 0
OMIT 3 2 10
OMIT 2 11 2
OMIT 5 -6 2
OMIT 0 1 4
OMIT 6 15 2
OMIT 7 15 5
OMIT -9 1 11
OMIT 0 6 12
OMIT 3 2 3
OMIT 3 5 10
OMIT -4 -1 3
OMIT -7 -12 3
OMIT 3 -1 3
OMIT 5 -1 3
OMIT -10 0 4
OMIT 0 3 11
OMIT 0 -3 14
OMIT 4 18 5
OMIT 1 -6 4
OMIT   -10   7   6
OMIT     0  -5   3
OMIT     5   5   6
OMIT    -9  -2   9
OMIT   -10   8   2
OMIT    -1   4   6
OMIT     5   2   5
OMIT    11   1   0
OMIT     0   0  13
OMIT     4  18   0
OMIT     5  10  12
OMIT     0  -2  13
OMIT     5  -3   5
OMIT     4  17   7
OMIT    -4 -17   4
OMIT     0   5  13
OMIT     0 -12   2
OMIT    -1  -6   2
OMIT    -5  10   2
OMIT    10  -1   5
OMIT     0  -6   6
OMIT     0   6   3
OMIT    -9  -3  10
OMIT     3  -1   2
OMIT    -5  -5   2
OMIT     5   8  12
OMIT    -5   3   0
OMIT     2   7   2
OMIT     0  -7   7
OMIT     5   8  10
OMIT    -6   1  10
OMIT   -10   8   1
OMIT     2   7   9
OMIT     0   7  12
OMIT    -7 -13   3
OMIT    10   1   5
OMIT     5  -3   6
OMIT     1   4   8
OMIT     9   4   9
OMIT     0   1   8
OMIT    10  -1   3
OMIT    -1  -7   8
OMIT    -6   0   1
OMIT     0   2  15
OMIT    -5   3   2
OMIT     5   6  11
OMIT    -6  -1  10
OMIT     0 -10   2
OMIT     5 -11   4
OMIT     0   7   8
OMIT     5  -2   1
OMIT     0  -8   6
OMIT     4   4   4
OMIT     4  -7  14
OMIT    -2  -4   5
OMIT    -6 -13   4
OMIT     6   7   2
OMIT     5   2  16
OMIT     5  -4  11
OMIT    -4   0   3
OMIT     0 -11   1
OMIT    -6  -6   1
OMIT     7  15   3
OMIT     0   8   8
OMIT     4  -4   4
OMIT     5   8   5
OMIT    -5 -16   1
OMIT    10  -1   9
OMIT     7   4   0
OMIT    10  -2   3
OMIT    -5  -1   3
OMIT   -10   4   3
OMIT     4  -7   8
OMIT     0  -9   8
OMIT    -1   3   1
OMIT    -1  -4   6
OMIT     0   1   2
OMIT     5   4  12
OMIT     0   8   5
OMIT     0   2   6
OMIT     0   2   9
OMIT     0  -3   9
OMIT    -1   0   2
OMIT     6   7   4
OMIT     1   8   2
OMIT     1   1   3
OMIT     0   6   2
OMIT     0   9   3
OMIT     0  14   1
 
L.S. 6 0 88
BOND $H
FMAP 2
ACTA
CONF
 
OMIT 0
 
ABIN
WGHT    0.139700
EXTI    0.013385
FVAR       0.47174
ZN1   6    0.402184    0.189270    0.283025    11.00000    0.02355    0.03039 =
         0.01569   -0.00804   -0.00510    0.00575
ZN2   6    0.090110    0.199680    0.287323    11.00000    0.02391    0.03131 =
         0.01637   -0.01003   -0.00497    0.00517
F1    5    0.463188    0.105250    1.028728    11.00000    0.05484    0.11677 =
         0.02626   -0.01695   -0.01495    0.04970
F2    5    0.459947    0.091513    0.855179    11.00000    0.08433    0.11576 =
         0.02252   -0.01892    0.00011    0.05690
F3    5    0.039716    0.270582    0.825098    11.00000    0.05337    0.10578 =
         0.02733   -0.01583   -0.01910    0.03819
F4    5    0.032376    0.279669    0.999142    11.00000    0.05574    0.09629 =
         0.02885   -0.01556   -0.00822    0.03769
F5    5    0.056424    0.100786    0.750306    11.00000    0.08240    0.05669 =
         0.02185   -0.00766    0.00364   -0.01362
F6    5    0.049915    0.100501    0.575205    11.00000    0.06287    0.06658 =
         0.03134   -0.01904   -0.00216   -0.02646
F7    5    0.451473    0.255862    0.542996    11.00000    0.06957    0.14969 =
         0.03336   -0.03582    0.01223   -0.05742
F8    5    0.451059    0.257338    0.718017    11.00000    0.06531    0.15927 =
         0.03319   -0.04407    0.00112   -0.05105
F9    5    0.406746    0.471056    0.166503    11.00000    0.06336    0.03543 =
         0.06194   -0.02059    0.01342   -0.00744
F10   5    0.413896    0.646321    0.167547    11.00000    0.07809    0.04200 =
         0.05047   -0.01495    0.00880   -0.01693
F11   5    0.041383    0.641197    0.374517    11.00000    0.05476    0.02697 =
         0.05327   -0.01896   -0.00042    0.00188
F12   5    0.039627    0.465345    0.377825    11.00000    0.05896    0.03369 =
         0.06194   -0.01592    0.02049   -0.00266
F13   5    0.221818    0.784959    0.120046    11.00000    0.09088    0.04600 =
         0.02988   -0.01533   -0.01931   -0.00821
F14   5    0.241996    0.958343    0.130225    11.00000    0.07708    0.03631 =
         0.02185   -0.00136   -0.01244   -0.00299
F15   5    0.274681    0.890452    0.442554    11.00000    0.06157    0.03456 =
         0.02678   -0.01175   -0.01219    0.00224
F16   5    0.257691    0.716920    0.433293    11.00000    0.07342    0.02688 =
         0.02319    0.00251   -0.01712    0.00360
O1    4    0.359661    0.216363    1.149649    11.00000    0.02652    0.05532 =
         0.01724   -0.00919   -0.00169    0.00268
O2    4    0.137346    0.185811    1.156756    11.00000    0.02369    0.05548 =
         0.01901   -0.01482    0.00022    0.00666
O3    4    0.112951    0.333465    0.259834    11.00000    0.04097    0.04218 =
         0.02935   -0.01304   -0.01262    0.00653
O4    4    0.131098    0.206920    0.416756    11.00000    0.02245    0.04574 =
         0.01595   -0.01128   -0.00274   -0.00025
O5    4    0.341960    0.319984    0.292450    11.00000    0.03385    0.03233 =
         0.04266   -0.01317   -0.00977    0.00395
O6    4    0.359282    0.161327    0.416543    11.00000    0.02593    0.05091 =
         0.00944   -0.00866    0.00083   -0.00101
O7    4    0.378058    1.058543    0.273475    11.00000    0.02560    0.03585 =
         0.03764   -0.01325   -0.00574    0.00706
O8    4    0.151260    1.063949    0.314940    11.00000    0.02832    0.03615 =
         0.03328   -0.00819   -0.00310    0.00187
C7    1    0.249572    0.201960    1.116481    11.00000    0.03360    0.04103 =
         0.01169   -0.00791   -0.01054   -0.00062
C8    1    0.251155    0.195008    1.019248    11.00000    0.01921    0.05942 =
         0.02541   -0.02132   -0.00591    0.00945
C9    1    0.356781    0.147280    0.979094    11.00000    0.03707    0.05460 =
         0.01511   -0.00704   -0.00372    0.01512
C10   1    0.356124    0.141457    0.890142    11.00000    0.03075    0.06392 =
         0.02151   -0.01504    0.00350    0.02062
C11   1    0.252580    0.184891    0.836062    11.00000    0.03921    0.07370 =
         0.01841   -0.01767   -0.01130    0.01912
C12   1    0.146312    0.230283    0.875567    11.00000    0.03696    0.05457 =
         0.02693   -0.00541   -0.01216    0.01359
C13   1    0.141961    0.234737    0.965558    11.00000    0.04295    0.06228 =
         0.02294   -0.01192   -0.00485    0.01915
C14   1    0.254011    0.180692    0.738090    11.00000    0.03799    0.06366 =
         0.01694   -0.01797   -0.00949    0.01455
C15   1    0.153960    0.140687    0.698920    11.00000    0.03467    0.04665 =
         0.01483   -0.00294    0.00514    0.00752
C16   1    0.152072    0.139822    0.609008    11.00000    0.03543    0.03187 =
         0.01525   -0.00666    0.00035   -0.01478
C17   1    0.247876    0.180397    0.551999    11.00000    0.02497    0.04392 =
         0.01748   -0.00997   -0.00519   -0.00114
C18   1    0.348943    0.217438    0.592109    11.00000    0.04853    0.08060 =
         0.02176   -0.01358    0.01355   -0.02372
C19   1    0.354475    0.217730    0.682469    11.00000    0.04546    0.09510 =
         0.02669   -0.03146    0.00043   -0.02507
C20   1    0.245752    0.181853    0.453406    11.00000    0.02817    0.03990 =
         0.01398   -0.00906   -0.00674   -0.00305
C21   1    0.224910    0.364803    0.274435    11.00000    0.03465    0.02923 =
         0.03472   -0.01282   -0.00803    0.00789
C22   1    0.221823    0.462160    0.272439    11.00000    0.03345    0.02192 =
         0.03597   -0.00923    0.00739   -0.00886
C23   1    0.314982    0.510988    0.219942    11.00000    0.03574    0.03758 =
         0.03830   -0.01526   -0.00991    0.00492
C24   1    0.319025    0.600765    0.219524    11.00000    0.05654    0.03993 =
         0.03299   -0.01000    0.00186   -0.01113
C25   1    0.228177    0.649186    0.272463    11.00000    0.05187    0.03659 =
         0.02683   -0.00715   -0.01400    0.00701
C26   1    0.136119    0.600616    0.324877    11.00000    0.04292    0.03325 =
         0.03340   -0.01096   -0.00829    0.00944
C27   1    0.129716    0.509973    0.322925    11.00000    0.04498    0.03008 =
         0.04298   -0.00600    0.00465   -0.00655
C28   1    0.236772    0.744722    0.276250    11.00000    0.06312    0.02475 =
         0.03066   -0.00794   -0.01077    0.00011
C29   1    0.237768    0.808320    0.200647    11.00000    0.07510    0.03844 =
         0.02100   -0.00945   -0.01418    0.00026
C30   1    0.249071    0.897733    0.206200    11.00000    0.05189    0.03059 =
         0.02862   -0.00869   -0.01292   -0.00443
C31   1    0.260939    0.927546    0.286077    11.00000    0.03396    0.02840 =
         0.02682   -0.00959   -0.00719    0.00080
C32   1    0.261734    0.865735    0.361766    11.00000    0.05754    0.03059 =
         0.02368   -0.00645   -0.01262    0.00707
C33   1    0.247670    0.776752    0.357054    11.00000    0.04378    0.02879 =
         0.02537   -0.00388   -0.00802    0.00064
C34   1    0.263933    1.024831    0.291607    11.00000    0.03362    0.03077 =
         0.02556   -0.00642   -0.01251    0.01081
N1    3    0.614039    0.193077    0.285044    11.00000    0.01063    0.02474 =
         0.01185   -0.00233   -0.00294    0.00593
N2    3    0.878245    0.199090    0.285736    11.00000    0.03621    0.01802 =
         0.01375   -0.00966   -0.01048    0.00832
C1    1    0.683454    0.101484    0.300356    11.00000    0.03778    0.04633 =
         0.16777   -0.03481   -0.02259    0.00824
AFIX  23
H1A   2    0.656662    0.067857    0.253513    11.00000   -1.20000
H1B   2    0.652735    0.070859    0.358094    11.00000   -1.20000
AFIX   0
C2    1    0.842411    0.102730    0.299917    11.00000    0.03557    0.05665 =
         0.15896   -0.03365   -0.01355    0.01710
AFIX  23
H2A   2    0.880337    0.071905    0.356974    11.00000   -1.20000
H2B   2    0.883889    0.071251    0.251863    11.00000   -1.20000
AFIX   0
C3    1    0.665915    0.238442    0.199237    11.00000    0.04042    0.09685 =
         0.03164    0.01268   -0.02130    0.00133
AFIX  23
H3A   2    0.621078    0.299966    0.187810    11.00000   -1.20000
H3B   2    0.641491    0.206481    0.150512    11.00000   -1.20000
AFIX   0
C4    1    0.824872    0.240688    0.201415    11.00000    0.04003    0.11601 =
         0.03887    0.02665   -0.00458   -0.02030
AFIX  23
H4A   2    0.868497    0.209253    0.153939    11.00000   -1.20000
H4B   2    0.848067    0.303151    0.190432    11.00000   -1.20000
AFIX   0
C5    1    0.654586    0.239688    0.356775    11.00000    0.03388    0.08771 =
         0.05505   -0.05161   -0.00792    0.01195
AFIX  23
H5A   2    0.621912    0.209594    0.414244    11.00000   -1.20000
H5B   2    0.610724    0.301547    0.348129    11.00000   -1.20000
AFIX   0
C6    1    0.812417    0.240515    0.358145    11.00000    0.04172    0.09694 =
         0.05568   -0.05515   -0.00302   -0.00872
AFIX  23
H6A   2    0.836240    0.302712    0.353370    11.00000   -1.20000
H6B   2    0.848094    0.208271    0.415222    11.00000   -1.20000
 
AFIX   0
HKLF 4
 
REM  SN568 in P-1; 100K
REM R1 =  0.1034 for    4809 Fo > 4sig(Fo)  and  0.1551 for all    8577 data
REM    560 parameters refined using      0 restraints
 
END
 
WGHT      0.1397      0.0000
 
REM Highest difference peak  1.347,  deepest hole -1.701,  1-sigma level  0.156
Q1    1   0.2390  0.1964  0.2850  11.00000  0.05    1.35
Q2    1   0.9552  0.1627  0.3151  11.00000  0.05    1.01
Q3    1   0.0994  0.3413  0.8178  11.00000  0.05    0.82
Q4    1   0.0885  0.2119  0.3540  11.00000  0.05    0.81
Q5    1   0.9188  0.1821  0.2965  11.00000  0.05    0.81
Q6    1   0.4113  0.1822  0.2250  11.00000  0.05    0.80
Q7    1   0.0986  0.1716  0.2300  11.00000  0.05    0.75
Q8    1   0.6968  0.1957  0.2742  11.00000  0.05    0.75
Q9    1   0.1504  0.2861  0.2618  11.00000  0.05    0.75
Q10   1   0.3494  1.1008  0.3115  11.00000  0.05    0.74
Q11   1   0.1025  0.3404  0.9939  11.00000  0.05    0.74
Q12   1   0.0428  1.1147  0.3090  11.00000  0.05    0.72
Q13   1   0.2464  0.2467  0.3781  11.00000  0.05    0.72
Q14   1   0.5422  0.2156  0.2600  11.00000  0.05    0.71
Q15   1   0.2966  1.1206  0.2838  11.00000  0.05    0.71
Q16   1   0.3044  0.1434  0.2540  11.00000  0.05    0.69
Q17   1   0.1592  0.1520  0.3495  11.00000  0.05    0.68
Q18   1   0.1410  0.0652  0.5822  11.00000  0.05    0.67
Q19   1   0.3955  0.1778  0.3709  11.00000  0.05    0.66
Q20   1   0.1433  0.2595  1.1430  11.00000  0.05    0.64
;
_shelx_res_checksum              24736
_shelx_fab_file
;
  -11   -3    1      2.63      0.00
  -11   -3    2      2.80      0.00
  -11   -2    1     -3.57      0.00
  -11   -2    2     -4.16      0.00
  -11   -2    3     -1.41      0.00
  -11   -1    1     -0.52      0.00
  -11   -1    2     -0.30      0.00
  -11   -1    3     -1.00      0.00
  -11   -1    4      0.52      0.00
  -11    0    1     -0.26      0.00
  -11    0    2      0.47      0.00
  -11    0    3      1.86      0.00
  -11    0    4      1.06      0.00
  -11    0    5      0.75      0.00
  -11    1    1      0.67      0.00
  -11    1    2     -1.95      0.00
  -11    1    3     -0.44      0.00
  -11    1    4     -0.66      0.00
  -11    1    5      0.27      0.00
  -11    2    1     -2.77      0.00
  -11    2    2     -0.70      0.00
  -11    2    3     -1.52      0.00
  -11    2    4     -1.32      0.00
  -11    2    5     -1.45      0.00
  -11    3    1      3.19      0.00
  -11    3    2      0.20      0.00
  -11    3    3      2.20      0.00
  -11    3    4      0.40      0.00
  -11    3    5     -0.11      0.00
  -11    4    1      1.25      0.00
  -11    4    2      0.21      0.00
  -11    4    3     -0.02      0.00
  -11    4    4      0.61      0.00
  -11    4    5      1.75      0.00
  -11    5    1     -0.19      0.00
  -11    5    2      0.88      0.00
  -11    5    3      0.84      0.00
  -11    5    4     -0.58      0.00
  -11    6    1      3.50      0.00
  -11    6    2     -0.51      0.00
  -11    6    3      0.66      0.00
  -11    7    1      0.11      0.00
  -10   -5    1      1.52      0.00
  -10   -4    1     -1.62      0.00
  -10   -4    3     -2.67      0.00
  -10   -4    4      2.08      0.00
  -10   -3    1      0.53      0.00
  -10   -3    2      0.21      0.00
  -10   -3    3      1.68      0.00
  -10   -3    6     -0.84      0.00
  -10   -2    1      0.10      0.00
  -10   -2    2      0.13      0.00
  -10   -2    3     -2.62      0.00
  -10   -2    4      0.89      0.00
  -10   -2    5     -3.53      0.00
  -10   -2    6     -0.69      0.00
  -10   -2    7      0.54      0.00
  -10   -1    1     -1.73      0.00
  -10   -1    2     -1.07      0.00
  -10   -1    3     -0.66      0.00
  -10   -1    4     -0.78      0.00
  -10   -1    5      2.95      0.00
  -10   -1    6      2.95      0.00
  -10   -1    7      2.11      0.00
  -10    0    1     -1.27      0.00
  -10    0    2     -2.30      0.00
  -10    0    3      0.02      0.00
  -10    0    4     -0.18      0.00
  -10    0    5     -0.85      0.00
  -10    0    6     -1.47      0.00
  -10    0    7     -0.61      0.00
  -10    0    8     -0.26      0.00
  -10    1    1     -2.13      0.00
  -10    1    2      1.11      0.00
  -10    1    3     -4.76      0.00
  -10    1    4     -0.73      0.00
  -10    1    5     -1.87      0.00
  -10    1    6      1.80      0.00
  -10    1    7      0.69      0.00
  -10    1    8      1.45      0.00
  -10    2    1     -0.77      0.00
  -10    2    2     -1.76      0.00
  -10    2    3      3.98      0.00
  -10    2    4      1.31      0.00
  -10    2    5      3.22      0.00
  -10    2    6     -0.16      0.00
  -10    2    7     -0.33      0.00
  -10    2    8     -2.20      0.00
  -10    2    9     -3.88      0.00
  -10    3    1      0.15      0.00
  -10    3    2      2.71      0.00
  -10    3    3     -2.63      0.00
  -10    3    4      1.38      0.00
  -10    3    5     -3.11      0.00
  -10    3    6     -1.73      0.00
  -10    3    7     -3.41      0.00
  -10    3    8     -2.24      0.00
  -10    3    9     -1.22      0.00
  -10    4    1     -4.28      0.00
  -10    4    2     -2.66      0.00
  -10    4    3     -2.93      0.00
  -10    4    4     -5.44      0.00
  -10    4    5     -1.51      0.00
  -10    4    6     -1.35      0.00
  -10    4    7      0.43      0.00
  -10    4    8      0.72      0.00
  -10    4    9      0.33      0.00
  -10    5    1      3.32      0.00
  -10    5    2      3.42      0.00
  -10    5    3      5.87      0.00
  -10    5    4      8.09      0.00
  -10    5    5      3.05      0.00
  -10    5    6      0.97      0.00
  -10    5    7     -0.55      0.00
  -10    5    8     -2.03      0.00
  -10    6    1      0.34      0.00
  -10    6    2      4.02      0.00
  -10    6    3     -2.17      0.00
  -10    6    4     -3.13      0.00
  -10    6    5     -0.73      0.00
  -10    6    6     -0.29      0.00
  -10    6    7     -0.24      0.00
  -10    6    8      2.12      0.00
  -10    7    1     -1.63      0.00
  -10    7    2     -3.87      0.00
  -10    7    3      1.43      0.00
  -10    7    4      0.15      0.00
  -10    7    5      0.25      0.00
  -10    7    6     -0.51      0.00
  -10    7    7      2.63      0.00
  -10    8    1      2.11      0.00
  -10    8    2      7.03      0.00
  -10    8    3      2.89      0.00
  -10    8    4      5.44      0.00
  -10    8    5      2.78      0.00
  -10    8    6      2.35      0.00
  -10    9    1      1.75      0.00
  -10    9    2     -2.52      0.00
  -10    9    3     -0.38      0.00
  -10    9    4     -4.93      0.00
  -10    9    5     -0.92      0.00
  -10   10    1     -4.69      0.00
  -10   10    2     -0.50      0.00
   -9   -8    5     -0.96      0.00
   -9   -8    6      0.36      0.00
   -9   -7    5      1.72      0.00
   -9   -7    6     -0.83      0.00
   -9   -7    7     -0.08      0.00
   -9   -6    1      1.96      0.00
   -9   -6    6      2.15      0.00
   -9   -6    7      0.85      0.00
   -9   -6    8      1.19      0.00
   -9   -5    1     -1.60      0.00
   -9   -5    2      0.94      0.00
   -9   -5    3      0.65      0.00
   -9   -5    4      2.13      0.00
   -9   -5    6     -1.11      0.00
   -9   -5    7     -1.02      0.00
   -9   -5    8     -0.09      0.00
   -9   -5    9     -0.75      0.00
   -9   -4    1      2.59      0.00
   -9   -4    2     -0.05      0.00
   -9   -4    4     -1.18      0.00
   -9   -4    5      0.42      0.00
   -9   -4    6     -0.28      0.00
   -9   -4    7     -0.43      0.00
   -9   -4    8     -1.29      0.00
   -9   -4    9     -0.92      0.00
   -9   -3    1     -1.56      0.00
   -9   -3    2      1.75      0.00
   -9   -3    3      1.16      0.00
   -9   -3    4      0.19      0.00
   -9   -3    5     -1.83      0.00
   -9   -3    6     -0.36      0.00
   -9   -3    7     -0.21      0.00
   -9   -3    8      0.85      0.00
   -9   -3    9      1.22      0.00
   -9   -3   10      2.04      0.00
   -9   -2    1      0.53      0.00
   -9   -2    2     -0.86      0.00
   -9   -2    3     -0.53      0.00
   -9   -2    4      0.35      0.00
   -9   -2    5      0.98      0.00
   -9   -2    6     -0.84      0.00
   -9   -2    7      0.04      0.00
   -9   -2    8      0.35      0.00
   -9   -2    9      0.75      0.00
   -9   -2   10     -0.13      0.00
   -9   -1    1     -0.27      0.00
   -9   -1    2      0.02      0.00
   -9   -1    3      0.13      0.00
   -9   -1    4     -2.30      0.00
   -9   -1    5     -0.95      0.00
   -9   -1    6     -0.01      0.00
   -9   -1    7      1.04      0.00
   -9   -1    8     -0.25      0.00
   -9   -1    9      1.08      0.00
   -9   -1   10      0.07      0.00
   -9    0    1      0.56      0.00
   -9    0    2      0.28      0.00
   -9    0    3     -0.26      0.00
   -9    0    4      0.56      0.00
   -9    0    5     -0.12      0.00
   -9    0    6     -0.70      0.00
   -9    0    7      0.43      0.00
   -9    0    8      1.60      0.00
   -9    0    9      0.71      0.00
   -9    0   10     -0.46      0.00
   -9    1    1      0.50      0.00
   -9    1    2     -0.37      0.00
   -9    1    3      0.79      0.00
   -9    1    4     -1.55      0.00
   -9    1    5      0.60      0.00
   -9    1    6      0.36      0.00
   -9    1    7      0.57      0.00
   -9    1    8     -0.96      0.00
   -9    1    9      0.28      0.00
   -9    1   10      0.19      0.00
   -9    1   11      1.85      0.00
   -9    2    1     -0.42      0.00
   -9    2    2     -1.97      0.00
   -9    2    3     -0.75      0.00
   -9    2    4      0.08      0.00
   -9    2    5      0.25      0.00
   -9    2    6     -0.53      0.00
   -9    2    7      0.61      0.00
   -9    2    8      0.32      0.00
   -9    2    9     -0.33      0.00
   -9    2   10     -1.82      0.00
   -9    2   11     -1.62      0.00
   -9    3    1      1.41      0.00
   -9    3    2      1.38      0.00
   -9    3    3      1.53      0.00
   -9    3    4     -0.92      0.00
   -9    3    5      0.76      0.00
   -9    3    6      0.07      0.00
   -9    3    7     -0.73      0.00
   -9    3    8     -1.32      0.00
   -9    3    9     -1.36      0.00
   -9    3   10     -0.90      0.00
   -9    3   11     -0.71      0.00
   -9    4    1      0.83      0.00
   -9    4    2     -0.95      0.00
   -9    4    3      1.82      0.00
   -9    4    4      1.62      0.00
   -9    4    5      0.15      0.00
   -9    4    6     -0.30      0.00
   -9    4    7     -0.95      0.00
   -9    4    8     -1.41      0.00
   -9    4    9     -1.63      0.00
   -9    4   10     -1.51      0.00
   -9    4   11     -0.54      0.00
   -9    5    1      0.12      0.00
   -9    5    2     -0.88      0.00
   -9    5    3     -0.66      0.00
   -9    5    4     -0.45      0.00
   -9    5    5      1.22      0.00
   -9    5    6     -0.55      0.00
   -9    5    7     -1.14      0.00
   -9    5    8     -0.90      0.00
   -9    5    9     -0.44      0.00
   -9    5   10      0.05      0.00
   -9    5   11      1.12      0.00
   -9    6    1      0.75      0.00
   -9    6    2      0.90      0.00
   -9    6    3      2.83      0.00
   -9    6    4     -0.21      0.00
   -9    6    5     -0.97      0.00
   -9    6    6      0.12      0.00
   -9    6    7     -0.22      0.00
   -9    6    8     -0.59      0.00
   -9    6    9     -0.34      0.00
   -9    6   10      0.41      0.00
   -9    6   11      0.72      0.00
   -9    7    1      1.64      0.00
   -9    7    2      0.21      0.00
   -9    7    3      0.83      0.00
   -9    7    4      4.47      0.00
   -9    7    5      2.43      0.00
   -9    7    6      1.53      0.00
   -9    7    7     -0.67      0.00
   -9    7    8      1.65      0.00
   -9    7    9      1.46      0.00
   -9    7   10      2.32      0.00
   -9    8    1      0.17      0.00
   -9    8    2      0.50      0.00
   -9    8    3      1.68      0.00
   -9    8    4     -1.77      0.00
   -9    8    5      0.36      0.00
   -9    8    6      0.00      0.00
   -9    8    7      1.19      0.00
   -9    8    8     -0.83      0.00
   -9    8    9      0.65      0.00
   -9    8   10      0.51      0.00
   -9    9    1      1.23      0.00
   -9    9    2      0.78      0.00
   -9    9    3      0.08      0.00
   -9    9    4      2.76      0.00
   -9    9    5     -0.80      0.00
   -9    9    6      0.81      0.00
   -9    9    7     -1.23      0.00
   -9    9    8      1.96      0.00
   -9    9    9      1.30      0.00
   -9   10    1     -0.74      0.00
   -9   10    2     -0.29      0.00
   -9   10    3      0.98      0.00
   -9   10    4      0.74      0.00
   -9   10    5      1.58      0.00
   -9   10    6      0.46      0.00
   -9   10    7      0.69      0.00
   -9   10    8     -0.54      0.00
   -9   11    1      0.28      0.00
   -9   11    2     -0.05      0.00
   -9   11    3     -1.63      0.00
   -9   11    4     -0.78      0.00
   -9   11    5     -1.69      0.00
   -9   11    6     -0.67      0.00
   -9   12    1     -1.66      0.00
   -9   12    2     -0.02      0.00
   -9   12    3      0.83      0.00
   -8  -13    1     -0.23      0.00
   -8  -13    2     -0.04      0.00
   -8  -13    3     -2.12      0.00
   -8  -12    1      1.31      0.00
   -8  -12    2     -0.92      0.00
   -8  -12    3      2.35      0.00
   -8  -12    4      1.11      0.00
   -8  -12    5     -0.15      0.00
   -8  -11    1     -0.87      0.00
   -8  -11    2     -0.51      0.00
   -8  -11    3     -3.63      0.00
   -8  -11    4     -0.51      0.00
   -8  -11    5     -0.31      0.00
   -8  -11    6      0.60      0.00
   -8  -11    7      0.57      0.00
   -8  -10    1     -0.03      0.00
   -8  -10    2     -0.98      0.00
   -8  -10    3      0.16      0.00
   -8  -10    4     -1.31      0.00
   -8  -10    5     -1.91      0.00
   -8  -10    6     -0.43      0.00
   -8  -10    7     -0.05      0.00
   -8  -10    8     -0.30      0.00
   -8   -9    1     -0.62      0.00
   -8   -9    2      0.11      0.00
   -8   -9    3     -1.23      0.00
   -8   -9    5      0.08      0.00
   -8   -9    6      0.76      0.00
   -8   -9    7     -0.96      0.00
   -8   -9    8      0.38      0.00
   -8   -9    9      1.86      0.00
   -8   -8    2     -0.41      0.00
   -8   -8    3     -1.53      0.00
   -8   -8    4     -0.55      0.00
   -8   -8    5     -1.56      0.00
   -8   -8    6     -0.39      0.00
   -8   -8    7      2.13      0.00
   -8   -8    8      0.81      0.00
   -8   -8    9     -0.51      0.00
   -8   -8   10      0.71      0.00
   -8   -7    3      0.30      0.00
   -8   -7    4     -0.37      0.00
   -8   -7    5     -0.13      0.00
   -8   -7    6      0.35      0.00
   -8   -7    7     -2.69      0.00
   -8   -7    8     -1.64      0.00
   -8   -7    9      1.03      0.00
   -8   -7   10     -1.66      0.00
   -8   -7   11      0.26      0.00
   -8   -6    1     -1.04      0.00
   -8   -6    3     -1.55      0.00
   -8   -6    4     -0.37      0.00
   -8   -6    5     -3.23      0.00
   -8   -6    6     -2.57      0.00
   -8   -6    7      0.61      0.00
   -8   -6    8      1.41      0.00
   -8   -6    9     -1.45      0.00
   -8   -6   10      2.15      0.00
   -8   -6   11     -1.26      0.00
   -8   -5    1      0.89      0.00
   -8   -5    2      0.01      0.00
   -8   -5    3      0.82      0.00
   -8   -5    4      0.95      0.00
   -8   -5    5      2.89      0.00
   -8   -5    6      3.19      0.00
   -8   -5    7      0.40      0.00
   -8   -5    8     -0.44      0.00
   -8   -5    9      2.64      0.00
   -8   -5   10     -1.21      0.00
   -8   -5   11      2.08      0.00
   -8   -5   12     -1.05      0.00
   -8   -4    1      2.06      0.00
   -8   -4    2      1.80      0.00
   -8   -4    3      0.92      0.00
   -8   -4    4     -0.03      0.00
   -8   -4    5     -1.76      0.00
   -8   -4    6     -1.40      0.00
   -8   -4    7      0.77      0.00
   -8   -4    8      2.23      0.00
   -8   -4    9     -0.58      0.00
   -8   -4   10      3.36      0.00
   -8   -4   11     -0.49      0.00
   -8   -4   12      3.48      0.00
   -8   -3    1     -2.45      0.00
   -8   -3    2     -1.51      0.00
   -8   -3    3     -0.18      0.00
   -8   -3    4      1.11      0.00
   -8   -3    5      1.28      0.00
   -8   -3    6      2.16      0.00
   -8   -3    7      0.02      0.00
   -8   -3    8      0.92      0.00
   -8   -3    9      1.07      0.00
   -8   -3   10     -0.33      0.00
   -8   -3   11      0.27      0.00
   -8   -3   12     -1.33      0.00
   -8   -2    1      1.14      0.00
   -8   -2    2     -0.44      0.00
   -8   -2    3      0.04      0.00
   -8   -2    4      0.24      0.00
   -8   -2    5      0.40      0.00
   -8   -2    6      0.26      0.00
   -8   -2    7      0.92      0.00
   -8   -2    8      0.44      0.00
   -8   -2    9      0.81      0.00
   -8   -2   10      0.74      0.00
   -8   -2   11     -0.10      0.00
   -8   -2   12     -0.55      0.00
   -8   -2   13      0.21      0.00
   -8   -1    1     -1.40      0.00
   -8   -1    2      0.09      0.00
   -8   -1    3      1.22      0.00
   -8   -1    4      0.29      0.00
   -8   -1    5     -0.42      0.00
   -8   -1    6      0.99      0.00
   -8   -1    7     -0.75      0.00
   -8   -1    8      1.26      0.00
   -8   -1    9     -1.65      0.00
   -8   -1   10      0.99      0.00
   -8   -1   11     -0.49      0.00
   -8   -1   12      1.89      0.00
   -8   -1   13     -1.26      0.00
   -8    0    1      0.35      0.00
   -8    0    2      0.22      0.00
   -8    0    3     -0.65      0.00
   -8    0    4      2.18      0.00
   -8    0    5      0.02      0.00
   -8    0    6      0.00      0.00
   -8    0    7     -0.35      0.00
   -8    0    8      0.56      0.00
   -8    0    9      2.28      0.00
   -8    0   10      0.26      0.00
   -8    0   11      0.09      0.00
   -8    0   12     -2.30      0.00
   -8    0   13      0.26      0.00
   -8    1    1      0.17      0.00
   -8    1    2      0.31      0.00
   -8    1    3      2.00      0.00
   -8    1    4     -0.08      0.00
   -8    1    5      0.58      0.00
   -8    1    6      1.54      0.00
   -8    1    7      0.06      0.00
   -8    1    8     -0.55      0.00
   -8    1    9     -2.19      0.00
   -8    1   10     -0.59      0.00
   -8    1   11     -0.14      0.00
   -8    1   12      0.94      0.00
   -8    1   13     -0.91      0.00
   -8    2    1      1.62      0.00
   -8    2    2      2.68      0.00
   -8    2    3     -0.24      0.00
   -8    2    4      2.44      0.00
   -8    2    5     -1.16      0.00
   -8    2    6     -0.78      0.00
   -8    2    7     -1.49      0.00
   -8    2    8      0.63      0.00
   -8    2    9      0.54      0.00
   -8    2   10      0.63      0.00
   -8    2   11     -0.96      0.00
   -8    2   12     -0.79      0.00
   -8    2   13     -0.16      0.00
   -8    3    1      0.46      0.00
   -8    3    2      1.31      0.00
   -8    3    3      1.42      0.00
   -8    3    4      1.06      0.00
   -8    3    5      0.60      0.00
   -8    3    6      1.04      0.00
   -8    3    7      0.24      0.00
   -8    3    8     -0.79      0.00
   -8    3    9     -0.39      0.00
   -8    3   10     -1.58      0.00
   -8    3   11      0.34      0.00
   -8    3   12     -0.41      0.00
   -8    3   13     -0.25      0.00
   -8    4    1      0.78      0.00
   -8    4    2      1.05      0.00
   -8    4    3      0.52      0.00
   -8    4    4      1.87      0.00
   -8    4    5      1.01      0.00
   -8    4    6      1.12      0.00
   -8    4    7      0.14      0.00
   -8    4    8     -0.15      0.00
   -8    4    9     -0.38      0.00
   -8    4   10      0.69      0.00
   -8    4   11      0.00      0.00
   -8    4   12      0.45      0.00
   -8    4   13      0.99      0.00
   -8    5    1      0.26      0.00
   -8    5    2      3.07      0.00
   -8    5    3     -0.06      0.00
   -8    5    4      1.32      0.00
   -8    5    5     -0.41      0.00
   -8    5    6     -0.38      0.00
   -8    5    7     -0.02      0.00
   -8    5    8     -0.18      0.00
   -8    5    9      0.27      0.00
   -8    5   10     -0.84      0.00
   -8    5   11      0.07      0.00
   -8    5   12      0.32      0.00
   -8    5   13     -1.03      0.00
   -8    6    1      0.16      0.00
   -8    6    2     -0.32      0.00
   -8    6    3      1.54      0.00
   -8    6    4      1.44      0.00
   -8    6    5      1.64      0.00
   -8    6    6      1.13      0.00
   -8    6    7      0.23      0.00
   -8    6    8     -0.69      0.00
   -8    6    9     -0.50      0.00
   -8    6   10      0.02      0.00
   -8    6   11      0.62      0.00
   -8    6   12      0.35      0.00
   -8    6   13      2.38      0.00
   -8    7    1     -0.25      0.00
   -8    7    2      2.35      0.00
   -8    7    3     -0.80      0.00
   -8    7    4      1.11      0.00
   -8    7    5      0.70      0.00
   -8    7    6      0.00      0.00
   -8    7    7      0.23      0.00
   -8    7    8     -1.08      0.00
   -8    7    9      0.51      0.00
   -8    7   10      0.39      0.00
   -8    7   11      1.52      0.00
   -8    7   12      1.70      0.00
   -8    8    1     -0.87      0.00
   -8    8    2     -0.69      0.00
   -8    8    3      0.79      0.00
   -8    8    4     -0.21      0.00
   -8    8    5     -0.13      0.00
   -8    8    6     -0.75      0.00
   -8    8    7      0.01      0.00
   -8    8    8      0.42      0.00
   -8    8    9     -0.32      0.00
   -8    8   10      0.53      0.00
   -8    8   11      0.24      0.00
   -8    8   12      0.82      0.00
   -8    9    1     -0.67      0.00
   -8    9    2      0.62      0.00
   -8    9    3     -0.43      0.00
   -8    9    4      1.05      0.00
   -8    9    5      1.52      0.00
   -8    9    6      0.82      0.00
   -8    9    7      0.04      0.00
   -8    9    8     -1.01      0.00
   -8    9    9      1.09      0.00
   -8    9   10      0.71      0.00
   -8    9   11      2.43      0.00
   -8   10    1      0.64      0.00
   -8   10    2      0.33      0.00
   -8   10    3      0.96      0.00
   -8   10    4     -0.03      0.00
   -8   10    5      0.29      0.00
   -8   10    6     -0.59      0.00
   -8   10    7      0.56      0.00
   -8   10    8     -0.06      0.00
   -8   10    9     -0.65      0.00
   -8   10   10      0.40      0.00
   -8   11    1     -0.87      0.00
   -8   11    2     -0.23      0.00
   -8   11    3     -0.21      0.00
   -8   11    4     -0.42      0.00
   -8   11    5      0.27      0.00
   -8   11    6     -0.36      0.00
   -8   11    7     -0.92      0.00
   -8   11    8     -0.15      0.00
   -8   11    9      0.12      0.00
   -8   12    1     -0.46      0.00
   -8   12    2     -1.18      0.00
   -8   12    3     -0.27      0.00
   -8   12    4      0.37      0.00
   -8   12    5      0.48      0.00
   -8   12    6      0.72      0.00
   -8   12    7      1.11      0.00
   -8   12    8     -0.14      0.00
   -8   13    1      0.77      0.00
   -8   13    2      0.36      0.00
   -8   13    3      0.79      0.00
   -8   13    4     -0.73      0.00
   -8   13    5      0.69      0.00
   -8   13    6     -0.40      0.00
   -7  -15    1     -0.26      0.00
   -7  -15    2     -0.77      0.00
   -7  -14    1      0.83      0.00
   -7  -14    2      1.68      0.00
   -7  -14    3     -1.77      0.00
   -7  -14    4     -1.84      0.00
   -7  -14    5     -3.20      0.00
   -7  -13    1      0.62      0.00
   -7  -13    2     -0.25      0.00
   -7  -13    3     -0.68      0.00
   -7  -13    4     -0.76      0.00
   -7  -13    5      0.79      0.00
   -7  -13    6     -1.08      0.00
   -7  -13    7      1.00      0.00
   -7  -12    1     -1.24      0.00
   -7  -12    2      0.05      0.00
   -7  -12    3     -1.09      0.00
   -7  -12    4     -0.70      0.00
   -7  -12    5     -1.63      0.00
   -7  -12    6      0.83      0.00
   -7  -12    7      0.72      0.00
   -7  -12    8     -0.42      0.00
   -7  -11    1      5.26      0.00
   -7  -11    2      1.13      0.00
   -7  -11    3     -0.27      0.00
   -7  -11    4     -3.25      0.00
   -7  -11    5      0.24      0.00
   -7  -11    6     -3.47      0.00
   -7  -11    7     -1.05      0.00
   -7  -11    8     -1.30      0.00
   -7  -10    1     -3.05      0.00
   -7  -10    2      0.24      0.00
   -7  -10    3      0.85      0.00
   -7  -10    4      2.19      0.00
   -7  -10    5     -0.04      0.00
   -7  -10    6      2.05      0.00
   -7  -10    7      3.13      0.00
   -7  -10    8      3.05      0.00
   -7  -10    9      1.52      0.00
   -7  -10   10     -0.65      0.00
   -7   -9    1      2.02      0.00
   -7   -9    2     -2.74      0.00
   -7   -9    3     -2.30      0.00
   -7   -9    4     -5.34      0.00
   -7   -9    5      0.17      0.00
   -7   -9    6     -1.75      0.00
   -7   -9    7     -0.95      0.00
   -7   -9    8     -1.71      0.00
   -7   -9    9     -0.15      0.00
   -7   -9   10      0.84      0.00
   -7   -9   11      0.10      0.00
   -7   -8    1     -2.00      0.00
   -7   -8    2      1.16      0.00
   -7   -8    3      1.09      0.00
   -7   -8    4      0.81      0.00
   -7   -8    5     -1.84      0.00
   -7   -8    6     -3.26      0.00
   -7   -8    7     -0.16      0.00
   -7   -8    8      0.17      0.00
   -7   -8    9      0.63      0.00
   -7   -8   10     -0.92      0.00
   -7   -8   11     -0.76      0.00
   -7   -8   12     -1.27      0.00
   -7   -7    1      1.66      0.00
   -7   -7    2     -1.46      0.00
   -7   -7    3     -0.69      0.00
   -7   -7    4     -2.04      0.00
   -7   -7    5      0.55      0.00
   -7   -7    6      2.13      0.00
   -7   -7    7      0.94      0.00
   -7   -7    8     -0.14      0.00
   -7   -7    9     -1.31      0.00
   -7   -7   10     -0.89      0.00
   -7   -7   11     -1.19      0.00
   -7   -7   12     -1.78      0.00
   -7   -7   13      0.16      0.00
   -7   -6    1      0.21      0.00
   -7   -6    2      3.06      0.00
   -7   -6    3      1.65      0.00
   -7   -6    4     -0.49      0.00
   -7   -6    5     -1.42      0.00
   -7   -6    6     -6.08      0.00
   -7   -6    7     -3.48      0.00
   -7   -6    8     -2.59      0.00
   -7   -6    9      0.16      0.00
   -7   -6   10     -1.65      0.00
   -7   -6   11      0.04      0.00
   -7   -6   12      0.27      0.00
   -7   -6   13      1.14      0.00
   -7   -5    1      1.50      0.00
   -7   -5    2     -1.85      0.00
   -7   -5    3     -2.29      0.00
   -7   -5    4     -2.82      0.00
   -7   -5    5     -4.05      0.00
   -7   -5    6      0.15      0.00
   -7   -5    7      0.56      0.00
   -7   -5    8     -0.37      0.00
   -7   -5    9      0.49      0.00
   -7   -5   10      1.45      0.00
   -7   -5   11      1.12      0.00
   -7   -5   12     -0.15      0.00
   -7   -5   13     -0.18      0.00
   -7   -4    1     -0.31      0.00
   -7   -4    2      3.25      0.00
   -7   -4    3      0.13      0.00
   -7   -4    4     -0.71      0.00
   -7   -4    5      0.96      0.00
   -7   -4    6     -3.04      0.00
   -7   -4    7     -1.09      0.00
   -7   -4    8      0.49      0.00
   -7   -4    9      0.11      0.00
   -7   -4   10     -1.07      0.00
   -7   -4   11      0.66      0.00
   -7   -4   12      0.02      0.00
   -7   -4   13      1.63      0.00
   -7   -4   14      1.97      0.00
   -7   -3    1      0.17      0.00
   -7   -3    2     -2.08      0.00
   -7   -3    3     -1.35      0.00
   -7   -3    4     -0.98      0.00
   -7   -3    5     -3.17      0.00
   -7   -3    6      0.59      0.00
   -7   -3    7      1.76      0.00
   -7   -3    8     -0.12      0.00
   -7   -3    9      4.28      0.00
   -7   -3   10      1.74      0.00
   -7   -3   11      1.29      0.00
   -7   -3   12      0.88      0.00
   -7   -3   13     -0.09      0.00
   -7   -3   14     -1.13      0.00
   -7   -2    1     -2.61      0.00
   -7   -2    2      0.26      0.00
   -7   -2    3     -2.63      0.00
   -7   -2    4     -2.01      0.00
   -7   -2    5      1.92      0.00
   -7   -2    6     -0.07      0.00
   -7   -2    7      1.87      0.00
   -7   -2    8      3.27      0.00
   -7   -2    9      0.59      0.00
   -7   -2   10      2.68      0.00
   -7   -2   11      2.61      0.00
   -7   -2   12      0.26      0.00
   -7   -2   13      0.29      0.00
   -7   -2   14      0.01      0.00
   -7   -1    1     -2.77      0.00
   -7   -1    2     -1.62      0.00
   -7   -1    3     -0.49      0.00
   -7   -1    4      1.39      0.00
   -7   -1    5     -0.90      0.00
   -7   -1    6      0.92      0.00
   -7   -1    7      2.83      0.00
   -7   -1    8     -0.13      0.00
   -7   -1    9      3.24      0.00
   -7   -1   10     -1.61      0.00
   -7   -1   11     -1.52      0.00
   -7   -1   12     -0.08      0.00
   -7   -1   13     -1.11      0.00
   -7   -1   14     -0.48      0.00
   -7   -1   15     -0.53      0.00
   -7    0    1     -2.46      0.00
   -7    0    2     -1.16      0.00
   -7    0    3     -0.94      0.00
   -7    0    4     -1.29      0.00
   -7    0    5      3.28      0.00
   -7    0    6      0.70      0.00
   -7    0    7     -0.26      0.00
   -7    0    8      0.45      0.00
   -7    0    9     -0.89      0.00
   -7    0   10      0.93      0.00
   -7    0   11      0.29      0.00
   -7    0   12     -1.67      0.00
   -7    0   13     -1.20      0.00
   -7    0   14     -1.32      0.00
   -7    0   15     -1.05      0.00
   -7    1    1     -2.51      0.00
   -7    1    2     -0.10      0.00
   -7    1    3      0.44      0.00
   -7    1    4      1.64      0.00
   -7    1    5     -0.14      0.00
   -7    1    6     -0.28      0.00
   -7    1    7      2.87      0.00
   -7    1    8     -1.05      0.00
   -7    1    9     -0.11      0.00
   -7    1   10     -0.70      0.00
   -7    1   11     -1.27      0.00
   -7    1   12      1.22      0.00
   -7    1   13     -0.51      0.00
   -7    1   14      0.74      0.00
   -7    1   15      0.27      0.00
   -7    2    1     -0.74      0.00
   -7    2    2      0.56      0.00
   -7    2    3      1.64      0.00
   -7    2    4      1.06      0.00
   -7    2    5      2.96      0.00
   -7    2    6      0.41      0.00
   -7    2    7     -1.82      0.00
   -7    2    8      0.11      0.00
   -7    2    9     -0.13      0.00
   -7    2   10     -1.00      0.00
   -7    2   11      0.21      0.00
   -7    2   12     -0.73      0.00
   -7    2   13     -0.15      0.00
   -7    2   14     -0.17      0.00
   -7    2   15     -0.49      0.00
   -7    3    1      0.17      0.00
   -7    3    2      0.54      0.00
   -7    3    3      2.68      0.00
   -7    3    4      1.21      0.00
   -7    3    5      2.95      0.00
   -7    3    6      0.92      0.00
   -7    3    7      2.71      0.00
   -7    3    8     -0.96      0.00
   -7    3    9     -0.33      0.00
   -7    3   10      2.10      0.00
   -7    3   11     -0.73      0.00
   -7    3   12      1.63      0.00
   -7    3   13      0.16      0.00
   -7    3   14      0.74      0.00
   -7    3   15      0.28      0.00
   -7    4    1      0.33      0.00
   -7    4    2      1.23      0.00
   -7    4    3      1.34      0.00
   -7    4    4      1.11      0.00
   -7    4    5     -0.63      0.00
   -7    4    6     -1.16      0.00
   -7    4    7     -1.73      0.00
   -7    4    8      0.10      0.00
   -7    4    9     -1.19      0.00
   -7    4   10     -1.71      0.00
   -7    4   11      0.50      0.00
   -7    4   12     -0.53      0.00
   -7    4   13     -0.88      0.00
   -7    4   14     -0.92      0.00
   -7    5    1      1.63      0.00
   -7    5    2      1.11      0.00
   -7    5    3      2.85      0.00
   -7    5    4      1.05      0.00
   -7    5    5      3.82      0.00
   -7    5    6      1.22      0.00
   -7    5    7      0.82      0.00
   -7    5    8     -0.03      0.00
   -7    5    9      0.81      0.00
   -7    5   10      2.24      0.00
   -7    5   11     -0.70      0.00
   -7    5   12      1.53      0.00
   -7    5   13      0.61      0.00
   -7    5   14      0.83      0.00
   -7    6    1      1.84      0.00
   -7    6    2      0.36      0.00
   -7    6    3      2.14      0.00
   -7    6    4      0.62      0.00
   -7    6    5      0.24      0.00
   -7    6    6      0.87      0.00
   -7    6    7      1.06      0.00
   -7    6    8      1.28      0.00
   -7    6    9      0.01      0.00
   -7    6   10      0.52      0.00
   -7    6   11      1.72      0.00
   -7    6   12      0.29      0.00
   -7    6   13      0.09      0.00
   -7    6   14     -0.33      0.00
   -7    7    1      0.29      0.00
   -7    7    2      0.48      0.00
   -7    7    3      0.27      0.00
   -7    7    4      0.64      0.00
   -7    7    5      0.23      0.00
   -7    7    6     -0.78      0.00
   -7    7    7     -1.33      0.00
   -7    7    8     -0.35      0.00
   -7    7    9     -0.74      0.00
   -7    7   10      0.61      0.00
   -7    7   11     -0.99      0.00
   -7    7   12      1.18      0.00
   -7    7   13      0.16      0.00
   -7    7   14      0.53      0.00
   -7    8    1      2.88      0.00
   -7    8    2      0.59      0.00
   -7    8    3      1.76      0.00
   -7    8    4     -0.43      0.00
   -7    8    5      0.66      0.00
   -7    8    6      0.93      0.00
   -7    8    7     -0.07      0.00
   -7    8    8      0.13      0.00
   -7    8    9      0.14      0.00
   -7    8   10     -0.43      0.00
   -7    8   11      0.61      0.00
   -7    8   12     -0.68      0.00
   -7    8   13      0.08      0.00
   -7    9    1      0.34      0.00
   -7    9    2     -0.90      0.00
   -7    9    3      0.35      0.00
   -7    9    4      0.65      0.00
   -7    9    5      0.13      0.00
   -7    9    6     -0.33      0.00
   -7    9    7     -0.07      0.00
   -7    9    8     -0.28      0.00
   -7    9    9     -1.27      0.00
   -7    9   10      0.59      0.00
   -7    9   11     -0.76      0.00
   -7    9   12      1.26      0.00
   -7    9   13      0.27      0.00
   -7   10    1     -0.37      0.00
   -7   10    2      0.23      0.00
   -7   10    3     -0.97      0.00
   -7   10    4     -0.79      0.00
   -7   10    5     -1.60      0.00
   -7   10    6     -0.06      0.00
   -7   10    7     -1.37      0.00
   -7   10    8      0.20      0.00
   -7   10    9      0.08      0.00
   -7   10   10     -0.67      0.00
   -7   10   11      0.58      0.00
   -7   10   12     -0.46      0.00
   -7   11    1      0.74      0.00
   -7   11    2     -1.30      0.00
   -7   11    3      0.41      0.00
   -7   11    4      0.05      0.00
   -7   11    5      1.34      0.00
   -7   11    6      0.05      0.00
   -7   11    7      0.63      0.00
   -7   11    8     -1.07      0.00
   -7   11    9     -0.63      0.00
   -7   11   10     -0.41      0.00
   -7   11   11     -1.23      0.00
   -7   11   12     -0.10      0.00
   -7   12    1      0.86      0.00
   -7   12    2      0.86      0.00
   -7   12    3      0.33      0.00
   -7   12    4      0.35      0.00
   -7   12    5     -0.89      0.00
   -7   12    6      0.46      0.00
   -7   12    7     -0.30      0.00
   -7   12    8      1.25      0.00
   -7   12    9     -0.38      0.00
   -7   12   10     -0.03      0.00
   -7   12   11     -0.08      0.00
   -7   13    1     -1.52      0.00
   -7   13    2      0.22      0.00
   -7   13    3     -0.47      0.00
   -7   13    4      0.62      0.00
   -7   13    5      0.69      0.00
   -7   13    6      0.52      0.00
   -7   13    7      0.74      0.00
   -7   13    8     -0.88      0.00
   -7   13    9      0.66      0.00
   -7   14    1      1.95      0.00
   -7   14    2     -0.95      0.00
   -7   14    3     -0.08      0.00
   -7   14    4     -0.90      0.00
   -7   14    5     -0.17      0.00
   -7   14    6     -0.55      0.00
   -7   14    7      0.11      0.00
   -6  -16    1      1.31      0.00
   -6  -16    2      0.46      0.00
   -6  -16    3      2.14      0.00
   -6  -15    1      2.11      0.00
   -6  -15    2     -0.48      0.00
   -6  -15    3     -0.04      0.00
   -6  -15    4     -2.53      0.00
   -6  -15    5     -1.52      0.00
   -6  -15    6     -0.16      0.00
   -6  -14    1     -3.07      0.00
   -6  -14    2     -0.77      0.00
   -6  -14    3     -0.96      0.00
   -6  -14    4     -0.58      0.00
   -6  -14    5     -1.62      0.00
   -6  -14    6     -2.08      0.00
   -6  -14    7      2.43      0.00
   -6  -13    1      6.03      0.00
   -6  -13    2      1.59      0.00
   -6  -13    3      1.08      0.00
   -6  -13    4      0.02      0.00
   -6  -13    5      0.69      0.00
   -6  -13    6      2.73      0.00
   -6  -13    7     -3.84      0.00
   -6  -13    8     -1.28      0.00
   -6  -13    9     -1.40      0.00
   -6  -12    1     -2.98      0.00
   -6  -12    2     -0.28      0.00
   -6  -12    3      0.60      0.00
   -6  -12    4     -2.69      0.00
   -6  -12    5     -5.03      0.00
   -6  -12    6     -7.85      0.00
   -6  -12    7     -1.52      0.00
   -6  -12    8     -1.75      0.00
   -6  -12    9     -0.58      0.00
   -6  -12   10     -0.56      0.00
   -6  -11    1      4.74      0.00
   -6  -11    2      1.81      0.00
   -6  -11    3     -3.39      0.00
   -6  -11    4      0.39      0.00
   -6  -11    5     -0.72      0.00
   -6  -11    6      6.03      0.00
   -6  -11    7     -0.39      0.00
   -6  -11    8      2.26      0.00
   -6  -11    9      0.09      0.00
   -6  -11   10      1.00      0.00
   -6  -11   11      1.64      0.00
   -6  -10    1     -4.21      0.00
   -6  -10    2     -1.18      0.00
   -6  -10    3      4.00      0.00
   -6  -10    4      1.84      0.00
   -6  -10    5      1.22      0.00
   -6  -10    6     -3.32      0.00
   -6  -10    7     -1.33      0.00
   -6  -10    8      0.49      0.00
   -6  -10    9      0.43      0.00
   -6  -10   10      0.56      0.00
   -6  -10   11     -0.79      0.00
   -6  -10   12      0.21      0.00
   -6   -9    1      8.89      0.00
   -6   -9    2      5.43      0.00
   -6   -9    3     -2.12      0.00
   -6   -9    4     -2.90      0.00
   -6   -9    5     -5.80      0.00
   -6   -9    6     -0.91      0.00
   -6   -9    7     -0.95      0.00
   -6   -9    8     -1.36      0.00
   -6   -9    9     -0.22      0.00
   -6   -9   10     -0.13      0.00
   -6   -9   11     -1.24      0.00
   -6   -9   12     -1.48      0.00
   -6   -9   13     -0.87      0.00
   -6   -8    1    -10.15      0.00
   -6   -8    2     -5.02      0.00
   -6   -8    3     -0.22      0.00
   -6   -8    4      4.90      0.00
   -6   -8    5      3.80      0.00
   -6   -8    6      4.43      0.00
   -6   -8    7     -0.27      0.00
   -6   -8    8      4.85      0.00
   -6   -8   10      2.69      0.00
   -6   -8   11      1.81      0.00
   -6   -8   12      0.12      0.00
   -6   -8   13     -0.17      0.00
   -6   -7    1      8.74      0.00
   -6   -7    2      5.25      0.00
   -6   -7    3      2.30      0.00
   -6   -7    4     -3.04      0.00
   -6   -7    5     -2.51      0.00
   -6   -7    6     -5.47      0.00
   -6   -7    7     -0.55      0.00
   -6   -7    8     -3.90      0.00
   -6   -7    9     -1.42      0.00
   -6   -7   10     -2.18      0.00
   -6   -7   11     -4.10      0.00
   -6   -7   12      0.84      0.00
   -6   -7   13     -2.01      0.00
   -6   -7   14      0.21      0.00
   -6   -6    1     -6.34      0.00
   -6   -6    2     -3.17      0.00
   -6   -6    3     -1.68      0.00
   -6   -6    4      0.05      0.00
   -6   -6    5     -4.81      0.00
   -6   -6    6      0.23      0.00
   -6   -6    7     -5.32      0.00
   -6   -6    8      1.15      0.00
   -6   -6    9      0.18      0.00
   -6   -6   10      2.45      0.00
   -6   -6   11      2.02      0.00
   -6   -6   12     -2.85      0.00
   -6   -6   13     -0.89      0.00
   -6   -6   14     -1.77      0.00
   -6   -5    1      7.24      0.00
   -6   -5    2      4.37      0.00
   -6   -5    3      2.24      0.00
   -6   -5    4      1.64      0.00
   -6   -5    5      3.99      0.00
   -6   -5    6     -2.13      0.00
   -6   -5    7      0.88      0.00
   -6   -5    8     -1.88      0.00
   -6   -5    9     -4.55      0.00
   -6   -5   10     -2.51      0.00
   -6   -5   11     -5.37      0.00
   -6   -5   12      1.07      0.00
   -6   -5   13     -1.41      0.00
   -6   -5   14      2.35      0.00
   -6   -5   15      1.88      0.00
   -6   -4    1     -1.43      0.00
   -6   -4    2     -0.50      0.00
   -6   -4    3      2.95      0.00
   -6   -4    4     -3.91      0.00
   -6   -4    5     -7.16      0.00
   -6   -4    6     -4.18      0.00
   -6   -4    7     -5.54      0.00
   -6   -4    8     -2.02      0.00
   -6   -4    9      2.44      0.00
   -6   -4   10      0.75      0.00
   -6   -4   11      3.66      0.00
   -6   -4   12      1.26      0.00
   -6   -4   13      1.42      0.00
   -6   -4   14     -0.20      0.00
   -6   -4   15     -1.36      0.00
   -6   -3    1      7.18      0.00
   -6   -3    2      0.21      0.00
   -6   -3    3     -4.27      0.00
   -6   -3    4     -2.16      0.00
   -6   -3    5     -1.45      0.00
   -6   -3    6     -2.74      0.00
   -6   -3    7     -1.47      0.00
   -6   -3    8      2.63      0.00
   -6   -3    9     -1.54      0.00
   -6   -3   10      5.89      0.00
   -6   -3   11     -0.73      0.00
   -6   -3   12     -0.13      0.00
   -6   -3   13      0.10      0.00
   -6   -3   14     -0.09      0.00
   -6   -3   15      1.58      0.00
   -6   -3   16     -0.66      0.00
   -6   -2    1     -6.52      0.00
   -6   -2    2     -2.14      0.00
   -6   -2    3      2.14      0.00
   -6   -2    4     -1.31      0.00
   -6   -2    5     -0.54      0.00
   -6   -2    6      0.94      0.00
   -6   -2    7      1.17      0.00
   -6   -2    8     -1.65      0.00
   -6   -2    9      0.93      0.00
   -6   -2   10     -5.53      0.00
   -6   -2   11     -0.23      0.00
   -6   -2   12      0.53      0.00
   -6   -2   13     -1.65      0.00
   -6   -2   14     -0.20      0.00
   -6   -2   15     -1.31      0.00
   -6   -2   16      0.40      0.00
   -6   -1    1      9.50      0.00
   -6   -1    2     -1.99      0.00
   -6   -1    3     -2.48      0.00
   -6   -1    4     -4.75      0.00
   -6   -1    5     -4.42      0.00
   -6   -1    6     -4.67      0.00
   -6   -1    7     -4.06      0.00
   -6   -1    8      4.11      0.00
   -6   -1    9      2.22      0.00
   -6   -1   10      9.39      0.00
   -6   -1   11      4.26      0.00
   -6   -1   12      1.80      0.00
   -6   -1   13      4.57      0.00
   -6   -1   14      0.14      0.00
   -6   -1   15      1.24      0.00
   -6   -1   16     -0.84      0.00
   -6    0    1    -11.90      0.00
   -6    0    2     -4.78      0.00
   -6    0    3     -3.72      0.00
   -6    0    4     -0.57      0.00
   -6    0    5      1.17      0.00
   -6    0    6      5.49      0.00
   -6    0    7      5.31      0.00
   -6    0    8      1.31      0.00
   -6    0    9      1.60      0.00
   -6    0   10     -2.72      0.00
   -6    0   11     -2.34      0.00
   -6    0   12     -2.37      0.00
   -6    0   13     -5.02      0.00
   -6    0   14     -2.89      0.00
   -6    0   15     -1.90      0.00
   -6    0   16     -1.99      0.00
   -6    1    1      7.00      0.00
   -6    1    2     -1.06      0.00
   -6    1    3      1.69      0.00
   -6    1    4      1.26      0.00
   -6    1    5      0.07      0.00
   -6    1    6     -0.90      0.00
   -6    1    7     -2.77      0.00
   -6    1    8      1.45      0.00
   -6    1    9     -1.42      0.00
   -6    1   10     -0.49      0.00
   -6    1   11      2.65      0.00
   -6    1   12      0.16      0.00
   -6    1   13      4.36      0.00
   -6    1   14      1.25      0.00
   -6    1   15      1.86      0.00
   -6    1   16      2.41      0.00
   -6    2    1     -5.87      0.00
   -6    2    2     -2.91      0.00
   -6    2    3     -2.02      0.00
   -6    2    4     -3.00      0.00
   -6    2    5     -0.75      0.00
   -6    2    6      0.32      0.00
   -6    2    7      0.41      0.00
   -6    2    8     -0.41      0.00
   -6    2    9      2.10      0.00
   -6    2   10      2.81      0.00
   -6    2   11     -1.70      0.00
   -6    2   12     -0.18      0.00
   -6    2   13     -1.88      0.00
   -6    2   14     -1.84      0.00
   -6    2   15     -1.33      0.00
   -6    2   16     -3.09      0.00
   -6    3    1     -0.58      0.00
   -6    3    2     -0.98      0.00
   -6    3    3     -0.66      0.00
   -6    3    4      5.42      0.00
   -6    3    5      1.58      0.00
   -6    3    6      5.53      0.00
   -6    3    7      2.04      0.00
   -6    3    8      2.28      0.00
   -6    3    9     -1.95      0.00
   -6    3   10     -4.15      0.00
   -6    3   11      1.98      0.00
   -6    3   12     -2.63      0.00
   -6    3   13      1.00      0.00
   -6    3   14     -0.09      0.00
   -6    3   15      1.68      0.00
   -6    3   16      2.05      0.00
   -6    4    1      0.15      0.00
   -6    4    2      0.84      0.00
   -6    4    3      2.66      0.00
   -6    4    4     -0.08      0.00
   -6    4    5      1.26      0.00
   -6    4    6     -2.23      0.00
   -6    4    7     -1.95      0.00
   -6    4    8     -1.36      0.00
   -6    4    9      2.59      0.00
   -6    4   10      3.38      0.00
   -6    4   11      1.24      0.00
   -6    4   12      4.12      0.00
   -6    4   13      2.86      0.00
   -6    4   14      1.59      0.00
   -6    4   15     -0.47      0.00
   -6    4   16     -0.43      0.00
   -6    5    1      0.32      0.00
   -6    5    2     -0.10      0.00
   -6    5    3     -0.83      0.00
   -6    5    4      2.07      0.00
   -6    5    5      0.71      0.00
   -6    5    6      4.38      0.00
   -6    5    7      2.98      0.00
   -6    5    8      2.76      0.00
   -6    5    9      0.03      0.00
   -6    5   10     -0.27      0.00
   -6    5   11      1.27      0.00
   -6    5   12     -2.58      0.00
   -6    5   13     -1.35      0.00
   -6    5   14     -2.17      0.00
   -6    5   15     -0.18      0.00
   -6    5   16     -2.11      0.00
   -6    6    1     -3.83      0.00
   -6    6    2      1.26      0.00
   -6    6    3      0.61      0.00
   -6    6    4      3.18      0.00
   -6    6    5     -0.33      0.00
   -6    6    6     -0.28      0.00
   -6    6    7     -1.91      0.00
   -6    6    8     -2.45      0.00
   -6    6    9      0.34      0.00
   -6    6   10     -1.65      0.00
   -6    6   11      0.32      0.00
   -6    6   12      0.40      0.00
   -6    6   13      0.86      0.00
   -6    6   14      0.10      0.00
   -6    6   15     -1.15      0.00
   -6    7    1      5.99      0.00
   -6    7    2      1.47      0.00
   -6    7    3      1.57      0.00
   -6    7    4     -0.07      0.00
   -6    7    5      2.60      0.00
   -6    7    6      0.26      0.00
   -6    7    7      1.40      0.00
   -6    7    8      2.14      0.00
   -6    7    9      1.07      0.00
   -6    7   10      2.89      0.00
   -6    7   11      1.69      0.00
   -6    7   12      1.62      0.00
   -6    7   13      0.45      0.00
   -6    7   14      0.06      0.00
   -6    7   15      0.01      0.00
   -6    8    1     -4.85      0.00
   -6    8    2      2.11      0.00
   -6    8    3      0.58      0.00
   -6    8    4      2.50      0.00
   -6    8    5     -1.87      0.00
   -6    8    6      1.13      0.00
   -6    8    7      0.39      0.00
   -6    8    8     -1.40      0.00
   -6    8    9      0.88      0.00
   -6    8   10     -1.67      0.00
   -6    8   11      0.06      0.00
   -6    8   12     -1.75      0.00
   -6    8   13     -0.57      0.00
   -6    8   14     -1.09      0.00
   -6    8   15     -0.42      0.00
   -6    9    1      3.03      0.00
   -6    9    2     -0.69      0.00
   -6    9    3     -1.57      0.00
   -6    9    4     -0.52      0.00
   -6    9    5      1.08      0.00
   -6    9    6     -1.26      0.00
   -6    9    7     -2.31      0.00
   -6    9    8     -0.45      0.00
   -6    9    9     -1.61      0.00
   -6    9   10     -0.28      0.00
   -6    9   11     -0.36      0.00
   -6    9   12      0.23      0.00
   -6    9   13      0.16      0.00
   -6    9   14      0.61      0.00
   -6   10    1     -1.61      0.00
   -6   10    2      2.68      0.00
   -6   10    3      2.44      0.00
   -6   10    4      0.86      0.00
   -6   10    5     -0.89      0.00
   -6   10    6     -0.79      0.00
   -6   10    7      2.13      0.00
   -6   10    8     -0.40      0.00
   -6   10    9      1.63      0.00
   -6   10   10      0.59      0.00
   -6   10   11      0.27      0.00
   -6   10   12      0.07      0.00
   -6   10   13     -0.84      0.00
   -6   10   14     -0.80      0.00
   -6   11    1      1.69      0.00
   -6   11    2     -0.20      0.00
   -6   11    3     -1.40      0.00
   -6   11    4      0.18      0.00
   -6   11    5      1.20      0.00
   -6   11    6      1.89      0.00
   -6   11    7     -1.22      0.00
   -6   11    8      0.99      0.00
   -6   11    9     -0.56      0.00
   -6   11   10     -1.08      0.00
   -6   11   11     -0.57      0.00
   -6   11   12     -2.11      0.00
   -6   11   13      0.01      0.00
   -6   12    1     -3.09      0.00
   -6   12    2      0.34      0.00
   -6   12    3      0.45      0.00
   -6   12    4      0.23      0.00
   -6   12    5     -1.71      0.00
   -6   12    6     -2.53      0.00
   -6   12    7      0.02      0.00
   -6   12    8     -1.56      0.00
   -6   12    9     -0.24      0.00
   -6   12   10      0.21      0.00
   -6   12   11     -0.53      0.00
   -6   12   12      1.21      0.00
   -6   13    1      2.14      0.00
   -6   13    2      0.04      0.00
   -6   13    3     -0.46      0.00
   -6   13    4     -0.47      0.00
   -6   13    5      1.25      0.00
   -6   13    6      2.04      0.00
   -6   13    7      1.11      0.00
   -6   13    8      2.25      0.00
   -6   13    9      1.21      0.00
   -6   13   10      0.05      0.00
   -6   13   11      0.27      0.00
   -6   14    1     -0.14      0.00
   -6   14    2      2.01      0.00
   -6   14    3      1.43      0.00
   -6   14    4      1.02      0.00
   -6   14    5     -0.29      0.00
   -6   14    6     -0.55      0.00
   -6   14    7     -0.70      0.00
   -6   14    8     -0.70      0.00
   -6   14    9     -0.52      0.00
   -6   14   10     -0.04      0.00
   -6   15    1      0.47      0.00
   -6   15    2     -0.63      0.00
   -6   15    3     -0.46      0.00
   -6   15    4      0.35      0.00
   -6   15    5     -0.55      0.00
   -6   15    6      0.40      0.00
   -6   15    7      0.23      0.00
   -6   15    8      0.55      0.00
   -5  -17    1     -0.65      0.00
   -5  -17    2     -2.22      0.00
   -5  -17    3      0.17      0.00
   -5  -16    1      2.06      0.00
   -5  -16    2      4.24      0.00
   -5  -16    3      0.68      0.00
   -5  -16    4      0.62      0.00
   -5  -16    5      0.61      0.00
   -5  -16    6      0.30      0.00
   -5  -15    1     -1.58      0.00
   -5  -15    2     -0.34      0.00
   -5  -15    3      0.66      0.00
   -5  -15    4      0.58      0.00
   -5  -15    5     -1.94      0.00
   -5  -15    6      0.14      0.00
   -5  -15    7      1.61      0.00
   -5  -15    8      0.27      0.00
   -5  -14    1      3.53      0.00
   -5  -14    2      0.64      0.00
   -5  -14    3     -1.13      0.00
   -5  -14    4      0.43      0.00
   -5  -14    5      1.12      0.00
   -5  -14    6     -2.30      0.00
   -5  -14    7     -2.93      0.00
   -5  -14    8     -1.29      0.00
   -5  -14    9      0.10      0.00
   -5  -13    1     -1.92      0.00
   -5  -13    2      2.46      0.00
   -5  -13    3      2.90      0.00
   -5  -13    4     -2.51      0.00
   -5  -13    5     -2.59      0.00
   -5  -13    6     -0.53      0.00
   -5  -13    7      1.77      0.00
   -5  -13    8     -0.68      0.00
   -5  -13    9      0.17      0.00
   -5  -13   10      0.05      0.00
   -5  -12    1     -0.06      0.00
   -5  -12    2     -4.14      0.00
   -5  -12    3     -4.09      0.00
   -5  -12    4      2.48      0.00
   -5  -12    5      1.01      0.00
   -5  -12    6     -1.44      0.00
   -5  -12    7     -2.30      0.00
   -5  -12    8     -0.73      0.00
   -5  -12    9      0.23      0.00
   -5  -12   10     -0.10      0.00
   -5  -12   11     -0.82      0.00
   -5  -11    1      0.39      0.00
   -5  -11    2      3.56      0.00
   -5  -11    3      3.88      0.00
   -5  -11    4     -4.37      0.00
   -5  -11    5     -1.15      0.00
   -5  -11    6     -2.70      0.00
   -5  -11    7      0.63      0.00
   -5  -11    8     -3.05      0.00
   -5  -11    9     -2.18      0.00
   -5  -11   10     -3.55      0.00
   -5  -11   11     -0.89      0.00
   -5  -11   12     -1.64      0.00
   -5  -10    1     -0.51      0.00
   -5  -10    2     -4.59      0.00
   -5  -10    3     -2.36      0.00
   -5  -10    4      2.07      0.00
   -5  -10    5      1.58      0.00
   -5  -10    6      0.25      0.00
   -5  -10    7     -1.23      0.00
   -5  -10    8     -1.08      0.00
   -5  -10    9      1.19      0.00
   -5  -10   10      0.95      0.00
   -5  -10   11     -0.01      0.00
   -5  -10   12      0.51      0.00
   -5  -10   13      0.64      0.00
   -5   -9    1     -0.11      0.00
   -5   -9    2      4.69      0.00
   -5   -9    3      3.62      0.00
   -5   -9    4      1.37      0.00
   -5   -9    5      0.19      0.00
   -5   -9    6     -0.42      0.00
   -5   -9    7      1.06      0.00
   -5   -9    8      0.37      0.00
   -5   -9    9     -0.20      0.00
   -5   -9   10     -0.74      0.00
   -5   -9   11      1.29      0.00
   -5   -9   12     -1.56      0.00
   -5   -9   13      0.70      0.00
   -5   -9   14      0.81      0.00
   -5   -8    1     -0.02      0.00
   -5   -8    2     -6.74      0.00
   -5   -8    3     -2.92      0.00
   -5   -8    4     -3.49      0.00
   -5   -8    5      2.07      0.00
   -5   -8    6     -1.98      0.00
   -5   -8    7     -0.11      0.00
   -5   -8    8     -3.80      0.00
   -5   -8    9      0.27      0.00
   -5   -8   10     -1.55      0.00
   -5   -8   11      0.48      0.00
   -5   -8   12      0.78      0.00
   -5   -8   13     -1.29      0.00
   -5   -8   14     -3.01      0.00
   -5   -7    1      0.02      0.00
   -5   -7    2      7.75      0.00
   -5   -7    3      5.41      0.00
   -5   -7    4      5.72      0.00
   -5   -7    5     -1.21      0.00
   -5   -7    6      2.00      0.00
   -5   -7    7     -1.77      0.00
   -5   -7    8      2.11      0.00
   -5   -7    9      0.86      0.00
   -5   -7   10      1.32      0.00
   -5   -7   11      0.38      0.00
   -5   -7   12     -2.82      0.00
   -5   -7   13      1.98      0.00
   -5   -7   14      0.90      0.00
   -5   -7   15      1.51      0.00
   -5   -6    1     -1.21      0.00
   -5   -6    2     -7.23      0.00
   -5   -6    3     -4.15      0.00
   -5   -6    4     -1.68      0.00
   -5   -6    5      2.39      0.00
   -5   -6    6     -2.27      0.00
   -5   -6    7      1.61      0.00
   -5   -6    8     -2.90      0.00
   -5   -6    9      0.38      0.00
   -5   -6   10     -0.78      0.00
   -5   -6   11      2.79      0.00
   -5   -6   12      2.36      0.00
   -5   -6   13     -0.70      0.00
   -5   -6   14     -0.85      0.00
   -5   -6   15     -0.12      0.00
   -5   -5    1      0.46      0.00
   -5   -5    2      8.09      0.00
   -5   -5    3      4.51      0.00
   -5   -5    4      1.14      0.00
   -5   -5    5     -2.36      0.00
   -5   -5    6      0.25      0.00
   -5   -5    7     -3.68      0.00
   -5   -5    8     -1.62      0.00
   -5   -5    9     -0.49      0.00
   -5   -5   10     -1.96      0.00
   -5   -5   11     -0.87      0.00
   -5   -5   12     -3.84      0.00
   -5   -5   13      0.36      0.00
   -5   -5   14     -1.56      0.00
   -5   -5   15     -0.06      0.00
   -5   -5   16      0.66      0.00
   -5   -4    1      1.10      0.00
   -5   -4    2     -4.65      0.00
   -5   -4    3     -2.54      0.00
   -5   -4    4      1.90      0.00
   -5   -4    5     -1.98      0.00
   -5   -4    6     -3.61      0.00
   -5   -4    7     -2.97      0.00
   -5   -4    8     -1.62      0.00
   -5   -4    9     -1.71      0.00
   -5   -4   10      0.18      0.00
   -5   -4   11     -0.90      0.00
   -5   -4   12      0.72      0.00
   -5   -4   13     -0.68      0.00
   -5   -4   14      0.31      0.00
   -5   -4   15     -0.11      0.00
   -5   -4   16     -0.43      0.00
   -5   -3    1      0.18      0.00
   -5   -3    2      8.96      0.00
   -5   -3    3      0.97      0.00
   -5   -3    4     -0.64      0.00
   -5   -3    5     -0.35      0.00
   -5   -3    6      0.99      0.00
   -5   -3    7      0.60      0.00
   -5   -3    8     -3.07      0.00
   -5   -3    9      1.77      0.00
   -5   -3   10     -1.64      0.00
   -5   -3   11      4.04      0.00
   -5   -3   12     -0.28      0.00
   -5   -3   13      0.89      0.00
   -5   -3   14      1.23      0.00
   -5   -3   15      1.91      0.00
   -5   -3   16      2.22      0.00
   -5   -3   17     -0.90      0.00
   -5   -2    1      3.76      0.00
   -5   -2    2     -5.04      0.00
   -5   -2    3      0.24      0.00
   -5   -2    4      0.78      0.00
   -5   -2    5     -3.13      0.00
   -5   -2    6     -3.92      0.00
   -5   -2    7     -4.26      0.00
   -5   -2    8      0.80      0.00
   -5   -2    9     -2.09      0.00
   -5   -2   10      1.34      0.00
   -5   -2   11     -2.53      0.00
   -5   -2   12      1.49      0.00
   -5   -2   13      0.79      0.00
   -5   -2   14     -0.49      0.00
   -5   -2   15     -1.77      0.00
   -5   -2   16     -0.61      0.00
   -5   -2   17      0.30      0.00
   -5   -1    1     -3.05      0.00
   -5   -1    2      6.83      0.00
   -5   -1    3     -5.09      0.00
   -5   -1    4     -2.86      0.00
   -5   -1    5     -3.12      0.00
   -5   -1    6     -0.96      0.00
   -5   -1    7      0.29      0.00
   -5   -1    8     -3.37      0.00
   -5   -1    9      3.54      0.00
   -5   -1   10     -0.12      0.00
   -5   -1   11      3.27      0.00
   -5   -1   12     -0.12      0.00
   -5   -1   13     -1.69      0.00
   -5   -1   14      1.88      0.00
   -5   -1   15      0.61      0.00
   -5   -1   16      0.28      0.00
   -5   -1   17     -0.15      0.00
   -5    0    1     -0.77      0.00
   -5    0    2     -8.89      0.00
   -5    0    3     -1.53      0.00
   -5    0    4     -0.70      0.00
   -5    0    5     -1.34      0.00
   -5    0    6     -0.97      0.00
   -5    0    7     -0.61      0.00
   -5    0    8      1.54      0.00
   -5    0    9     -2.31      0.00
   -5    0   10      1.38      0.00
   -5    0   11      0.53      0.00
   -5    0   12      2.12      0.00
   -5    0   13      1.82      0.00
   -5    0   14     -0.34      0.00
   -5    0   15     -0.28      0.00
   -5    0   16      1.24      0.00
   -5    0   17     -0.91      0.00
   -5    1    1      0.03      0.00
   -5    1    2      6.85      0.00
   -5    1    3     -2.08      0.00
   -5    1    4     -2.19      0.00
   -5    1    5     -0.73      0.00
   -5    1    6     -2.78      0.00
   -5    1    7     -0.08      0.00
   -5    1    8     -2.12      0.00
   -5    1    9      3.62      0.00
   -5    1   10     -0.11      0.00
   -5    1   11     -1.24      0.00
   -5    1   12      1.17      0.00
   -5    1   13     -1.97      0.00
   -5    1   14      2.07      0.00
   -5    1   15     -0.99      0.00
   -5    1   16     -0.17      0.00
   -5    1   17      1.26      0.00
   -5    2    1     -7.94      0.00
   -5    2    2    -11.21      0.00
   -5    2    3     -5.89      0.00
   -5    2    4     -2.26      0.00
   -5    2    5     -2.72      0.00
   -5    2    6      1.25      0.00
   -5    2    7      0.43      0.00
   -5    2    8      1.14      0.00
   -5    2    9     -1.18      0.00
   -5    2   10      2.64      0.00
   -5    2   11      3.24      0.00
   -5    2   12      0.11      0.00
   -5    2   13      0.51      0.00
   -5    2   14     -0.58      0.00
   -5    2   15      0.39      0.00
   -5    2   16      0.05      0.00
   -5    2   17     -1.38      0.00
   -5    3    1      2.58      0.00
   -5    3    2      6.37      0.00
   -5    3    3      2.52      0.00
   -5    3    4      1.27      0.00
   -5    3    5      3.60      0.00
   -5    3    6     -1.62      0.00
   -5    3    7      1.76      0.00
   -5    3    8     -0.56      0.00
   -5    3    9      2.14      0.00
   -5    3   10     -0.97      0.00
   -5    3   11     -2.34      0.00
   -5    3   12      3.02      0.00
   -5    3   13     -0.19      0.00
   -5    3   14      2.19      0.00
   -5    3   15      0.21      0.00
   -5    3   16      1.95      0.00
   -5    3   17      1.65      0.00
   -5    4    1     -2.93      0.00
   -5    4    2     -5.43      0.00
   -5    4    3     -2.93      0.00
   -5    4    4     -2.85      0.00
   -5    4    5     -2.25      0.00
   -5    4    6     -0.76      0.00
   -5    4    7     -0.84      0.00
   -5    4    8     -0.64      0.00
   -5    4    9     -0.90      0.00
   -5    4   10      2.77      0.00
   -5    4   11      2.26      0.00
   -5    4   12     -0.19      0.00
   -5    4   13     -0.15      0.00
   -5    4   14     -0.12      0.00
   -5    4   15     -0.95      0.00
   -5    4   16     -1.85      0.00
   -5    4   17     -0.98      0.00
   -5    5    1     -5.46      0.00
   -5    5    2     -0.41      0.00
   -5    5    3     -0.27      0.00
   -5    5    4      1.44      0.00
   -5    5    5      3.01      0.00
   -5    5    6      2.55      0.00
   -5    5    7      3.49      0.00
   -5    5    8      3.67      0.00
   -5    5    9      4.51      0.00
   -5    5   10      1.34      0.00
   -5    5   11      0.72      0.00
   -5    5   12      2.14      0.00
   -5    5   13      0.49      0.00
   -5    5   14      0.48      0.00
   -5    5   15      1.15      0.00
   -5    5   16      1.40      0.00
   -5    5   17      0.20      0.00
   -5    6    1      5.23      0.00
   -5    6    2      1.25      0.00
   -5    6    3      2.23      0.00
   -5    6    4      0.54      0.00
   -5    6    5      0.85      0.00
   -5    6    6     -2.23      0.00
   -5    6    7     -0.24      0.00
   -5    6    8     -2.51      0.00
   -5    6    9     -2.89      0.00
   -5    6   10      1.47      0.00
   -5    6   11      0.49      0.00
   -5    6   12      1.58      0.00
   -5    6   13      0.34      0.00
   -5    6   14      0.89      0.00
   -5    6   15     -1.29      0.00
   -5    6   16     -1.23      0.00
   -5    7    1     -4.71      0.00
   -5    7    2     -0.30      0.00
   -5    7    3     -0.26      0.00
   -5    7    4     -1.16      0.00
   -5    7    5      1.04      0.00
   -5    7    6      2.93      0.00
   -5    7    7      1.55      0.00
   -5    7    8      4.05      0.00
   -5    7    9      5.02      0.00
   -5    7   10      1.16      0.00
   -5    7   11      1.00      0.00
   -5    7   12     -0.60      0.00
   -5    7   13     -0.56      0.00
   -5    7   14     -1.33      0.00
   -5    7   15      0.18      0.00
   -5    7   16     -0.33      0.00
   -5    8    1     -2.03      0.00
   -5    8    2     -5.15      0.00
   -5    8    3     -0.51      0.00
   -5    8    4      1.92      0.00
   -5    8    5      1.12      0.00
   -5    8    6     -1.41      0.00
   -5    8    7      0.29      0.00
   -5    8    8     -1.85      0.00
   -5    8    9     -3.59      0.00
   -5    8   10      0.25      0.00
   -5    8   11     -0.84      0.00
   -5    8   12      0.96      0.00
   -5    8   13     -0.01      0.00
   -5    8   14      0.34      0.00
   -5    8   15     -0.61      0.00
   -5    8   16     -0.58      0.00
   -5    9    1      5.44      0.00
   -5    9    2      8.89      0.00
   -5    9    3      3.88      0.00
   -5    9    4      0.15      0.00
   -5    9    5      0.87      0.00
   -5    9    6      1.90      0.00
   -5    9    7     -0.06      0.00
   -5    9    8      0.33      0.00
   -5    9    9      2.22      0.00
   -5    9   10      0.19      0.00
   -5    9   11      0.77      0.00
   -5    9   12     -0.44      0.00
   -5    9   13     -0.32      0.00
   -5    9   14     -0.49      0.00
   -5    9   15      0.23      0.00
   -5    9   16     -0.03      0.00
   -5   10    1     -6.48      0.00
   -5   10    2    -10.84      0.00
   -5   10    3     -2.15      0.00
   -5   10    4      0.26      0.00
   -5   10    5      0.92      0.00
   -5   10    6     -1.21      0.00
   -5   10    7      0.25      0.00
   -5   10    8      1.65      0.00
   -5   10    9     -0.91      0.00
   -5   10   10      0.34      0.00
   -5   10   11     -0.77      0.00
   -5   10   12      0.21      0.00
   -5   10   13     -0.03      0.00
   -5   10   14     -0.22      0.00
   -5   10   15     -0.13      0.00
   -5   11    1      2.05      0.00
   -5   11    2      7.02      0.00
   -5   11    3      1.56      0.00
   -5   11    4      0.08      0.00
   -5   11    5     -0.65      0.00
   -5   11    6      1.09      0.00
   -5   11    7     -0.69      0.00
   -5   11    8     -3.07      0.00
   -5   11    9     -0.27      0.00
   -5   11   10     -0.17      0.00
   -5   11   11      0.24      0.00
   -5   11   12     -0.33      0.00
   -5   11   13     -0.58      0.00
   -5   11   14      0.03      0.00
   -5   12    1      1.35      0.00
   -5   12    2     -3.38      0.00
   -5   12    3      1.39      0.00
   -5   12    4      1.71      0.00
   -5   12    5      1.35      0.00
   -5   12    6     -0.67      0.00
   -5   12    7      0.43      0.00
   -5   12    8      3.44      0.00
   -5   12    9      0.99      0.00
   -5   12   10      1.09      0.00
   -5   12   11      0.40      0.00
   -5   12   12      0.56      0.00
   -5   12   13      0.33      0.00
   -5   12   14     -0.84      0.00
   -5   13    1     -0.72      0.00
   -5   13    2      1.71      0.00
   -5   13    3      0.52      0.00
   -5   13    4     -1.00      0.00
   -5   13    5      0.36      0.00
   -5   13    6      0.54      0.00
   -5   13    7      0.39      0.00
   -5   13    8     -2.11      0.00
   -5   13    9     -0.27      0.00
   -5   13   10     -0.47      0.00
   -5   13   11     -1.12      0.00
   -5   13   12     -1.05      0.00
   -5   13   13     -1.54      0.00
   -5   14    1      1.26      0.00
   -5   14    2      0.32      0.00
   -5   14    3      1.46      0.00
   -5   14    4      1.80      0.00
   -5   14    5     -0.57      0.00
   -5   14    6     -0.82      0.00
   -5   14    7     -1.19      0.00
   -5   14    8      0.66      0.00
   -5   14    9      0.27      0.00
   -5   14   10      0.85      0.00
   -5   14   11      1.32      0.00
   -5   15    1      1.60      0.00
   -5   15    2      0.61      0.00
   -5   15    3     -0.87      0.00
   -5   15    4     -1.87      0.00
   -5   15    5      0.01      0.00
   -5   15    6     -0.50      0.00
   -5   15    7      1.23      0.00
   -5   15    8      0.37      0.00
   -5   15    9      0.43      0.00
   -5   15   10      0.70      0.00
   -5   16    1      1.87      0.00
   -5   16    2      1.44      0.00
   -5   16    3      3.62      0.00
   -5   16    4      1.95      0.00
   -5   16    5      1.27      0.00
   -5   16    6      0.16      0.00
   -5   16    7     -1.08      0.00
   -4  -18    1     -1.49      0.00
   -4  -18    2      0.46      0.00
   -4  -17    1      2.11      0.00
   -4  -17    2     -2.53      0.00
   -4  -17    3     -5.78      0.00
   -4  -17    4      0.82      0.00
   -4  -17    5     -0.66      0.00
   -4  -16    1     -5.11      0.00
   -4  -16    2      2.11      0.00
   -4  -16    3      6.76      0.00
   -4  -16    4     -1.19      0.00
   -4  -16    5      0.45      0.00
   -4  -16    6     -0.49      0.00
   -4  -16    7      0.31      0.00
   -4  -15    1      7.11      0.00
   -4  -15    2     -0.43      0.00
   -4  -15    3     -3.47      0.00
   -4  -15    4      2.74      0.00
   -4  -15    5      0.00      0.00
   -4  -15    6     -2.82      0.00
   -4  -15    7     -1.38      0.00
   -4  -15    8      0.28      0.00
   -4  -15    9      0.69      0.00
   -4  -14    1     -1.69      0.00
   -4  -14    2      4.63      0.00
   -4  -14    3      4.36      0.00
   -4  -14    4     -1.28      0.00
   -4  -14    5      0.08      0.00
   -4  -14    6      3.10      0.00
   -4  -14    7     -1.95      0.00
   -4  -14    8     -0.55      0.00
   -4  -14    9     -1.93      0.00
   -4  -14   10      1.50      0.00
   -4  -13    1      1.40      0.00
   -4  -13    2     -1.72      0.00
   -4  -13    3     -0.14      0.00
   -4  -13    4      2.96      0.00
   -4  -13    5     -1.40      0.00
   -4  -13    6     -4.63      0.00
   -4  -13    7      0.53      0.00
   -4  -13    8     -0.32      0.00
   -4  -13    9      2.21      0.00
   -4  -13   10      0.11      0.00
   -4  -13   11      0.11      0.00
   -4  -12    1      1.07      0.00
   -4  -12    2      2.97      0.00
   -4  -12    3     -1.73      0.00
   -4  -12    4     -2.34      0.00
   -4  -12    5      0.89      0.00
   -4  -12    6      4.09      0.00
   -4  -12    7     -1.64      0.00
   -4  -12    8      1.22      0.00
   -4  -12    9     -2.66      0.00
   -4  -12   10      0.27      0.00
   -4  -12   11     -0.66      0.00
   -4  -12   12     -0.61      0.00
   -4  -11    1     -1.44      0.00
   -4  -11    2     -1.46      0.00
   -4  -11    3      2.08      0.00
   -4  -11    4      3.89      0.00
   -4  -11    5     -0.33      0.00
   -4  -11    6     -0.44      0.00
   -4  -11    7      1.12      0.00
   -4  -11    8      1.09      0.00
   -4  -11    9      2.01      0.00
   -4  -11   10      1.22      0.00
   -4  -11   11     -0.40      0.00
   -4  -11   12      1.64      0.00
   -4  -11   13     -1.14      0.00
   -4  -10    1     -2.77      0.00
   -4  -10    2     -1.26      0.00
   -4  -10    3     -5.63      0.00
   -4  -10    4     -4.81      0.00
   -4  -10    5     -2.65      0.00
   -4  -10    6     -0.34      0.00
   -4  -10    7     -2.11      0.00
   -4  -10    8     -1.69      0.00
   -4  -10    9     -4.37      0.00
   -4  -10   10     -2.24      0.00
   -4  -10   11     -2.73      0.00
   -4  -10   12     -2.74      0.00
   -4  -10   13     -1.07      0.00
   -4  -10   14      0.04      0.00
   -4   -9    1      0.96      0.00
   -4   -9    2     -1.10      0.00
   -4   -9    3      1.71      0.00
   -4   -9    4      4.27      0.00
   -4   -9    5      3.94      0.00
   -4   -9    6      2.92      0.00
   -4   -9    7      2.22      0.00
   -4   -9    8      2.70      0.00
   -4   -9    9      1.84      0.00
   -4   -9   10      1.40      0.00
   -4   -9   11     -0.27      0.00
   -4   -9   12      1.35      0.00
   -4   -9   13     -1.33      0.00
   -4   -9   14     -0.17      0.00
   -4   -9   15      0.00      0.00
   -4   -8    1     -0.62      0.00
   -4   -8    2      2.18      0.00
   -4   -8    3     -1.41      0.00
   -4   -8    4     -1.33      0.00
   -4   -8    5     -1.30      0.00
   -4   -8    6      1.38      0.00
   -4   -8    7     -0.40      0.00
   -4   -8    8     -1.05      0.00
   -4   -8    9     -3.12      0.00
   -4   -8   10     -1.12      0.00
   -4   -8   11     -2.04      0.00
   -4   -8   12      1.19      0.00
   -4   -8   13      0.43      0.00
   -4   -8   14      2.10      0.00
   -4   -8   15     -0.85      0.00
   -4   -7    1     -0.06      0.00
   -4   -7    2     -2.66      0.00
   -4   -7    3      1.43      0.00
   -4   -7    4      1.36      0.00
   -4   -7    5      1.68      0.00
   -4   -7    6     -2.01      0.00
   -4   -7    7     -0.82      0.00
   -4   -7    8     -1.15      0.00
   -4   -7    9     -0.59      0.00
   -4   -7   10      1.33      0.00
   -4   -7   11      0.16      0.00
   -4   -7   12      0.14      0.00
   -4   -7   13     -1.54      0.00
   -4   -7   14     -0.29      0.00
   -4   -7   15      0.13      0.00
   -4   -7   16      0.01      0.00
   -4   -6    1     -0.77      0.00
   -4   -6    2      0.83      0.00
   -4   -6    3     -4.24      0.00
   -4   -6    4     -2.25      0.00
   -4   -6    5      0.84      0.00
   -4   -6    6      2.05      0.00
   -4   -6    7      1.57      0.00
   -4   -6    8      0.44      0.00
   -4   -6    9     -0.22      0.00
   -4   -6   10     -1.16      0.00
   -4   -6   11     -1.17      0.00
   -4   -6   12      1.84      0.00
   -4   -6   13      0.50      0.00
   -4   -6   14      0.91      0.00
   -4   -6   15     -0.63      0.00
   -4   -6   16      0.29      0.00
   -4   -5    1      0.11      0.00
   -4   -5    2     -0.70      0.00
   -4   -5    3      7.16      0.00
   -4   -5    4      2.17      0.00
   -4   -5    5      1.16      0.00
   -4   -5    6     -1.97      0.00
   -4   -5    7     -0.53      0.00
   -4   -5    8     -0.13      0.00
   -4   -5    9     -1.08      0.00
   -4   -5   10      3.57      0.00
   -4   -5   11      0.82      0.00
   -4   -5   12      2.03      0.00
   -4   -5   13     -0.78      0.00
   -4   -5   14      1.34      0.00
   -4   -5   15     -0.21      0.00
   -4   -5   16      1.19      0.00
   -4   -5   17      1.00      0.00
   -4   -4    1     -1.46      0.00
   -4   -4    2      0.61      0.00
   -4   -4    3     -6.95      0.00
   -4   -4    4     -2.56      0.00
   -4   -4    5      1.46      0.00
   -4   -4    6      0.07      0.00
   -4   -4    7      0.60      0.00
   -4   -4    8     -2.17      0.00
   -4   -4    9      0.12      0.00
   -4   -4   10     -3.08      0.00
   -4   -4   11     -1.91      0.00
   -4   -4   12     -1.17      0.00
   -4   -4   13      0.23      0.00
   -4   -4   14     -0.48      0.00
   -4   -4   15      1.19      0.00
   -4   -4   16     -0.60      0.00
   -4   -4   17     -0.25      0.00
   -4   -3    1      2.51      0.00
   -4   -3    2     -0.68      0.00
   -4   -3    3      8.62      0.00
   -4   -3    4     -0.79      0.00
   -4   -3    5     -0.26      0.00
   -4   -3    6     -2.96      0.00
   -4   -3    7     -0.23      0.00
   -4   -3    8      0.63      0.00
   -4   -3    9     -2.57      0.00
   -4   -3   10      2.39      0.00
   -4   -3   11      0.01      0.00
   -4   -3   12      1.21      0.00
   -4   -3   13     -1.61      0.00
   -4   -3   14     -0.39      0.00
   -4   -3   15     -1.22      0.00
   -4   -3   16      1.17      0.00
   -4   -3   17      0.80      0.00
   -4   -2    1     -0.80      0.00
   -4   -2    2      2.18      0.00
   -4   -2    3     -6.55      0.00
   -4   -2    4     -0.96      0.00
   -4   -2    5      1.38      0.00
   -4   -2    6      0.18      0.00
   -4   -2    7     -0.34      0.00
   -4   -2    8     -1.73      0.00
   -4   -2    9      1.12      0.00
   -4   -2   10     -2.49      0.00
   -4   -2   11     -1.31      0.00
   -4   -2   12     -0.47      0.00
   -4   -2   13      1.68      0.00
   -4   -2   14      1.04      0.00
   -4   -2   15      2.31      0.00
   -4   -2   16      0.25      0.00
   -4   -2   17      2.07      0.00
   -4   -1    1      4.11      0.00
   -4   -1    2      0.67      0.00
   -4   -1    3      8.35      0.00
   -4   -1    4     -1.54      0.00
   -4   -1    5     -0.50      0.00
   -4   -1    6     -1.50      0.00
   -4   -1    7      0.30      0.00
   -4   -1    8      0.40      0.00
   -4   -1    9     -2.72      0.00
   -4   -1   10      2.87      0.00
   -4   -1   11      0.63      0.00
   -4   -1   12      0.20      0.00
   -4   -1   13      0.13      0.00
   -4   -1   14     -0.45      0.00
   -4   -1   15      1.52      0.00
   -4   -1   16      0.89      0.00
   -4   -1   17     -0.23      0.00
   -4   -1   18     -0.63      0.00
   -4    0    1      0.22      0.00
   -4    0    2     -1.17      0.00
   -4    0    3     -7.64      0.00
   -4    0    4     -2.53      0.00
   -4    0    5     -0.04      0.00
   -4    0    6     -2.10      0.00
   -4    0    7     -1.12      0.00
   -4    0    8     -1.18      0.00
   -4    0    9      0.31      0.00
   -4    0   10     -3.93      0.00
   -4    0   11     -0.06      0.00
   -4    0   12      0.69      0.00
   -4    0   13      1.64      0.00
   -4    0   14      0.46      0.00
   -4    0   15      0.09      0.00
   -4    0   16      0.47      0.00
   -4    0   17      1.75      0.00
   -4    0   18      0.86      0.00
   -4    1    1      0.70      0.00
   -4    1    2      1.50      0.00
   -4    1    3      5.98      0.00
   -4    1    4     -1.52      0.00
   -4    1    5     -1.35      0.00
   -4    1    6      0.52      0.00
   -4    1    7     -1.28      0.00
   -4    1    8      0.28      0.00
   -4    1    9     -1.62      0.00
   -4    1   10      4.54      0.00
   -4    1   11      0.25      0.00
   -4    1   12     -0.22      0.00
   -4    1   13      1.18      0.00
   -4    1   14      0.16      0.00
   -4    1   15      2.67      0.00
   -4    1   16     -0.11      0.00
   -4    1   17      0.36      0.00
   -4    1   18      0.00      0.00
   -4    2    1     -0.06      0.00
   -4    2    2     -4.48      0.00
   -4    2    3     -7.41      0.00
   -4    2    4     -2.39      0.00
   -4    2    5     -1.32      0.00
   -4    2    6     -2.00      0.00
   -4    2    7     -1.15      0.00
   -4    2    8     -1.12      0.00
   -4    2    9     -1.18      0.00
   -4    2   10     -4.20      0.00
   -4    2   11      1.32      0.00
   -4    2   12      0.83      0.00
   -4    2   13      1.45      0.00
   -4    2   14     -0.21      0.00
   -4    2   15      0.02      0.00
   -4    2   16      1.02      0.00
   -4    2   17      0.56      0.00
   -4    2   18      0.43      0.00
   -4    3    1     -0.72      0.00
   -4    3    2     -0.47      0.00
   -4    3    3      2.52      0.00
   -4    3    4     -2.75      0.00
   -4    3    5     -1.40      0.00
   -4    3    6     -1.47      0.00
   -4    3    7     -2.19      0.00
   -4    3    8     -0.26      0.00
   -4    3    9     -0.26      0.00
   -4    3   10      4.10      0.00
   -4    3   11      0.68      0.00
   -4    3   12      0.46      0.00
   -4    3   13      1.28      0.00
   -4    3   14      0.31      0.00
   -4    3   15      0.91      0.00
   -4    3   16     -0.38      0.00
   -4    3   17      0.43      0.00
   -4    3   18     -0.16      0.00
   -4    4    1     -2.97      0.00
   -4    4    2     -2.45      0.00
   -4    4    3     -3.81      0.00
   -4    4    4     -0.24      0.00
   -4    4    5     -1.66      0.00
   -4    4    6      1.03      0.00
   -4    4    7     -1.43      0.00
   -4    4    8      0.43      0.00
   -4    4    9     -1.04      0.00
   -4    4   10     -2.14      0.00
   -4    4   11      0.93      0.00
   -4    4   12      0.46      0.00
   -4    4   13      0.48      0.00
   -4    4   14     -0.35      0.00
   -4    4   15      0.36      0.00
   -4    4   16      0.02      0.00
   -4    4   17     -0.01      0.00
   -4    4   18      0.47      0.00
   -4    5    1      2.87      0.00
   -4    5    2     -1.93      0.00
   -4    5    3      0.36      0.00
   -4    5    4     -1.55      0.00
   -4    5    5     -1.03      0.00
   -4    5    6     -2.02      0.00
   -4    5    7     -0.76      0.00
   -4    5    8     -0.09      0.00
   -4    5    9      1.86      0.00
   -4    5   10      4.88      0.00
   -4    5   11      2.94      0.00
   -4    5   12      1.56      0.00
   -4    5   13      1.75      0.00
   -4    5   14     -0.12      0.00
   -4    5   15     -0.20      0.00
   -4    5   16      0.22      0.00
   -4    5   17     -0.19      0.00
   -4    5   18     -0.71      0.00
   -4    6    1     -3.74      0.00
   -4    6    2      0.05      0.00
   -4    6    3     -1.45      0.00
   -4    6    4     -1.27      0.00
   -4    6    5     -0.64      0.00
   -4    6    6      0.71      0.00
   -4    6    7     -0.44      0.00
   -4    6    8      2.16      0.00
   -4    6    9      0.08      0.00
   -4    6   10     -1.35      0.00
   -4    6   11      0.64      0.00
   -4    6   12      0.67      0.00
   -4    6   13     -0.38      0.00
   -4    6   14      0.41      0.00
   -4    6   15     -0.33      0.00
   -4    6   16     -0.80      0.00
   -4    6   17     -0.50      0.00
   -4    7    1      1.05      0.00
   -4    7    2     -1.98      0.00
   -4    7    3      1.43      0.00
   -4    7    4      1.96      0.00
   -4    7    5     -0.50      0.00
   -4    7    6      0.78      0.00
   -4    7    7      0.01      0.00
   -4    7    8     -0.12      0.00
   -4    7    9      1.62      0.00
   -4    7   10      3.86      0.00
   -4    7   11      0.80      0.00
   -4    7   12     -0.17      0.00
   -4    7   13      0.10      0.00
   -4    7   14     -1.46      0.00
   -4    7   15     -0.17      0.00
   -4    7   16      0.60      0.00
   -4    7   17      0.41      0.00
   -4    8    1      0.54      0.00
   -4    8    2      0.89      0.00
   -4    8    3     -2.65      0.00
   -4    8    4     -2.31      0.00
   -4    8    5      1.08      0.00
   -4    8    6     -0.02      0.00
   -4    8    7      1.03      0.00
   -4    8    8      2.46      0.00
   -4    8    9      1.57      0.00
   -4    8   10     -0.15      0.00
   -4    8   11      2.43      0.00
   -4    8   12      1.36      0.00
   -4    8   13      0.86      0.00
   -4    8   14      1.33      0.00
   -4    8   15     -0.12      0.00
   -4    8   16     -0.33      0.00
   -4    8   17     -0.63      0.00
   -4    9    1     -4.79      0.00
   -4    9    2     -3.44      0.00
   -4    9    3      1.77      0.00
   -4    9    4      1.22      0.00
   -4    9    5     -1.36      0.00
   -4    9    6      1.19      0.00
   -4    9    7      1.49      0.00
   -4    9    8      1.02      0.00
   -4    9    9      0.75      0.00
   -4    9   10      1.80      0.00
   -4    9   11     -1.07      0.00
   -4    9   12     -0.31      0.00
   -4    9   13     -1.25      0.00
   -4    9   14     -0.72      0.00
   -4    9   15      0.02      0.00
   -4    9   16      1.12      0.00
   -4   10    1      0.71      0.00
   -4   10    2      0.75      0.00
   -4   10    3     -2.08      0.00
   -4   10    4      0.29      0.00
   -4   10    5      3.92      0.00
   -4   10    6      0.77      0.00
   -4   10    7     -0.81      0.00
   -4   10    8     -0.67      0.00
   -4   10    9      0.18      0.00
   -4   10   10     -1.17      0.00
   -4   10   11      0.27      0.00
   -4   10   12     -1.07      0.00
   -4   10   13      0.92      0.00
   -4   10   14      0.01      0.00
   -4   10   15      0.28      0.00
   -4   10   16     -0.50      0.00
   -4   11    1     -2.33      0.00
   -4   11    2     -1.92      0.00
   -4   11    3      1.09      0.00
   -4   11    4      0.07      0.00
   -4   11    5     -2.20      0.00
   -4   11    6      1.34      0.00
   -4   11    7      3.52      0.00
   -4   11    8      2.57      0.00
   -4   11    9      0.98      0.00
   -4   11   10      1.20      0.00
   -4   11   11      0.74      0.00
   -4   11   12      0.62      0.00
   -4   11   13     -1.57      0.00
   -4   11   14     -0.37      0.00
   -4   11   15     -1.08      0.00
   -4   12    1     -4.09      0.00
   -4   12    2     -0.78      0.00
   -4   12    3     -1.06      0.00
   -4   12    4      0.95      0.00
   -4   12    5      3.76      0.00
   -4   12    6     -0.22      0.00
   -4   12    7     -2.11      0.00
   -4   12    8     -1.59      0.00
   -4   12    9     -0.40      0.00
   -4   12   10     -0.83      0.00
   -4   12   11     -1.15      0.00
   -4   12   12     -0.71      0.00
   -4   12   13      1.64      0.00
   -4   12   14      0.73      0.00
   -4   12   15      1.31      0.00
   -4   13    1      1.64      0.00
   -4   13    2      0.21      0.00
   -4   13    3      1.97      0.00
   -4   13    4      0.62      0.00
   -4   13    5     -1.04      0.00
   -4   13    6      1.04      0.00
   -4   13    7      1.59      0.00
   -4   13    8      0.67      0.00
   -4   13    9      0.39      0.00
   -4   13   10      0.31      0.00
   -4   13   11      1.88      0.00
   -4   13   12      0.25      0.00
   -4   13   13     -0.66      0.00
   -4   13   14     -0.66      0.00
   -4   14    1     -1.11      0.00
   -4   14    2      2.39      0.00
   -4   14    3     -0.19      0.00
   -4   14    4      2.04      0.00
   -4   14    5      1.63      0.00
   -4   14    6      0.31      0.00
   -4   14    7     -0.56      0.00
   -4   14    8     -0.31      0.00
   -4   14    9     -0.22      0.00
   -4   14   10     -0.47      0.00
   -4   14   11     -1.12      0.00
   -4   14   12     -0.58      0.00
   -4   14   13      0.31      0.00
   -4   15    1      1.66      0.00
   -4   15    2      0.60      0.00
   -4   15    3      3.80      0.00
   -4   15    4      0.64      0.00
   -4   15    5      0.34      0.00
   -4   15    6     -0.50      0.00
   -4   15    7     -0.78      0.00
   -4   15    8     -0.46      0.00
   -4   15    9     -0.59      0.00
   -4   15   10     -0.31      0.00
   -4   15   11      0.73      0.00
   -4   16    1     -0.08      0.00
   -4   16    2      1.68      0.00
   -4   16    3     -2.04      0.00
   -4   16    4      0.65      0.00
   -4   16    5     -0.54      0.00
   -4   16    6      0.19      0.00
   -4   16    7     -0.45      0.00
   -4   16    8     -0.97      0.00
   -4   16    9      0.45      0.00
   -4   17    1      1.52      0.00
   -4   17    2      1.06      0.00
   -4   17    3      2.72      0.00
   -4   17    4      0.84      0.00
   -4   17    5      0.09      0.00
   -4   17    6     -0.07      0.00
   -4   17    7     -0.17      0.00
   -3  -18    1     -1.21      0.00
   -3  -18    2     -2.05      0.00
   -3  -18    3     -0.64      0.00
   -3  -18    4      2.13      0.00
   -3  -17    1     -1.48      0.00
   -3  -17    2      1.47      0.00
   -3  -17    3     -0.48      0.00
   -3  -17    4     -2.76      0.00
   -3  -17    5      1.04      0.00
   -3  -17    6      0.58      0.00
   -3  -16    1      1.51      0.00
   -3  -16    2     -3.29      0.00
   -3  -16    3      2.05      0.00
   -3  -16    4      4.02      0.00
   -3  -16    5     -0.21      0.00
   -3  -16    6     -1.97      0.00
   -3  -16    7      0.50      0.00
   -3  -16    8     -0.24      0.00
   -3  -15    1     -0.55      0.00
   -3  -15    2      4.05      0.00
   -3  -15    3     -2.02      0.00
   -3  -15    4     -2.17      0.00
   -3  -15    5      1.23      0.00
   -3  -15    6      2.95      0.00
   -3  -15    7     -3.55      0.00
   -3  -15    8     -1.69      0.00
   -3  -15    9     -1.93      0.00
   -3  -14    1      3.04      0.00
   -3  -14    2     -2.09      0.00
   -3  -14    3      6.29      0.00
   -3  -14    4      3.16      0.00
   -3  -14    5      0.48      0.00
   -3  -14    6     -3.61      0.00
   -3  -14    7      1.61      0.00
   -3  -14    8     -2.20      0.00
   -3  -14    9     -0.78      0.00
   -3  -14   10     -0.64      0.00
   -3  -14   11      0.86      0.00
   -3  -13    1      2.05      0.00
   -3  -13    2      3.66      0.00
   -3  -13    3     -1.76      0.00
   -3  -13    4     -0.21      0.00
   -3  -13    5      1.89      0.00
   -3  -13    6      1.70      0.00
   -3  -13    7     -2.15      0.00
   -3  -13    8      0.07      0.00
   -3  -13    9      0.38      0.00
   -3  -13   10      0.12      0.00
   -3  -13   11      0.96      0.00
   -3  -13   12     -0.15      0.00
   -3  -12    1      0.94      0.00
   -3  -12    2     -0.70      0.00
   -3  -12    3      3.37      0.00
   -3  -12    4      0.78      0.00
   -3  -12    5     -1.17      0.00
   -3  -12    6     -1.34      0.00
   -3  -12    7      0.05      0.00
   -3  -12    8     -1.77      0.00
   -3  -12    9     -1.03      0.00
   -3  -12   10     -0.48      0.00
   -3  -12   11      0.15      0.00
   -3  -12   12      1.30      0.00
   -3  -12   13      0.30      0.00
   -3  -11    1      2.68      0.00
   -3  -11    2      0.08      0.00
   -3  -11    3      0.17      0.00
   -3  -11    4     -1.24      0.00
   -3  -11    5      3.75      0.00
   -3  -11    6      1.12      0.00
   -3  -11    7      2.71      0.00
   -3  -11    8      1.48      0.00
   -3  -11    9      3.06      0.00
   -3  -11   10      1.29      0.00
   -3  -11   11      1.82      0.00
   -3  -11   12     -1.27      0.00
   -3  -11   13      0.78      0.00
   -3  -11   14     -1.03      0.00
   -3  -10    1     -0.17      0.00
   -3  -10    2     -0.34      0.00
   -3  -10    3      0.87      0.00
   -3  -10    4      1.63      0.00
   -3  -10    5     -1.40      0.00
   -3  -10    6      0.78      0.00
   -3  -10    7      1.27      0.00
   -3  -10    8      1.28      0.00
   -3  -10    9      0.26      0.00
   -3  -10   10     -2.02      0.00
   -3  -10   11     -0.36      0.00
   -3  -10   12     -1.25      0.00
   -3  -10   13     -0.34      0.00
   -3  -10   14     -0.15      0.00
   -3   -9    1      2.97      0.00
   -3   -9    2      1.17      0.00
   -3   -9    3     -0.97      0.00
   -3   -9    4     -2.11      0.00
   -3   -9    5      1.89      0.00
   -3   -9    6      0.55      0.00
   -3   -9    7     -1.22      0.00
   -3   -9    8     -1.65      0.00
   -3   -9    9     -0.56      0.00
   -3   -9   10      0.45      0.00
   -3   -9   11      0.54      0.00
   -3   -9   12      0.22      0.00
   -3   -9   13      1.74      0.00
   -3   -9   14     -0.06      0.00
   -3   -9   15     -0.91      0.00
   -3   -8    1      0.75      0.00
   -3   -8    2     -3.15      0.00
   -3   -8    3      0.90      0.00
   -3   -8    4     -1.61      0.00
   -3   -8    5     -2.89      0.00
   -3   -8    6     -0.73      0.00
   -3   -8    7      2.31      0.00
   -3   -8    8      1.46      0.00
   -3   -8    9      0.83      0.00
   -3   -8   10     -2.31      0.00
   -3   -8   11     -0.13      0.00
   -3   -8   12     -2.58      0.00
   -3   -8   13     -0.01      0.00
   -3   -8   14     -1.48      0.00
   -3   -8   15      2.13      0.00
   -3   -8   16      0.08      0.00
   -3   -7    1      2.46      0.00
   -3   -7    2      2.81      0.00
   -3   -7    3     -1.54      0.00
   -3   -7    4      2.89      0.00
   -3   -7    5      2.62      0.00
   -3   -7    6      2.77      0.00
   -3   -7    7     -1.04      0.00
   -3   -7    8      0.87      0.00
   -3   -7    9      0.67      0.00
   -3   -7   10      0.62      0.00
   -3   -7   11      2.34      0.00
   -3   -7   12      0.78      0.00
   -3   -7   13      2.86      0.00
   -3   -7   14      1.14      0.00
   -3   -7   15      0.76      0.00
   -3   -7   16      0.25      0.00
   -3   -6    1     -0.52      0.00
   -3   -6    2     -1.92      0.00
   -3   -6    3      1.13      0.00
   -3   -6    4     -3.52      0.00
   -3   -6    5     -3.82      0.00
   -3   -6    6      0.33      0.00
   -3   -6    7     -0.92      0.00
   -3   -6    8     -0.45      0.00
   -3   -6    9     -2.02      0.00
   -3   -6   10     -0.87      0.00
   -3   -6   11     -1.45      0.00
   -3   -6   12     -0.89      0.00
   -3   -6   13      0.51      0.00
   -3   -6   14     -0.48      0.00
   -3   -6   15      1.75      0.00
   -3   -6   16      0.34      0.00
   -3   -6   17      0.03      0.00
   -3   -5    1      5.14      0.00
   -3   -5    2      0.23      0.00
   -3   -5    3     -1.23      0.00
   -3   -5    4      3.65      0.00
   -3   -5    5      0.17      0.00
   -3   -5    6     -0.44      0.00
   -3   -5    7     -1.53      0.00
   -3   -5    8      0.31      0.00
   -3   -5    9      1.03      0.00
   -3   -5   10     -1.69      0.00
   -3   -5   11      3.15      0.00
   -3   -5   12     -0.45      0.00
   -3   -5   13      1.73      0.00
   -3   -5   14     -0.99      0.00
   -3   -5   15     -0.85      0.00
   -3   -5   16     -1.49      0.00
   -3   -5   17     -0.34      0.00
   -3   -4    1     -6.49      0.00
   -3   -4    2     -3.72      0.00
   -3   -4    3     -2.11      0.00
   -3   -4    4     -5.32      0.00
   -3   -4    5     -4.24      0.00
   -3   -4    6      2.39      0.00
   -3   -4    7     -0.54      0.00
   -3   -4    8      2.21      0.00
   -3   -4    9     -0.22      0.00
   -3   -4   10      2.36      0.00
   -3   -4   11     -1.73      0.00
   -3   -4   12     -1.18      0.00
   -3   -4   13      0.27      0.00
   -3   -4   14      1.02      0.00
   -3   -4   15      2.24      0.00
   -3   -4   16      2.17      0.00
   -3   -4   17      1.53      0.00
   -3   -3    1      3.12      0.00
   -3   -3    2      0.27      0.00
   -3   -3    3     -0.92      0.00
   -3   -3    4      6.17      0.00
   -3   -3    5      0.40      0.00
   -3   -3    6      1.31      0.00
   -3   -3    7     -0.98      0.00
   -3   -3    8      0.64      0.00
   -3   -3    9      0.39      0.00
   -3   -3   10     -2.48      0.00
   -3   -3   11      2.88      0.00
   -3   -3   12      0.70      0.00
   -3   -3   13     -0.06      0.00
   -3   -3   14     -1.38      0.00
   -3   -3   15     -0.81      0.00
   -3   -3   16     -0.20      0.00
   -3   -3   17      0.66      0.00
   -3   -3   18      1.40      0.00
   -3   -2    1      2.02      0.00
   -3   -2    2     -3.62      0.00
   -3   -2    3      0.37      0.00
   -3   -2    4     -6.68      0.00
   -3   -2    5     -3.77      0.00
   -3   -2    6      0.22      0.00
   -3   -2    7     -0.76      0.00
   -3   -2    8      0.81      0.00
   -3   -2    9      0.03      0.00
   -3   -2   10      0.85      0.00
   -3   -2   11     -3.80      0.00
   -3   -2   12     -3.34      0.00
   -3   -2   13     -0.25      0.00
   -3   -2   14      0.73      0.00
   -3   -2   15      0.13      0.00
   -3   -2   16      1.11      0.00
   -3   -2   17      0.32      0.00
   -3   -2   18      0.14      0.00
   -3   -1    1     -1.91      0.00
   -3   -1    2      4.03      0.00
   -3   -1    3     -0.93      0.00
   -3   -1    4      7.68      0.00
   -3   -1    5     -0.78      0.00
   -3   -1    6      1.76      0.00
   -3   -1    7     -0.42      0.00
   -3   -1    8      0.76      0.00
   -3   -1    9     -0.42      0.00
   -3   -1   10     -2.12      0.00
   -3   -1   11      3.12      0.00
   -3   -1   12      0.95      0.00
   -3   -1   13     -0.92      0.00
   -3   -1   14     -0.03      0.00
   -3   -1   15      1.12      0.00
   -3   -1   16      1.35      0.00
   -3   -1   17      1.27      0.00
   -3   -1   18      1.15      0.00
   -3    0    1      6.02      0.00
   -3    0    2     -5.81      0.00
   -3    0    3     -0.73      0.00
   -3    0    4     -6.00      0.00
   -3    0    5     -0.90      0.00
   -3    0    6      1.03      0.00
   -3    0    7     -0.28      0.00
   -3    0    8      0.41      0.00
   -3    0    9      1.16      0.00
   -3    0   10      0.33      0.00
   -3    0   11     -4.00      0.00
   -3    0   12     -1.35      0.00
   -3    0   13     -0.09      0.00
   -3    0   14      1.02      0.00
   -3    0   15     -0.74      0.00
   -3    0   16      1.91      0.00
   -3    0   17      1.43      0.00
   -3    0   18      1.76      0.00
   -3    1    1      0.59      0.00
   -3    1    2      7.02      0.00
   -3    1    3      2.99      0.00
   -3    1    4      5.75      0.00
   -3    1    5     -1.91      0.00
   -3    1    6     -0.74      0.00
   -3    1    7     -0.35      0.00
   -3    1    8     -1.64      0.00
   -3    1    9     -1.83      0.00
   -3    1   10     -2.64      0.00
   -3    1   11      3.02      0.00
   -3    1   12      0.41      0.00
   -3    1   13      1.03      0.00
   -3    1   14      1.83      0.00
   -3    1   15      2.28      0.00
   -3    1   16      1.25      0.00
   -3    1   17      0.63      0.00
   -3    1   18      0.61      0.00
   -3    2    1      3.80      0.00
   -3    2    2     -3.18      0.00
   -3    2    3     -2.47      0.00
   -3    2    4     -1.27      0.00
   -3    2    5      0.55      0.00
   -3    2    6      1.25      0.00
   -3    2    7     -0.51      0.00
   -3    2    8     -0.36      0.00
   -3    2    9      1.01      0.00
   -3    2   10     -0.04      0.00
   -3    2   11     -2.71      0.00
   -3    2   12      0.30      0.00
   -3    2   13     -0.78      0.00
   -3    2   14      0.78      0.00
   -3    2   15     -0.53      0.00
   -3    2   16      1.52      0.00
   -3    2   17      1.11      0.00
   -3    2   18      0.59      0.00
   -3    3    1     -0.83      0.00
   -3    3    2      2.06      0.00
   -3    3    3      2.04      0.00
   -3    3    4      0.27      0.00
   -3    3    5     -0.89      0.00
   -3    3    6     -1.37      0.00
   -3    3    7     -0.06      0.00
   -3    3    8     -2.02      0.00
   -3    3    9     -0.61      0.00
   -3    3   10     -1.60      0.00
   -3    3   11      2.64      0.00
   -3    3   12      0.56      0.00
   -3    3   13      1.61      0.00
   -3    3   14      1.14      0.00
   -3    3   15      0.89      0.00
   -3    3   16      0.73      0.00
   -3    3   17      0.49      0.00
   -3    3   18      1.18      0.00
   -3    4    1      3.46      0.00
   -3    4    2      0.55      0.00
   -3    4    3     -2.15      0.00
   -3    4    4      1.45      0.00
   -3    4    5     -2.23      0.00
   -3    4    6     -1.10      0.00
   -3    4    7     -1.58      0.00
   -3    4    8     -2.18      0.00
   -3    4    9     -0.65      0.00
   -3    4   10     -0.69      0.00
   -3    4   11     -1.04      0.00
   -3    4   12      0.92      0.00
   -3    4   13      0.25      0.00
   -3    4   14      1.02      0.00
   -3    4   15      0.19      0.00
   -3    4   16      0.13      0.00
   -3    4   17     -0.25      0.00
   -3    4   18     -0.93      0.00
   -3    5    1     -3.18      0.00
   -3    5    2      0.05      0.00
   -3    5    3     -0.11      0.00
   -3    5    4     -1.64      0.00
   -3    5    5      0.67      0.00
   -3    5    6     -1.79      0.00
   -3    5    7     -0.81      0.00
   -3    5    8     -1.98      0.00
   -3    5    9      0.56      0.00
   -3    5   10     -0.47      0.00
   -3    5   11      2.15      0.00
   -3    5   12     -0.25      0.00
   -3    5   13      0.00      0.00
   -3    5   14     -0.77      0.00
   -3    5   15     -0.80      0.00
   -3    5   16     -0.41      0.00
   -3    5   17      0.04      0.00
   -3    5   18      0.40      0.00
   -3    6    1     -0.87      0.00
   -3    6    2     -1.87      0.00
   -3    6    3     -2.59      0.00
   -3    6    4     -0.35      0.00
   -3    6    5     -3.86      0.00
   -3    6    6     -1.36      0.00
   -3    6    7     -1.17      0.00
   -3    6    8     -1.13      0.00
   -3    6    9     -0.02      0.00
   -3    6   10      0.39      0.00
   -3    6   11      0.38      0.00
   -3    6   12      2.41      0.00
   -3    6   13      1.30      0.00
   -3    6   14      1.16      0.00
   -3    6   15      0.46      0.00
   -3    6   16      0.24      0.00
   -3    6   17     -0.77      0.00
   -3    6   18     -0.73      0.00
   -3    7    1      0.69      0.00
   -3    7    2      2.31      0.00
   -3    7    3     -1.27      0.00
   -3    7    4      0.38      0.00
   -3    7    5      0.52      0.00
   -3    7    6     -1.28      0.00
   -3    7    7      0.15      0.00
   -3    7    8     -0.01      0.00
   -3    7    9      2.68      0.00
   -3    7   10      1.88      0.00
   -3    7   11      3.91      0.00
   -3    7   12     -0.09      0.00
   -3    7   13      0.97      0.00
   -3    7   14     -0.73      0.00
   -3    7   15     -0.69      0.00
   -3    7   16     -1.39      0.00
   -3    7   17      0.03      0.00
   -3    7   18     -0.30      0.00
   -3    8    1     -0.98      0.00
   -3    8    2      0.62      0.00
   -3    8    3      1.54      0.00
   -3    8    4     -0.11      0.00
   -3    8    5     -1.58      0.00
   -3    8    6      0.55      0.00
   -3    8    7     -0.89      0.00
   -3    8    8     -0.60      0.00
   -3    8    9     -0.61      0.00
   -3    8   10      0.16      0.00
   -3    8   11     -1.13      0.00
   -3    8   12      1.57      0.00
   -3    8   13     -0.90      0.00
   -3    8   14      0.30      0.00
   -3    8   15      0.19      0.00
   -3    8   16      1.17      0.00
   -3    8   17      0.04      0.00
   -3    9    1     -1.62      0.00
   -3    9    2     -1.90      0.00
   -3    9    3     -4.69      0.00
   -3    9    4      0.54      0.00
   -3    9    5     -0.34      0.00
   -3    9    6     -1.11      0.00
   -3    9    7      1.30      0.00
   -3    9    8      2.14      0.00
   -3    9    9      3.27      0.00
   -3    9   10      1.88      0.00
   -3    9   11      3.27      0.00
   -3    9   12     -0.16      0.00
   -3    9   13      1.63      0.00
   -3    9   14     -0.35      0.00
   -3    9   15     -0.14      0.00
   -3    9   16     -0.88      0.00
   -3    9   17      0.05      0.00
   -3   10    1      0.59      0.00
   -3   10    2      1.43      0.00
   -3   10    3      0.78      0.00
   -3   10    4     -1.35      0.00
   -3   10    5     -1.67      0.00
   -3   10    6      2.39      0.00
   -3   10    7      0.03      0.00
   -3   10    8      0.26      0.00
   -3   10    9      1.05      0.00
   -3   10   10      1.96      0.00
   -3   10   11      0.65      0.00
   -3   10   12      1.50      0.00
   -3   10   13     -0.66      0.00
   -3   10   14      0.58      0.00
   -3   10   15      0.47      0.00
   -3   10   16      0.95      0.00
   -3   10   17      1.04      0.00
   -3   11    1     -2.53      0.00
   -3   11    2     -1.45      0.00
   -3   11    3     -1.87      0.00
   -3   11    4      2.30      0.00
   -3   11    5      1.18      0.00
   -3   11    6     -0.32      0.00
   -3   11    7      1.52      0.00
   -3   11    8      2.93      0.00
   -3   11    9      0.84      0.00
   -3   11   10      0.43      0.00
   -3   11   11     -0.29      0.00
   -3   11   12     -0.12      0.00
   -3   11   13      0.14      0.00
   -3   11   14     -0.02      0.00
   -3   11   15      0.17      0.00
   -3   11   16      0.30      0.00
   -3   12    1     -0.93      0.00
   -3   12    2     -1.82      0.00
   -3   12    3     -1.20      0.00
   -3   12    4     -1.24      0.00
   -3   12    5     -0.25      0.00
   -3   12    6      2.83      0.00
   -3   12    7      1.03      0.00
   -3   12    8     -0.09      0.00
   -3   12    9      1.73      0.00
   -3   12   10      0.66      0.00
   -3   12   11      0.63      0.00
   -3   12   12     -0.58      0.00
   -3   12   13     -1.07      0.00
   -3   12   14     -0.53      0.00
   -3   12   15     -0.68      0.00
   -3   13    1     -0.86      0.00
   -3   13    2      0.75      0.00
   -3   13    3     -1.16      0.00
   -3   13    4      2.00      0.00
   -3   13    5      0.31      0.00
   -3   13    6      0.76      0.00
   -3   13    7      1.01      0.00
   -3   13    8      2.30      0.00
   -3   13    9     -0.28      0.00
   -3   13   10      0.77      0.00
   -3   13   11     -0.79      0.00
   -3   13   12      0.56      0.00
   -3   13   13     -0.29      0.00
   -3   13   14      0.07      0.00
   -3   13   15      0.00      0.00
   -3   14    1      0.41      0.00
   -3   14    2     -0.33      0.00
   -3   14    3      2.91      0.00
   -3   14    4      0.85      0.00
   -3   14    5      2.12      0.00
   -3   14    6      1.51      0.00
   -3   14    7      0.77      0.00
   -3   14    8     -0.14      0.00
   -3   14    9      0.22      0.00
   -3   14   10      0.07      0.00
   -3   14   11     -0.32      0.00
   -3   14   12      0.62      0.00
   -3   14   13      0.02      0.00
   -3   14   14      1.07      0.00
   -3   15    1     -0.88      0.00
   -3   15    2      0.42      0.00
   -3   15    3     -2.00      0.00
   -3   15    4      2.29      0.00
   -3   15    5      0.63      0.00
   -3   15    6      0.87      0.00
   -3   15    7      0.59      0.00
   -3   15    8      0.08      0.00
   -3   15    9      0.23      0.00
   -3   15   10     -0.37      0.00
   -3   15   11     -0.01      0.00
   -3   15   12     -0.64      0.00
   -3   16    1      2.93      0.00
   -3   16    2      1.65      0.00
   -3   16    3      3.95      0.00
   -3   16    4     -0.11      0.00
   -3   16    5      1.17      0.00
   -3   16    6      0.80      0.00
   -3   16    7      0.06      0.00
   -3   16    8     -0.12      0.00
   -3   16    9     -1.55      0.00
   -3   16   10      0.23      0.00
   -3   16   11     -1.34      0.00
   -3   17    1     -1.19      0.00
   -3   17    2      0.74      0.00
   -3   17    3     -0.25      0.00
   -3   17    4      3.07      0.00
   -3   17    5      1.34      0.00
   -3   17    6     -0.07      0.00
   -3   17    7      0.31      0.00
   -3   17    8      0.01      0.00
   -3   17    9      0.89      0.00
   -3   18    1      0.83      0.00
   -3   18    2     -0.59      0.00
   -3   18    3      1.02      0.00
   -3   18    4     -1.27      0.00
   -3   18    5      0.51      0.00
   -3   18    6      0.51      0.00
   -2  -19    1     -0.49      0.00
   -2  -18    1      1.28      0.00
   -2  -18    2     -0.06      0.00
   -2  -18    3     -0.25      0.00
   -2  -18    4      0.31      0.00
   -2  -18    5      0.68      0.00
   -2  -17    1     -2.26      0.00
   -2  -17    2      1.27      0.00
   -2  -17    3      1.45      0.00
   -2  -17    4      1.35      0.00
   -2  -17    5     -0.18      0.00
   -2  -17    6      0.11      0.00
   -2  -17    7      1.47      0.00
   -2  -16    1      2.24      0.00
   -2  -16    2     -0.14      0.00
   -2  -16    3     -1.89      0.00
   -2  -16    4      0.83      0.00
   -2  -16    5      2.96      0.00
   -2  -16    6      1.89      0.00
   -2  -16    7     -0.70      0.00
   -2  -16    8      0.17      0.00
   -2  -15    1     -0.98      0.00
   -2  -15    2      2.19      0.00
   -2  -15    3      3.33      0.00
   -2  -15    4      1.82      0.00
   -2  -15    5     -0.24      0.00
   -2  -15    6      0.84      0.00
   -2  -15    7      2.79      0.00
   -2  -15    8     -0.85      0.00
   -2  -15    9     -0.95      0.00
   -2  -15   10     -1.13      0.00
   -2  -14    1      0.33      0.00
   -2  -14    2      0.91      0.00
   -2  -14    3     -1.65      0.00
   -2  -14    4      1.47      0.00
   -2  -14    5      1.07      0.00
   -2  -14    6      0.78      0.00
   -2  -14    7     -2.45      0.00
   -2  -14    8     -0.50      0.00
   -2  -14    9     -0.31      0.00
   -2  -14   10      0.01      0.00
   -2  -14   11      0.85      0.00
   -2  -13    1      0.38      0.00
   -2  -13    2      2.07      0.00
   -2  -13    3      1.50      0.00
   -2  -13    4      1.92      0.00
   -2  -13    5      1.49      0.00
   -2  -13    6      0.82      0.00
   -2  -13    7      2.47      0.00
   -2  -13    8     -0.05      0.00
   -2  -13    9     -1.10      0.00
   -2  -13   10     -1.52      0.00
   -2  -13   11     -2.06      0.00
   -2  -13   12     -0.28      0.00
   -2  -12    1      0.23      0.00
   -2  -12    2      0.02      0.00
   -2  -12    3     -0.62      0.00
   -2  -12    4      0.85      0.00
   -2  -12    5     -0.13      0.00
   -2  -12    6      2.58      0.00
   -2  -12    7     -1.93      0.00
   -2  -12    8     -0.77      0.00
   -2  -12    9     -1.82      0.00
   -2  -12   10     -0.18      0.00
   -2  -12   11      0.07      0.00
   -2  -12   12      0.76      0.00
   -2  -12   13      1.06      0.00
   -2  -11    1     -1.27      0.00
   -2  -11    2      1.75      0.00
   -2  -11    3     -0.27      0.00
   -2  -11    4      0.28      0.00
   -2  -11    5     -0.62      0.00
   -2  -11    6     -2.11      0.00
   -2  -11    7      1.90      0.00
   -2  -11    8      0.34      0.00
   -2  -11    9     -0.05      0.00
   -2  -11   10     -0.94      0.00
   -2  -11   11     -2.26      0.00
   -2  -11   12     -1.00      0.00
   -2  -11   13     -1.96      0.00
   -2  -11   14      1.27      0.00
   -2  -10    1      2.37      0.00
   -2  -10    2      0.85      0.00
   -2  -10    3     -0.55      0.00
   -2  -10    4      2.42      0.00
   -2  -10    5      2.32      0.00
   -2  -10    6      3.38      0.00
   -2  -10    7     -1.26      0.00
   -2  -10    8      0.54      0.00
   -2  -10    9     -0.63      0.00
   -2  -10   10      0.72      0.00
   -2  -10   11      0.31      0.00
   -2  -10   12      2.03      0.00
   -2  -10   13      1.12      0.00
   -2  -10   14      0.13      0.00
   -2  -10   15     -0.94      0.00
   -2   -9    1      1.61      0.00
   -2   -9    2      2.98      0.00
   -2   -9    3      2.49      0.00
   -2   -9    4      0.28      0.00
   -2   -9    5      0.12      0.00
   -2   -9    6      1.64      0.00
   -2   -9    7      3.71      0.00
   -2   -9    8      0.58      0.00
   -2   -9    9     -0.31      0.00
   -2   -9   10      0.00      0.00
   -2   -9   11     -2.14      0.00
   -2   -9   12     -0.28      0.00
   -2   -9   13     -1.97      0.00
   -2   -9   14      2.20      0.00
   -2   -9   15     -0.08      0.00
   -2   -8    1      1.24      0.00
   -2   -8    2      2.29      0.00
   -2   -8    3      0.01      0.00
   -2   -8    4      2.77      0.00
   -2   -8    5      1.85      0.00
   -2   -8    6     -2.92      0.00
   -2   -8    7     -0.43      0.00
   -2   -8    8     -0.54      0.00
   -2   -8    9      0.15      0.00
   -2   -8   10     -1.11      0.00
   -2   -8   11     -0.31      0.00
   -2   -8   12      1.07      0.00
   -2   -8   13      0.68      0.00
   -2   -8   14      1.03      0.00
   -2   -8   15      0.88      0.00
   -2   -8   16      3.19      0.00
   -2   -7    1      2.00      0.00
   -2   -7    2      2.04      0.00
   -2   -7    3      0.51      0.00
   -2   -7    4     -1.91      0.00
   -2   -7    5     -0.41      0.00
   -2   -7    6      1.13      0.00
   -2   -7    7     -2.65      0.00
   -2   -7    8     -3.79      0.00
   -2   -7    9     -2.77      0.00
   -2   -7   10     -0.32      0.00
   -2   -7   11     -2.35      0.00
   -2   -7   12      1.23      0.00
   -2   -7   13     -0.68      0.00
   -2   -7   14      2.81      0.00
   -2   -7   15      0.14      0.00
   -2   -7   16     -0.53      0.00
   -2   -7   17     -0.92      0.00
   -2   -6    1      0.70      0.00
   -2   -6    2      1.84      0.00
   -2   -6    3     -0.57      0.00
   -2   -6    4      0.89      0.00
   -2   -6    5     -1.24      0.00
   -2   -6    6     -4.98      0.00
   -2   -6    7      3.75      0.00
   -2   -6    8     -0.40      0.00
   -2   -6    9      0.48      0.00
   -2   -6   10     -0.37      0.00
   -2   -6   11      1.85      0.00
   -2   -6   12      2.15      0.00
   -2   -6   13      0.22      0.00
   -2   -6   14      1.03      0.00
   -2   -6   15     -1.21      0.00
   -2   -6   16      1.80      0.00
   -2   -6   17     -0.45      0.00
   -2   -5    1     -5.37      0.00
   -2   -5    2     -1.99      0.00
   -2   -5    3     -2.05      0.00
   -2   -5    4     -4.34      0.00
   -2   -5    5      2.27      0.00
   -2   -5    6     -1.52      0.00
   -2   -5    7     -2.71      0.00
   -2   -5    8     -2.50      0.00
   -2   -5    9      1.57      0.00
   -2   -5   10      0.15      0.00
   -2   -5   11     -2.84      0.00
   -2   -5   12      0.41      0.00
   -2   -5   13      0.34      0.00
   -2   -5   14      2.01      0.00
   -2   -5   15      1.82      0.00
   -2   -5   16      0.30      0.00
   -2   -5   17      1.34      0.00
   -2   -4    1      0.94      0.00
   -2   -4    2      2.88      0.00
   -2   -4    3     -2.28      0.00
   -2   -4    4      1.07      0.00
   -2   -4    5     -3.48      0.00
   -2   -4    6     -3.04      0.00
   -2   -4    7      2.45      0.00
   -2   -4    8     -2.37      0.00
   -2   -4    9     -2.72      0.00
   -2   -4   10     -0.43      0.00
   -2   -4   11      1.80      0.00
   -2   -4   12      0.60      0.00
   -2   -4   13     -2.62      0.00
   -2   -4   14      0.05      0.00
   -2   -4   15     -1.74      0.00
   -2   -4   16      0.94      0.00
   -2   -4   17     -1.26      0.00
   -2   -4   18     -0.89      0.00
   -2   -3    1     -1.84      0.00
   -2   -3    2     -0.06      0.00
   -2   -3    3     -1.26      0.00
   -2   -3    4     -4.37      0.00
   -2   -3    5      3.13      0.00
   -2   -3    6     -3.25      0.00
   -2   -3    7     -0.06      0.00
   -2   -3    8     -1.11      0.00
   -2   -3    9      3.07      0.00
   -2   -3   10     -0.19      0.00
   -2   -3   11     -2.66      0.00
   -2   -3   12      1.30      0.00
   -2   -3   13      1.24      0.00
   -2   -3   14     -0.74      0.00
   -2   -3   15     -1.02      0.00
   -2   -3   16     -0.84      0.00
   -2   -3   17      0.59      0.00
   -2   -3   18      1.08      0.00
   -2   -2    1     -5.35      0.00
   -2   -2    2     -0.15      0.00
   -2   -2    3     -3.89      0.00
   -2   -2    4     -2.77      0.00
   -2   -2    5     -2.25      0.00
   -2   -2    6     -2.20      0.00
   -2   -2    7      3.24      0.00
   -2   -2    8     -0.11      0.00
   -2   -2    9      0.35      0.00
   -2   -2   10      1.12      0.00
   -2   -2   11      0.85      0.00
   -2   -2   12     -2.89      0.00
   -2   -2   13     -3.93      0.00
   -2   -2   14      0.34      0.00
   -2   -2   15      1.43      0.00
   -2   -2   16      0.77      0.00
   -2   -2   17      1.93      0.00
   -2   -2   18      1.08      0.00
   -2   -1    1     -3.99      0.00
   -2   -1    2     -1.97      0.00
   -2   -1    3     -4.00      0.00
   -2   -1    4      0.60      0.00
   -2   -1    5      2.01      0.00
   -2   -1    6      0.11      0.00
   -2   -1    7      0.36      0.00
   -2   -1    8      0.27      0.00
   -2   -1    9      0.70      0.00
   -2   -1   10      0.78      0.00
   -2   -1   11     -0.87      0.00
   -2   -1   12      3.75      0.00
   -2   -1   13      1.66      0.00
   -2   -1   14     -0.82      0.00
   -2   -1   15     -0.84      0.00
   -2   -1   16      1.95      0.00
   -2   -1   17      0.02      0.00
   -2   -1   18      1.25      0.00
   -2   -1   19      0.57      0.00
   -2    0    1     -0.36      0.00
   -2    0    2      4.43      0.00
   -2    0    3      0.44      0.00
   -2    0    4     -4.48      0.00
   -2    0    5      2.22      0.00
   -2    0    6     -2.19      0.00
   -2    0    7      2.97      0.00
   -2    0    8     -1.25      0.00
   -2    0    9     -0.03      0.00
   -2    0   10     -0.77      0.00
   -2    0   11     -1.20      0.00
   -2    0   12     -4.01      0.00
   -2    0   13     -2.38      0.00
   -2    0   14     -0.63      0.00
   -2    0   15      0.20      0.00
   -2    0   16     -2.50      0.00
   -2    0   17      1.93      0.00
   -2    0   18      0.01      0.00
   -2    0   19      0.52      0.00
   -2    1    1     -9.87      0.00
   -2    1    2     -6.45      0.00
   -2    1    3     -2.53      0.00
   -2    1    4      2.36      0.00
   -2    1    5     -0.75      0.00
   -2    1    6      0.47      0.00
   -2    1    7     -0.21      0.00
   -2    1    8      2.00      0.00
   -2    1    9     -0.23      0.00
   -2    1   10      1.77      0.00
   -2    1   11     -1.42      0.00
   -2    1   12      2.10      0.00
   -2    1   13     -0.64      0.00
   -2    1   14     -0.02      0.00
   -2    1   15      1.24      0.00
   -2    1   16      3.29      0.00
   -2    1   17      0.32      0.00
   -2    1   18      1.66      0.00
   -2    1   19      1.42      0.00
   -2    2    1     -1.24      0.00
   -2    2    2      4.25      0.00
   -2    2    3     -1.81      0.00
   -2    2    4     -0.46      0.00
   -2    2    5      6.97      0.00
   -2    2    6      1.26      0.00
   -2    2    7      1.34      0.00
   -2    2    8     -2.18      0.00
   -2    2    9     -2.48      0.00
   -2    2   10     -2.13      0.00
   -2    2   11     -1.56      0.00
   -2    2   12     -2.32      0.00
   -2    2   13     -0.17      0.00
   -2    2   14     -0.53      0.00
   -2    2   15      0.30      0.00
   -2    2   16     -0.35      0.00
   -2    2   17      2.55      0.00
   -2    2   18      1.05      0.00
   -2    2   19      0.31      0.00
   -2    3    1     -3.21      0.00
   -2    3    2     -2.63      0.00
   -2    3    3      5.24      0.00
   -2    3    4     -0.08      0.00
   -2    3    5     -3.11      0.00
   -2    3    6     -0.87      0.00
   -2    3    7     -0.67      0.00
   -2    3    8      1.07      0.00
   -2    3    9     -1.03      0.00
   -2    3   10      2.18      0.00
   -2    3   11     -0.52      0.00
   -2    3   12      2.75      0.00
   -2    3   13      0.22      0.00
   -2    3   14      1.51      0.00
   -2    3   15      1.19      0.00
   -2    3   16      1.07      0.00
   -2    3   17      0.40      0.00
   -2    3   18      0.50      0.00
   -2    3   19      1.88      0.00
   -2    4    1     -3.67      0.00
   -2    4    2      0.52      0.00
   -2    4    3     -2.61      0.00
   -2    4    4      2.62      0.00
   -2    4    5      7.81      0.00
   -2    4    6      0.24      0.00
   -2    4    7     -0.35      0.00
   -2    4    8     -0.53      0.00
   -2    4    9     -2.26      0.00
   -2    4   10     -2.04      0.00
   -2    4   11     -3.54      0.00
   -2    4   12     -3.28      0.00
   -2    4   13     -1.32      0.00
   -2    4   14     -0.90      0.00
   -2    4   15      0.97      0.00
   -2    4   16      1.08      0.00
   -2    4   17      1.37      0.00
   -2    4   18      0.71      0.00
   -2    4   19     -1.04      0.00
   -2    5    1      2.92      0.00
   -2    5    2      1.94      0.00
   -2    5    3      6.27      0.00
   -2    5    4     -0.45      0.00
   -2    5    5     -2.41      0.00
   -2    5    6      1.83      0.00
   -2    5    7     -1.02      0.00
   -2    5    8     -1.16      0.00
   -2    5    9     -2.28      0.00
   -2    5   10      1.86      0.00
   -2    5   11      1.96      0.00
   -2    5   12      3.91      0.00
   -2    5   13      1.09      0.00
   -2    5   14      1.82      0.00
   -2    5   15      0.25      0.00
   -2    5   16      0.68      0.00
   -2    5   17      0.43      0.00
   -2    5   18      0.02      0.00
   -2    5   19      1.55      0.00
   -2    6    1      0.27      0.00
   -2    6    2     -1.45      0.00
   -2    6    3     -0.30      0.00
   -2    6    4     -0.54      0.00
   -2    6    5      3.33      0.00
   -2    6    6     -4.08      0.00
   -2    6    7     -0.43      0.00
   -2    6    8      1.32      0.00
   -2    6    9     -0.32      0.00
   -2    6   10     -0.11      0.00
   -2    6   11     -3.01      0.00
   -2    6   12     -1.39      0.00
   -2    6   13      0.13      0.00
   -2    6   14     -0.42      0.00
   -2    6   15      0.57      0.00
   -2    6   16     -0.57      0.00
   -2    6   17      0.31      0.00
   -2    6   18     -0.55      0.00
   -2    7    1     -2.76      0.00
   -2    7    2     -2.97      0.00
   -2    7    3     -0.25      0.00
   -2    7    4     -3.59      0.00
   -2    7    5     -2.09      0.00
   -2    7    6      0.52      0.00
   -2    7    7     -2.60      0.00
   -2    7    8     -2.33      0.00
   -2    7    9     -1.66      0.00
   -2    7   10      0.74      0.00
   -2    7   11      1.52      0.00
   -2    7   12      1.64      0.00
   -2    7   13     -0.56      0.00
   -2    7   14      1.30      0.00
   -2    7   15      0.62      0.00
   -2    7   16      1.01      0.00
   -2    7   17     -0.46      0.00
   -2    7   18     -0.70      0.00
   -2    8    1      3.57      0.00
   -2    8    2      0.50      0.00
   -2    8    3      2.63      0.00
   -2    8    4      0.95      0.00
   -2    8    5      1.49      0.00
   -2    8    6     -2.00      0.00
   -2    8    7      1.01      0.00
   -2    8    8      0.74      0.00
   -2    8    9     -0.86      0.00
   -2    8   10      1.30      0.00
   -2    8   11      0.15      0.00
   -2    8   12      1.89      0.00
   -2    8   13      2.63      0.00
   -2    8   14      0.65      0.00
   -2    8   15      0.16      0.00
   -2    8   16     -0.21      0.00
   -2    8   17      0.67      0.00
   -2    8   18      0.18      0.00
   -2    9    1      1.22      0.00
   -2    9    2     -1.68      0.00
   -2    9    3      0.20      0.00
   -2    9    4     -4.66      0.00
   -2    9    5      0.65      0.00
   -2    9    6     -1.41      0.00
   -2    9    7     -0.73      0.00
   -2    9    8      0.67      0.00
   -2    9    9      2.96      0.00
   -2    9   10      1.45      0.00
   -2    9   11      1.59      0.00
   -2    9   12      1.00      0.00
   -2    9   13     -0.34      0.00
   -2    9   14      0.76      0.00
   -2    9   15      1.33      0.00
   -2    9   16      0.17      0.00
   -2    9   17      0.09      0.00
   -2    9   18     -0.83      0.00
   -2   10    1     -0.97      0.00
   -2   10    2     -1.50      0.00
   -2   10    3      1.14      0.00
   -2   10    4      0.76      0.00
   -2   10    5     -0.46      0.00
   -2   10    6     -0.89      0.00
   -2   10    7      0.26      0.00
   -2   10    8     -1.53      0.00
   -2   10    9     -2.71      0.00
   -2   10   10      0.81      0.00
   -2   10   11      0.33      0.00
   -2   10   12      0.46      0.00
   -2   10   13      1.64      0.00
   -2   10   14      0.33      0.00
   -2   10   15     -0.16      0.00
   -2   10   16      0.37      0.00
   -2   10   17     -0.10      0.00
   -2   11    1      2.75      0.00
   -2   11    2     -0.31      0.00
   -2   11    3      0.78      0.00
   -2   11    4     -3.27      0.00
   -2   11    5      1.10      0.00
   -2   11    6     -1.84      0.00
   -2   11    7     -0.40      0.00
   -2   11    8      1.10      0.00
   -2   11    9      3.24      0.00
   -2   11   10      0.89      0.00
   -2   11   11      1.95      0.00
   -2   11   12      2.07      0.00
   -2   11   13      0.12      0.00
   -2   11   14      0.32      0.00
   -2   11   15      0.62      0.00
   -2   11   16     -0.15      0.00
   -2   11   17      0.46      0.00
   -2   12    1      0.42      0.00
   -2   12    2     -1.07      0.00
   -2   12    3     -0.02      0.00
   -2   12    4     -1.44      0.00
   -2   12    5     -0.28      0.00
   -2   12    6     -0.98      0.00
   -2   12    7      2.11      0.00
   -2   12    8      0.27      0.00
   -2   12    9      0.92      0.00
   -2   12   10      1.59      0.00
   -2   12   11      0.61      0.00
   -2   12   12     -1.98      0.00
   -2   12   13      1.13      0.00
   -2   12   14     -1.11      0.00
   -2   12   15      0.43      0.00
   -2   12   16     -0.05      0.00
   -2   13    1     -0.74      0.00
   -2   13    2     -1.00      0.00
   -2   13    3      1.08      0.00
   -2   13    4     -1.08      0.00
   -2   13    5      0.52      0.00
   -2   13    6      0.01      0.00
   -2   13    7     -1.08      0.00
   -2   13    8      0.64      0.00
   -2   13    9     -0.01      0.00
   -2   13   10      0.09      0.00
   -2   13   11      0.81      0.00
   -2   13   12      2.20      0.00
   -2   13   13     -0.61      0.00
   -2   13   14      0.88      0.00
   -2   13   15     -0.28      0.00
   -2   14    1      0.97      0.00
   -2   14    2      0.16      0.00
   -2   14    3     -0.25      0.00
   -2   14    4     -0.05      0.00
   -2   14    5      0.66      0.00
   -2   14    6     -0.33      0.00
   -2   14    7      3.06      0.00
   -2   14    8      1.07      0.00
   -2   14    9      3.00      0.00
   -2   14   10      0.83      0.00
   -2   14   11      0.65      0.00
   -2   14   12     -2.75      0.00
   -2   14   13      0.55      0.00
   -2   14   14     -2.31      0.00
   -2   15    1      1.74      0.00
   -2   15    2     -0.20      0.00
   -2   15    3      1.18      0.00
   -2   15    4     -1.66      0.00
   -2   15    5      1.72      0.00
   -2   15    6      1.60      0.00
   -2   15    7      0.56      0.00
   -2   15    8      1.71      0.00
   -2   15    9     -0.12      0.00
   -2   15   10      0.12      0.00
   -2   15   11      0.27      0.00
   -2   15   12      0.72      0.00
   -2   15   13      0.13      0.00
   -2   16    1     -1.71      0.00
   -2   16    2      0.81      0.00
   -2   16    3      0.92      0.00
   -2   16    4      3.41      0.00
   -2   16    5      0.14      0.00
   -2   16    6      1.21      0.00
   -2   16    7      1.35      0.00
   -2   16    8      0.46      0.00
   -2   16    9      0.80      0.00
   -2   16   10      0.30      0.00
   -2   16   11      0.43      0.00
   -2   16   12     -0.04      0.00
   -2   17    1      2.18      0.00
   -2   17    2     -0.65      0.00
   -2   17    3     -0.33      0.00
   -2   17    4     -2.55      0.00
   -2   17    5      1.40      0.00
   -2   17    6      0.19      0.00
   -2   17    7      0.20      0.00
   -2   17    8      0.60      0.00
   -2   17    9      0.46      0.00
   -2   17   10     -0.30      0.00
   -2   18    1     -1.25      0.00
   -2   18    2     -0.08      0.00
   -2   18    3      0.47      0.00
   -2   18    4      2.64      0.00
   -2   18    5      1.08      0.00
   -2   18    6      2.44      0.00
   -2   18    7      1.67      0.00
   -2   18    8      0.95      0.00
   -1  -19    1      0.98      0.00
   -1  -19    2     -0.19      0.00
   -1  -18    1     -2.51      0.00
   -1  -18    2      0.30      0.00
   -1  -18    3     -1.11      0.00
   -1  -18    4     -0.74      0.00
   -1  -18    5     -1.13      0.00
   -1  -17    1      1.80      0.00
   -1  -17    2     -2.56      0.00
   -1  -17    3      2.71      0.00
   -1  -17    4      0.58      0.00
   -1  -17    5      3.16      0.00
   -1  -17    6     -0.33      0.00
   -1  -17    7      1.13      0.00
   -1  -16    1      0.02      0.00
   -1  -16    2      4.01      0.00
   -1  -16    3     -0.57      0.00
   -1  -16    4      1.48      0.00
   -1  -16    5     -1.12      0.00
   -1  -16    6      4.46      0.00
   -1  -16    7      0.34      0.00
   -1  -16    8      1.14      0.00
   -1  -16    9     -1.65      0.00
   -1  -15    1      1.41      0.00
   -1  -15    2     -1.79      0.00
   -1  -15    3      4.57      0.00
   -1  -15    4      0.53      0.00
   -1  -15    5      4.05      0.00
   -1  -15    6     -1.71      0.00
   -1  -15    7      1.42      0.00
   -1  -15    8      1.61      0.00
   -1  -15    9      2.49      0.00
   -1  -15   10      1.62      0.00
   -1  -14    1      0.77      0.00
   -1  -14    2      1.76      0.00
   -1  -14    3      1.76      0.00
   -1  -14    4      2.38      0.00
   -1  -14    5      1.55      0.00
   -1  -14    6      3.15      0.00
   -1  -14    7      2.90      0.00
   -1  -14    8      0.32      0.00
   -1  -14    9     -1.57      0.00
   -1  -14   10     -1.82      0.00
   -1  -14   11      0.43      0.00
   -1  -13    1      0.47      0.00
   -1  -13    2      0.45      0.00
   -1  -13    3     -1.06      0.00
   -1  -13    4     -1.44      0.00
   -1  -13    5     -1.88      0.00
   -1  -13    6      0.08      0.00
   -1  -13    7     -5.29      0.00
   -1  -13    8      0.58      0.00
   -1  -13    9     -0.75      0.00
   -1  -13   10      1.03      0.00
   -1  -13   11     -1.95      0.00
   -1  -13   12      1.47      0.00
   -1  -12    1     -0.33      0.00
   -1  -12    2     -3.16      0.00
   -1  -12    3      3.44      0.00
   -1  -12    4     -1.39      0.00
   -1  -12    5      4.21      0.00
   -1  -12    6     -0.73      0.00
   -1  -12    7     10.30      0.00
   -1  -12    8      0.97      0.00
   -1  -12    9      3.45      0.00
   -1  -12   10     -1.16      0.00
   -1  -12   11      2.08      0.00
   -1  -12   12     -2.31      0.00
   -1  -12   13     -0.53      0.00
   -1  -11    1      0.07      0.00
   -1  -11    2      1.09      0.00
   -1  -11    3     -2.13      0.00
   -1  -11    4      1.42      0.00
   -1  -11    5     -2.56      0.00
   -1  -11    6      1.62      0.00
   -1  -11    7     -8.17      0.00
   -1  -11    8      1.18      0.00
   -1  -11    9     -2.40      0.00
   -1  -11   10     -0.91      0.00
   -1  -11   11     -3.45      0.00
   -1  -11   12     -2.86      0.00
   -1  -11   13     -1.76      0.00
   -1  -11   14     -2.00      0.00
   -1  -10    1      1.85      0.00
   -1  -10    2      0.14      0.00
   -1  -10    3      0.91      0.00
   -1  -10    4     -2.07      0.00
   -1  -10    5      2.47      0.00
   -1  -10    6      2.74      0.00
   -1  -10    7      6.92      0.00
   -1  -10    8     -0.61      0.00
   -1  -10    9     -0.53      0.00
   -1  -10   10     -2.35      0.00
   -1  -10   11     -0.49      0.00
   -1  -10   12     -0.20      0.00
   -1  -10   13      0.74      0.00
   -1  -10   14      0.07      0.00
   -1  -10   15     -1.44      0.00
   -1   -9    1      1.16      0.00
   -1   -9    2     -2.74      0.00
   -1   -9    3      2.12      0.00
   -1   -9    4     -0.20      0.00
   -1   -9    5      0.61      0.00
   -1   -9    6     -3.82      0.00
   -1   -9    7     -1.16      0.00
   -1   -9    8     -0.09      0.00
   -1   -9    9      0.70      0.00
   -1   -9   10     -2.48      0.00
   -1   -9   11     -1.31      0.00
   -1   -9   12     -5.49      0.00
   -1   -9   13     -0.61      0.00
   -1   -9   14     -0.95      0.00
   -1   -9   15      4.46      0.00
   -1   -9   16      2.36      0.00
   -1   -8    1      3.19      0.00
   -1   -8    2      6.58      0.00
   -1   -8    3      3.58      0.00
   -1   -8    4      6.44      0.00
   -1   -8    5      3.01      0.00
   -1   -8    6      9.58      0.00
   -1   -8    7     -1.63      0.00
   -1   -8    8      2.97      0.00
   -1   -8    9     -3.10      0.00
   -1   -8   10     -0.39      0.00
   -1   -8   11     -1.26      0.00
   -1   -8   12      2.00      0.00
   -1   -8   13      1.77      0.00
   -1   -8   14      0.34      0.00
   -1   -8   15     -0.45      0.00
   -1   -8   16     -0.76      0.00
   -1   -7    1      5.66      0.00
   -1   -7    2     -0.66      0.00
   -1   -7    3      1.01      0.00
   -1   -7    4     -0.96      0.00
   -1   -7    5      2.21      0.00
   -1   -7    6     -0.83      0.00
   -1   -7    7      4.19      0.00
   -1   -7    8     -2.95      0.00
   -1   -7    9     -0.30      0.00
   -1   -7   10     -1.25      0.00
   -1   -7   11      1.24      0.00
   -1   -7   12     -2.78      0.00
   -1   -7   13      1.47      0.00
   -1   -7   14      0.45      0.00
   -1   -7   15      3.13      0.00
   -1   -7   16      0.24      0.00
   -1   -7   17      0.58      0.00
   -1   -6    1     -2.47      0.00
   -1   -6    2     -2.83      0.00
   -1   -6    3      5.99      0.00
   -1   -6    4      2.00      0.00
   -1   -6    5     -0.13      0.00
   -1   -6    6      0.02      0.00
   -1   -6    7     -6.08      0.00
   -1   -6    8      3.43      0.00
   -1   -6    9     -3.48      0.00
   -1   -6   10     -4.49      0.00
   -1   -6   11     -3.65      0.00
   -1   -6   12     -0.54      0.00
   -1   -6   13      1.40      0.00
   -1   -6   14     -0.83      0.00
   -1   -6   15      1.38      0.00
   -1   -6   16      0.53      0.00
   -1   -6   17      2.01      0.00
   -1   -5    1      4.84      0.00
   -1   -5    2      1.27      0.00
   -1   -5    3     -6.36      0.00
   -1   -5    4     -1.07      0.00
   -1   -5    5     -3.11      0.00
   -1   -5    6      3.58      0.00
   -1   -5    7     -3.94      0.00
   -1   -5    8     -6.70      0.00
   -1   -5    9     -4.61      0.00
   -1   -5   10      2.40      0.00
   -1   -5   11      2.03      0.00
   -1   -5   12     -1.06      0.00
   -1   -5   13      1.83      0.00
   -1   -5   14      2.35      0.00
   -1   -5   15      2.18      0.00
   -1   -5   16     -0.42      0.00
   -1   -5   17     -1.78      0.00
   -1   -5   18     -1.10      0.00
   -1   -4    1      5.38      0.00
   -1   -4    2     -2.98      0.00
   -1   -4    3      7.60      0.00
   -1   -4    4     -0.55      0.00
   -1   -4    5     -1.69      0.00
   -1   -4    6     -3.31      0.00
   -1   -4    7     -1.26      0.00
   -1   -4    8      5.69      0.00
   -1   -4    9     -2.01      0.00
   -1   -4   10     -5.91      0.00
   -1   -4   11     -2.82      0.00
   -1   -4   12      0.02      0.00
   -1   -4   13     -0.57      0.00
   -1   -4   14     -5.27      0.00
   -1   -4   15     -2.50      0.00
   -1   -4   16     -2.42      0.00
   -1   -4   17      0.52      0.00
   -1   -4   18     -0.73      0.00
   -1   -3    1      6.27      0.00
   -1   -3    2     -3.76      0.00
   -1   -3    3     -5.99      0.00
   -1   -3    4     -6.87      0.00
   -1   -3    5     -2.53      0.00
   -1   -3    6      1.86      0.00
   -1   -3    7     -4.85      0.00
   -1   -3    8     -4.86      0.00
   -1   -3    9     -1.55      0.00
   -1   -3   10      3.40      0.00
   -1   -3   11      1.56      0.00
   -1   -3   12     -2.24      0.00
   -1   -3   13      2.83      0.00
   -1   -3   14      4.85      0.00
   -1   -3   15      3.93      0.00
   -1   -3   16      2.45      0.00
   -1   -3   17      1.94      0.00
   -1   -3   18      1.67      0.00
   -1   -2    1      8.30      0.00
   -1   -2    2      1.39      0.00
   -1   -2    3      3.99      0.00
   -1   -2    4      4.65      0.00
   -1   -2    5     -6.64      0.00
   -1   -2    6      1.63      0.00
   -1   -2    7     -2.46      0.00
   -1   -2    8      5.38      0.00
   -1   -2    9     -2.44      0.00
   -1   -2   10     -2.79      0.00
   -1   -2   11     -1.30      0.00
   -1   -2   12      0.24      0.00
   -1   -2   13     -2.91      0.00
   -1   -2   14     -6.25      0.00
   -1   -2   15     -3.58      0.00
   -1   -2   16     -3.32      0.00
   -1   -2   17     -3.50      0.00
   -1   -2   18     -2.24      0.00
   -1   -2   19      0.09      0.00
   -1   -1    1     30.86      0.00
   -1   -1    2      8.65      0.00
   -1   -1    3      4.74      0.00
   -1   -1    4     -4.85      0.00
   -1   -1    5      7.25      0.00
   -1   -1    6      1.85      0.00
   -1   -1    7      1.35      0.00
   -1   -1    8     -2.22      0.00
   -1   -1    9     -0.88      0.00
   -1   -1   10     -0.30      0.00
   -1   -1   11      1.67      0.00
   -1   -1   12     -0.68      0.00
   -1   -1   13      3.12      0.00
   -1   -1   14      2.01      0.00
   -1   -1   15      0.05      0.00
   -1   -1   16      0.59      0.00
   -1   -1   17      3.69      0.00
   -1   -1   18      2.31      0.00
   -1   -1   19      1.31      0.00
   -1    0    2    -13.42      0.00
   -1    0    3     -4.66      0.00
   -1    0    4     -1.27      0.00
   -1    0    5    -11.92      0.00
   -1    0    6      3.59      0.00
   -1    0    7     -0.60      0.00
   -1    0    8      6.11      0.00
   -1    0    9      4.95      0.00
   -1    0   10      2.60      0.00
   -1    0   11      1.09      0.00
   -1    0   12     -0.85      0.00
   -1    0   13     -1.52      0.00
   -1    0   14     -1.19      0.00
   -1    0   15      1.29      0.00
   -1    0   16      0.74      0.00
   -1    0   17     -1.97      0.00
   -1    0   18      0.56      0.00
   -1    0   19      0.19      0.00
   -1    1    1     14.08      0.00
   -1    1    2     -0.54      0.00
   -1    1    3     -5.50      0.00
   -1    1    4     -3.17      0.00
   -1    1    5      6.85      0.00
   -1    1    6      1.24      0.00
   -1    1    7      1.22      0.00
   -1    1    8     -0.32      0.00
   -1    1    9     -3.97      0.00
   -1    1   10     -1.47      0.00
   -1    1   11      3.18      0.00
   -1    1   12      2.62      0.00
   -1    1   13      3.56      0.00
   -1    1   14      0.45      0.00
   -1    1   15     -1.46      0.00
   -1    1   16     -0.33      0.00
   -1    1   17      1.66      0.00
   -1    1   18     -0.44      0.00
   -1    1   19      0.15      0.00
   -1    2    1      2.41      0.00
   -1    2    2     -4.07      0.00
   -1    2    3      1.61      0.00
   -1    2    4      0.61      0.00
   -1    2    5     -3.56      0.00
   -1    2    6      8.47      0.00
   -1    2    7      2.17      0.00
   -1    2    8      0.51      0.00
   -1    2    9      5.16      0.00
   -1    2   10     -1.16      0.00
   -1    2   11     -1.34      0.00
   -1    2   12     -4.81      0.00
   -1    2   13     -4.05      0.00
   -1    2   14     -3.38      0.00
   -1    2   15     -1.17      0.00
   -1    2   16     -0.90      0.00
   -1    2   17     -0.55      0.00
   -1    2   18      2.32      0.00
   -1    2   19      1.43      0.00
   -1    3    1     -8.57      0.00
   -1    3    2    -12.35      0.00
   -1    3    3     -6.08      0.00
   -1    3    4     -0.19      0.00
   -1    3    5      1.62      0.00
   -1    3    6     -4.02      0.00
   -1    3    7      2.01      0.00
   -1    3    8      2.23      0.00
   -1    3    9     -3.23      0.00
   -1    3   10     -2.70      0.00
   -1    3   11      0.53      0.00
   -1    3   12      0.08      0.00
   -1    3   13      2.62      0.00
   -1    3   14      1.15      0.00
   -1    3   15      0.73      0.00
   -1    3   16      1.55      0.00
   -1    3   17      0.89      0.00
   -1    3   18     -0.56      0.00
   -1    3   19     -1.30      0.00
   -1    4    1     -3.19      0.00
   -1    4    2     -3.59      0.00
   -1    4    3     -9.01      0.00
   -1    4    4     -1.91      0.00
   -1    4    5     -0.52      0.00
   -1    4    6     10.30      0.00
   -1    4    7     -3.81      0.00
   -1    4    8     -5.01      0.00
   -1    4    9      1.51      0.00
   -1    4   10     -0.80      0.00
   -1    4   11      0.94      0.00
   -1    4   12     -2.23      0.00
   -1    4   13     -3.07      0.00
   -1    4   14     -2.04      0.00
   -1    4   15     -0.50      0.00
   -1    4   16      0.42      0.00
   -1    4   17      1.02      0.00
   -1    4   18      2.57      0.00
   -1    4   19      2.31      0.00
   -1    5    1     -0.24      0.00
   -1    5    2     -0.55      0.00
   -1    5    3      6.25      0.00
   -1    5    4      5.67      0.00
   -1    5    5     -0.76      0.00
   -1    5    6     -5.51      0.00
   -1    5    7      6.85      0.00
   -1    5    8      2.92      0.00
   -1    5    9     -0.60      0.00
   -1    5   10     -4.42      0.00
   -1    5   11     -1.35      0.00
   -1    5   12     -2.11      0.00
   -1    5   13      1.50      0.00
   -1    5   14     -1.71      0.00
   -1    5   15     -0.67      0.00
   -1    5   16     -0.30      0.00
   -1    5   17      0.72      0.00
   -1    5   18      0.30      0.00
   -1    5   19     -1.10      0.00
   -1    6    1      0.17      0.00
   -1    6    2      0.37      0.00
   -1    6    3     -5.21      0.00
   -1    6    4      0.47      0.00
   -1    6    5      2.58      0.00
   -1    6    6      6.81      0.00
   -1    6    7     -7.42      0.00
   -1    6    8     -3.78      0.00
   -1    6    9      0.12      0.00
   -1    6   10     -0.10      0.00
   -1    6   11      0.07      0.00
   -1    6   12     -2.26      0.00
   -1    6   13     -2.50      0.00
   -1    6   14      2.16      0.00
   -1    6   15      2.14      0.00
   -1    6   16      3.28      0.00
   -1    6   17      0.79      0.00
   -1    6   18      1.37      0.00
   -1    6   19      0.24      0.00
   -1    7    1     -4.19      0.00
   -1    7    2      1.06      0.00
   -1    7    3     -2.76      0.00
   -1    7    4      2.27      0.00
   -1    7    5     -6.29      0.00
   -1    7    6     -2.07      0.00
   -1    7    7      4.81      0.00
   -1    7    8      0.66      0.00
   -1    7    9      0.77      0.00
   -1    7   10     -0.55      0.00
   -1    7   11      2.00      0.00
   -1    7   12      1.77      0.00
   -1    7   13      2.99      0.00
   -1    7   14     -2.28      0.00
   -1    7   15     -0.62      0.00
   -1    7   16     -0.80      0.00
   -1    7   17      0.90      0.00
   -1    7   18      0.81      0.00
   -1    8    1      5.34      0.00
   -1    8    2      2.05      0.00
   -1    8    3      0.53      0.00
   -1    8    4      0.57      0.00
   -1    8    5      2.07      0.00
   -1    8    6      1.67      0.00
   -1    8    7     -2.08      0.00
   -1    8    8      2.32      0.00
   -1    8    9      1.75      0.00
   -1    8   10     -0.58      0.00
   -1    8   11      0.07      0.00
   -1    8   12     -2.58      0.00
   -1    8   13     -1.98      0.00
   -1    8   14      2.20      0.00
   -1    8   15      1.00      0.00
   -1    8   16      1.64      0.00
   -1    8   17     -0.23      0.00
   -1    8   18     -0.23      0.00
   -1    9    1     -5.81      0.00
   -1    9    2      1.10      0.00
   -1    9    3     -4.31      0.00
   -1    9    4      1.63      0.00
   -1    9    5     -5.01      0.00
   -1    9    6      0.50      0.00
   -1    9    7     -1.56      0.00
   -1    9    8     -3.65      0.00
   -1    9    9     -0.81      0.00
   -1    9   10      0.25      0.00
   -1    9   11     -0.48      0.00
   -1    9   12      2.02      0.00
   -1    9   13      2.54      0.00
   -1    9   14      0.63      0.00
   -1    9   15      1.27      0.00
   -1    9   16      1.83      0.00
   -1    9   17      0.74      0.00
   -1    9   18      1.11      0.00
   -1   10    1      0.45      0.00
   -1   10    2     -0.15      0.00
   -1   10    3     -3.50      0.00
   -1   10    4      0.50      0.00
   -1   10    5     -1.30      0.00
   -1   10    6      0.98      0.00
   -1   10    7     -0.80      0.00
   -1   10    8      3.25      0.00
   -1   10    9     -1.29      0.00
   -1   10   10     -0.65      0.00
   -1   10   11      2.00      0.00
   -1   10   12     -0.74      0.00
   -1   10   13     -1.17      0.00
   -1   10   14      0.70      0.00
   -1   10   15      0.14      0.00
   -1   10   16     -0.19      0.00
   -1   10   17      0.21      0.00
   -1   11    1     -0.84      0.00
   -1   11    2      2.49      0.00
   -1   11    3      0.55      0.00
   -1   11    4      1.46      0.00
   -1   11    5     -1.88      0.00
   -1   11    6     -0.40      0.00
   -1   11    7      0.05      0.00
   -1   11    8     -2.11      0.00
   -1   11    9      2.88      0.00
   -1   11   10      0.74      0.00
   -1   11   11     -1.29      0.00
   -1   11   12      1.81      0.00
   -1   11   13      2.15      0.00
   -1   11   14      1.30      0.00
   -1   11   15      0.61      0.00
   -1   11   16      2.10      0.00
   -1   11   17      0.27      0.00
   -1   12    1     -0.26      0.00
   -1   12    2      0.72      0.00
   -1   12    3     -2.53      0.00
   -1   12    4      1.63      0.00
   -1   12    5     -1.80      0.00
   -1   12    6      0.64      0.00
   -1   12    7     -5.56      0.00
   -1   12    8     -0.52      0.00
   -1   12    9     -5.56      0.00
   -1   12   10     -0.58      0.00
   -1   12   11      0.91      0.00
   -1   12   12     -0.84      0.00
   -1   12   13     -1.92      0.00
   -1   12   14      0.82      0.00
   -1   12   15     -0.07      0.00
   -1   12   16     -0.66      0.00
   -1   13    1     -2.52      0.00
   -1   13    2      1.06      0.00
   -1   13    3     -1.16      0.00
   -1   13    4      0.49      0.00
   -1   13    5     -3.72      0.00
   -1   13    6     -1.56      0.00
   -1   13    7      0.82      0.00
   -1   13    8     -1.05      0.00
   -1   13    9      2.62      0.00
   -1   13   10     -0.21      0.00
   -1   13   11     -1.56      0.00
   -1   13   12      1.28      0.00
   -1   13   13      0.29      0.00
   -1   13   14     -0.94      0.00
   -1   13   15     -0.90      0.00
   -1   13   16      0.77      0.00
   -1   14    1      3.29      0.00
   -1   14    2      1.43      0.00
   -1   14    3      0.27      0.00
   -1   14    4      0.05      0.00
   -1   14    5      0.52      0.00
   -1   14    6     -1.16      0.00
   -1   14    7     -2.87      0.00
   -1   14    8      0.01      0.00
   -1   14    9     -1.29      0.00
   -1   14   10      1.15      0.00
   -1   14   11      1.45      0.00
   -1   14   12     -1.12      0.00
   -1   14   13     -1.29      0.00
   -1   14   14      0.71      0.00
   -1   14   15     -0.27      0.00
   -1   15    1     -2.38      0.00
   -1   15    2      1.80      0.00
   -1   15    3     -0.37      0.00
   -1   15    4      1.62      0.00
   -1   15    5     -3.69      0.00
   -1   15    6      1.06      0.00
   -1   15    7     -0.49      0.00
   -1   15    8      0.40      0.00
   -1   15    9      0.86      0.00
   -1   15   10      0.66      0.00
   -1   15   11     -0.98      0.00
   -1   15   12      1.96      0.00
   -1   15   13     -0.18      0.00
   -1   15   14      0.34      0.00
   -1   16    1      1.48      0.00
   -1   16    2      0.02      0.00
   -1   16    3     -0.37      0.00
   -1   16    4     -0.48      0.00
   -1   16    5      1.70      0.00
   -1   16    6     -1.23      0.00
   -1   16    7      1.68      0.00
   -1   16    8      1.43      0.00
   -1   16    9      1.74      0.00
   -1   16   10      1.49      0.00
   -1   16   11      0.98      0.00
   -1   16   12     -0.93      0.00
   -1   17    1      1.31      0.00
   -1   17    2      1.78      0.00
   -1   17    3      0.38      0.00
   -1   17    4      0.36      0.00
   -1   17    5     -1.36      0.00
   -1   17    6      0.83      0.00
   -1   17    7      0.12      0.00
   -1   17    8      0.01      0.00
   -1   17    9      0.72      0.00
   -1   17   10     -0.53      0.00
   -1   17   11     -0.29      0.00
   -1   18    1     -1.01      0.00
   -1   18    2     -0.30      0.00
   -1   18    3     -0.52      0.00
   -1   18    4     -0.43      0.00
   -1   18    5     -0.05      0.00
   -1   18    6      0.19      0.00
   -1   18    7      0.52      0.00
   -1   18    8      1.28      0.00
   -1   18    9      0.41      0.00
   -1   19    1     -0.24      0.00
   -1   19    2     -0.84      0.00
   -1   19    3     -1.01      0.00
   -1   19    4      0.01      0.00
   -1   19    5      0.75      0.00
    0  -19    1      0.41      0.00
    0  -18    1     -0.65      0.00
    0  -18    2     -1.26      0.00
    0  -18    3      0.08      0.00
    0  -18    4     -1.22      0.00
    0  -18    5     -0.35      0.00
    0  -17    1     -1.49      0.00
    0  -17    2      1.00      0.00
    0  -17    3     -2.27      0.00
    0  -17    4      2.28      0.00
    0  -17    5      1.06      0.00
    0  -17    6      0.93      0.00
    0  -17    7     -0.68      0.00
    0  -16    1      0.57      0.00
    0  -16    2     -0.83      0.00
    0  -16    3      1.39      0.00
    0  -16    4     -2.17      0.00
    0  -16    5     -2.11      0.00
    0  -16    6     -2.07      0.00
    0  -16    7      1.81      0.00
    0  -16    8      0.40      0.00
    0  -16    9      1.65      0.00
    0  -15    1     -2.13      0.00
    0  -15    2      0.71      0.00
    0  -15    3     -0.32      0.00
    0  -15    4      3.67      0.00
    0  -15    5      3.67      0.00
    0  -15    6      2.69      0.00
    0  -15    7     -0.03      0.00
    0  -15    8     -0.73      0.00
    0  -15    9     -0.38      0.00
    0  -15   10      0.00      0.00
    0  -14    1     -1.29      0.00
    0  -14    2      2.26      0.00
    0  -14    3     -0.49      0.00
    0  -14    4      2.37      0.00
    0  -14    5     -1.36      0.00
    0  -14    6      0.19      0.00
    0  -14    7     -0.04      0.00
    0  -14    8      1.23      0.00
    0  -14    9      0.86      0.00
    0  -14   10     -0.88      0.00
    0  -14   11     -0.55      0.00
    0  -13    1      3.13      0.00
    0  -13    2      0.43      0.00
    0  -13    3      3.41      0.00
    0  -13    4     -1.29      0.00
    0  -13    5      1.67      0.00
    0  -13    6     -0.07      0.00
    0  -13    7      2.96      0.00
    0  -13    8     -0.78      0.00
    0  -13    9      1.96      0.00
    0  -13   10      2.39      0.00
    0  -13   11      1.26      0.00
    0  -13   12     -1.64      0.00
    0  -12    1     -5.89      0.00
    0  -12    2     -0.35      0.00
    0  -12    3     -3.35      0.00
    0  -12    4      4.10      0.00
    0  -12    5      0.18      0.00
    0  -12    6      1.04      0.00
    0  -12    7     -1.53      0.00
    0  -12    8      2.37      0.00
    0  -12    9     -1.44      0.00
    0  -12   10     -2.77      0.00
    0  -12   11     -3.47      0.00
    0  -12   12     -1.11      0.00
    0  -12   13     -4.26      0.00
    0  -11    1      2.79      0.00
    0  -11    2      2.29      0.00
    0  -11    3     -0.99      0.00
    0  -11    4     -3.31      0.00
    0  -11    5     -4.43      0.00
    0  -11    6     -1.79      0.00
    0  -11    7     -3.02      0.00
    0  -11    8     -3.28      0.00
    0  -11    9      0.34      0.00
    0  -11   10      4.07      0.00
    0  -11   11      3.15      0.00
    0  -11   12      2.86      0.00
    0  -11   13      2.82      0.00
    0  -11   14      1.28      0.00
    0  -10    1     -0.93      0.00
    0  -10    2     -4.44      0.00
    0  -10    3     -0.88      0.00
    0  -10    4     -1.97      0.00
    0  -10    5      2.34      0.00
    0  -10    6      0.13      0.00
    0  -10    7      9.22      0.00
    0  -10    8      6.07      0.00
    0  -10    9      3.66      0.00
    0  -10   10     -2.28      0.00
    0  -10   11     -4.51      0.00
    0  -10   12     -4.12      0.00
    0  -10   13     -5.05      0.00
    0  -10   14     -2.36      0.00
    0  -10   15     -3.37      0.00
    0   -9    1     -0.62      0.00
    0   -9    2      4.99      0.00
    0   -9    3     -0.33      0.00
    0   -9    4      5.41      0.00
    0   -9    5      0.76      0.00
    0   -9    6      3.67      0.00
    0   -9    7     -7.88      0.00
    0   -9    8     -3.59      0.00
    0   -9    9     -4.93      0.00
    0   -9   10     -0.07      0.00
    0   -9   11     -1.26      0.00
    0   -9   12     -0.12      0.00
    0   -9   13     -2.34      0.00
    0   -9   14      0.63      0.00
    0   -9   15      1.52      0.00
    0   -9   16      2.83      0.00
    0   -8    1      5.62      0.00
    0   -8    2      2.64      0.00
    0   -8    3      1.05      0.00
    0   -8    4     -1.05      0.00
    0   -8    5      0.04      0.00
    0   -8    6     -2.04      0.00
    0   -8    7      8.53      0.00
    0   -8    8      1.48      0.00
    0   -8    9      3.94      0.00
    0   -8   10     -0.46      0.00
    0   -8   11     -1.58      0.00
    0   -8   12      0.47      0.00
    0   -8   13      0.73      0.00
    0   -8   14      0.45      0.00
    0   -8   15     -1.86      0.00
    0   -8   16     -0.49      0.00
    0   -7    1     -4.31      0.00
    0   -7    2     -2.89      0.00
    0   -7    3     -1.65      0.00
    0   -7    4     -1.34      0.00
    0   -7    5      3.90      0.00
    0   -7    6      4.86      0.00
    0   -7    7      1.92      0.00
    0   -7    8      0.74      0.00
    0   -7    9     -3.52      0.00
    0   -7   10     -4.08      0.00
    0   -7   11     -3.22      0.00
    0   -7   12     -3.16      0.00
    0   -7   13     -4.57      0.00
    0   -7   14      1.19      0.00
    0   -7   15      2.14      0.00
    0   -7   16      4.31      0.00
    0   -7   17      0.48      0.00
    0   -6    1      4.59      0.00
    0   -6    2      9.98      0.00
    0   -6    3      8.10      0.00
    0   -6    4     16.04      0.00
    0   -6    5      9.61      0.00
    0   -6    6      2.89      0.00
    0   -6    7      2.56      0.00
    0   -6    8     -1.29      0.00
    0   -6    9      4.54      0.00
    0   -6   10      1.75      0.00
    0   -6   11     -0.42      0.00
    0   -6   12      3.16      0.00
    0   -6   13      4.55      0.00
    0   -6   14      3.73      0.00
    0   -6   15     -0.04      0.00
    0   -6   16     -0.27      0.00
    0   -6   17      0.43      0.00
    0   -5    1     -5.91      0.00
    0   -5    2      1.76      0.00
    0   -5    3     -8.41      0.00
    0   -5    4    -13.62      0.00
    0   -5    5     -9.23      0.00
    0   -5    6     -1.16      0.00
    0   -5    7      3.91      0.00
    0   -5    8     -0.48      0.00
    0   -5    9     -4.82      0.00
    0   -5   10     -2.43      0.00
    0   -5   11      1.36      0.00
    0   -5   12      0.23      0.00
    0   -5   13     -4.88      0.00
    0   -5   14     -1.10      0.00
    0   -5   15     -0.28      0.00
    0   -5   16      1.79      0.00
    0   -5   17     -1.46      0.00
    0   -5   18     -0.62      0.00
    0   -4    1     -7.03      0.00
    0   -4    2    -10.34      0.00
    0   -4    3     -1.99      0.00
    0   -4    4      8.92      0.00
    0   -4    5     12.62      0.00
    0   -4    6     -1.25      0.00
    0   -4    7      3.33      0.00
    0   -4    8     -2.32      0.00
    0   -4    9      5.55      0.00
    0   -4   10     -5.96      0.00
    0   -4   11     -8.62      0.00
    0   -4   12     -4.43      0.00
    0   -4   13      2.47      0.00
    0   -4   14      3.36      0.00
    0   -4   15      0.49      0.00
    0   -4   16      1.01      0.00
    0   -4   17      0.95      0.00
    0   -4   18      0.38      0.00
    0   -3    1      8.06      0.00
    0   -3    2     29.26      0.00
    0   -3    3     10.37      0.00
    0   -3    4      0.26      0.00
    0   -3    5     -9.14      0.00
    0   -3    6     -1.19      0.00
    0   -3    7     -4.99      0.00
    0   -3    8     -7.80      0.00
    0   -3    9    -11.86      0.00
    0   -3   10     -1.62      0.00
    0   -3   11      2.79      0.00
    0   -3   12      2.91      0.00
    0   -3   13     -4.30      0.00
    0   -3   14     -1.20      0.00
    0   -3   15     -1.55      0.00
    0   -3   16     -1.66      0.00
    0   -3   17     -3.04      0.00
    0   -3   18     -0.95      0.00
    0   -2    1      8.44      0.00
    0   -2    2     -1.78      0.00
    0   -2    3    -14.41      0.00
    0   -2    4     -3.44      0.00
    0   -2    5      1.12      0.00
    0   -2    6     -8.26      0.00
    0   -2    7      5.36      0.00
    0   -2    8      2.69      0.00
    0   -2    9     10.09      0.00
    0   -2   10     -0.58      0.00
    0   -2   11     -4.29      0.00
    0   -2   12     -2.31      0.00
    0   -2   13      0.66      0.00
    0   -2   14     -0.30      0.00
    0   -2   15     -1.59      0.00
    0   -2   16      0.71      0.00
    0   -2   17      0.80      0.00
    0   -2   18      0.05      0.00
    0   -2   19     -1.80      0.00
    0   -1    2      7.90      0.00
    0   -1    3     12.40      0.00
    0   -1    4      0.19      0.00
    0   -1    5      2.77      0.00
    0   -1    6      8.23      0.00
    0   -1    7      4.75      0.00
    0   -1    8     -3.04      0.00
    0   -1    9     -6.99      0.00
    0   -1   10     -6.71      0.00
    0   -1   11     -2.32      0.00
    0   -1   12      0.68      0.00
    0   -1   13      1.07      0.00
    0   -1   14      4.75      0.00
    0   -1   15      3.28      0.00
    0   -1   16      0.92      0.00
    0   -1   17      0.10      0.00
    0   -1   18      1.02      0.00
    0   -1   19      1.38      0.00
    0    0    4     10.85      0.00
    0    0    5     -1.60      0.00
    0    0    6    -14.66      0.00
    0    0    8     -4.04      0.00
    0    0    9      0.38      0.00
    0    0   10      7.90      0.00
    0    0   11      2.41      0.00
    0    0   12      3.66      0.00
    0    0   13     -2.29      0.00
    0    0   14     -3.40      0.00
    0    0   15     -4.99      0.00
    0    0   16     -2.66      0.00
    0    0   17     -2.92      0.00
    0    0   18     -2.34      0.00
    0    0   19     -1.26      0.00
    0    1    2    -11.53      0.00
    0    1    4    -10.09      0.00
    0    1    5      3.00      0.00
    0    1    6     18.99      0.00
    0    1    7     18.74      0.00
    0    1    8     13.54      0.00
    0    1    9      8.90      0.00
    0    1   10     -4.81      0.00
    0    1   11     -2.71      0.00
    0    1   12     -0.38      0.00
    0    1   13      2.87      0.00
    0    1   14      3.99      0.00
    0    1   15      3.52      0.00
    0    1   16      1.76      0.00
    0    1   17      3.13      0.00
    0    1   18      3.05      0.00
    0    1   19      1.95      0.00
    0    2    1      1.76      0.00
    0    2    3      4.59      0.00
    0    2    4     -1.43      0.00
    0    2    5      0.01      0.00
    0    2    6    -17.66      0.00
    0    2    7     -6.05      0.00
    0    2    8    -11.48      0.00
    0    2    9     -9.29      0.00
    0    2   10      6.19      0.00
    0    2   11      2.83      0.00
    0    2   12      6.03      0.00
    0    2   13      1.56      0.00
    0    2   14      1.74      0.00
    0    2   15     -0.76      0.00
    0    2   16     -0.32      0.00
    0    2   17     -2.75      0.00
    0    2   18     -3.31      0.00
    0    2   19     -1.72      0.00
    0    3    2      5.52      0.00
    0    3    3    -14.28      0.00
    0    3    4     -3.46      0.00
    0    3    5     -5.03      0.00
    0    3    6     10.53      0.00
    0    3    7      1.96      0.00
    0    3    8     15.14      0.00
    0    3    9     11.32      0.00
    0    3   10      2.43      0.00
    0    3   11     -1.15      0.00
    0    3   12      0.18      0.00
    0    3   13     -3.11      0.00
    0    3   14     -1.67      0.00
    0    3   15     -2.67      0.00
    0    3   16     -2.29      0.00
    0    3   17      0.98      0.00
    0    3   18      3.00      0.00
    0    3   19      2.53      0.00
    0    4    0      1.25      0.00
    0    4    1     -7.12      0.00
    0    4    2    -16.60      0.00
    0    4    3      0.53      0.00
    0    4    4     -8.82      0.00
    0    4    5      8.69      0.00
    0    4    6      1.33      0.00
    0    4    7     15.27      0.00
    0    4    8     -7.64      0.00
    0    4    9     -9.96      0.00
    0    4   10     -4.51      0.00
    0    4   11     -4.54      0.00
    0    4   12     -3.11      0.00
    0    4   13     -1.02      0.00
    0    4   14     -2.27      0.00
    0    4   15      1.00      0.00
    0    4   16      1.82      0.00
    0    4   17      1.46      0.00
    0    4   18     -1.65      0.00
    0    4   19     -0.39      0.00
    0    5    0     -4.85      0.00
    0    5    1    -11.83      0.00
    0    5    2      1.52      0.00
    0    5    3     -4.87      0.00
    0    5    4     -1.01      0.00
    0    5    5     -6.68      0.00
    0    5    6    -11.72      0.00
    0    5    7    -18.78      0.00
    0    5    8      3.58      0.00
    0    5    9      2.75      0.00
    0    5   10      4.80      0.00
    0    5   11      0.64      0.00
    0    5   12      5.65      0.00
    0    5   13      0.48      0.00
    0    5   14      4.85      0.00
    0    5   15     -1.88      0.00
    0    5   16     -2.15      0.00
    0    5   17     -2.37      0.00
    0    5   18      0.57      0.00
    0    5   19      0.19      0.00
    0    6    0     11.35      0.00
    0    6    1      5.16      0.00
    0    6    2     -8.66      0.00
    0    6    3    -10.78      0.00
    0    6    4    -13.45      0.00
    0    6    5     -2.67      0.00
    0    6    6      6.92      0.00
    0    6    7     14.60      0.00
    0    6    8     -1.75      0.00
    0    6    9     -1.29      0.00
    0    6   10     -0.83      0.00
    0    6   11     -2.37      0.00
    0    6   12     -6.09      0.00
    0    6   13     -6.41      0.00
    0    6   14    -10.07      0.00
    0    6   15     -1.37      0.00
    0    6   16      0.24      0.00
    0    6   17      4.01      0.00
    0    6   18      0.99      0.00
    0    6   19      2.35      0.00
    0    7    1     -1.90      0.00
    0    7    2      2.81      0.00
    0    7    3     18.02      0.00
    0    7    4     11.28      0.00
    0    7    5     14.14      0.00
    0    7    6     -1.62      0.00
    0    7    7     -2.65      0.00
    0    7    8      3.73      0.00
    0    7    9     -2.27      0.00
    0    7   10     -1.45      0.00
    0    7   11     -2.96      0.00
    0    7   12      2.48      0.00
    0    7   13      3.71      0.00
    0    7   14      8.23      0.00
    0    7   15      1.57      0.00
    0    7   16      0.95      0.00
    0    7   17     -1.26      0.00
    0    7   18     -0.66      0.00
    0    7   19     -0.97      0.00
    0    8    0     10.96      0.00
    0    8    1      5.64      0.00
    0    8    2     -0.53      0.00
    0    8    3    -13.32      0.00
    0    8    4    -18.06      0.00
    0    8    5    -17.54      0.00
    0    8    6    -12.82      0.00
    0    8    7     -7.99      0.00
    0    8    8     -7.96      0.00
    0    8    9      1.69      0.00
    0    8   10      3.50      0.00
    0    8   11      3.54      0.00
    0    8   12      1.56      0.00
    0    8   13     -3.16      0.00
    0    8   14     -5.90      0.00
    0    8   15     -1.17      0.00
    0    8   16     -1.10      0.00
    0    8   17      1.45      0.00
    0    8   18      0.81      0.00
    0    9    0     -2.18      0.00
    0    9    1     -2.71      0.00
    0    9    2     -7.53      0.00
    0    9    3      7.82      0.00
    0    9    4      5.52      0.00
    0    9    5     14.95      0.00
    0    9    6     12.41      0.00
    0    9    7     14.37      0.00
    0    9    8     12.88      0.00
    0    9    9      2.48      0.00
    0    9   10      2.71      0.00
    0    9   11     -2.53      0.00
    0    9   12     -3.52      0.00
    0    9   13      0.14      0.00
    0    9   14      0.99      0.00
    0    9   15      0.71      0.00
    0    9   16      0.57      0.00
    0    9   17      1.52      0.00
    0    9   18     -0.09      0.00
    0   10    0      0.40      0.00
    0   10    1      7.99      0.00
    0   10    2      9.13      0.00
    0   10    3      4.00      0.00
    0   10    4     -2.13      0.00
    0   10    5     -2.46      0.00
    0   10    6     -8.99      0.00
    0   10    7     -6.28      0.00
    0   10    8    -10.20      0.00
    0   10    9     -0.43      0.00
    0   10   10     -4.26      0.00
    0   10   11      2.38      0.00
    0   10   12      4.84      0.00
    0   10   13      1.83      0.00
    0   10   14      2.07      0.00
    0   10   15      1.71      0.00
    0   10   16      1.16      0.00
    0   10   17     -0.40      0.00
    0   10   18     -0.13      0.00
    0   11    0     -1.51      0.00
    0   11    1     -4.89      0.00
    0   11    2    -13.99      0.00
    0   11    3     -6.30      0.00
    0   11    4    -10.53      0.00
    0   11    5     -4.48      0.00
    0   11    6     -4.90      0.00
    0   11    7     -0.81      0.00
    0   11    8      4.53      0.00
    0   11    9     -0.43      0.00
    0   11   10      5.55      0.00
    0   11   11     -1.71      0.00
    0   11   12     -5.04      0.00
    0   11   13     -1.83      0.00
    0   11   14     -4.13      0.00
    0   11   15     -1.26      0.00
    0   11   16     -2.08      0.00
    0   11   17      2.03      0.00
    0   12    0     -0.39      0.00
    0   12    1     -1.99      0.00
    0   12    2      3.91      0.00
    0   12    3      4.84      0.00
    0   12    4      6.20      0.00
    0   12    5      9.39      0.00
    0   12    6      8.53      0.00
    0   12    7      5.82      0.00
    0   12    8     -3.36      0.00
    0   12    9     -0.98      0.00
    0   12   10     -7.51      0.00
    0   12   11     -1.24      0.00
    0   12   12      1.55      0.00
    0   12   13     -0.41      0.00
    0   12   14      2.42      0.00
    0   12   15      2.45      0.00
    0   12   16      3.50      0.00
    0   13    0     -1.93      0.00
    0   13    1      6.11      0.00
    0   13    2     -1.75      0.00
    0   13    3      2.38      0.00
    0   13    4     -4.77      0.00
    0   13    5     -4.04      0.00
    0   13    6    -12.95      0.00
    0   13    7     -6.07      0.00
    0   13    8     -2.39      0.00
    0   13    9      0.03      0.00
    0   13   10      4.42      0.00
    0   13   11      2.71      0.00
    0   13   12     -0.43      0.00
    0   13   13      3.30      0.00
    0   13   14     -1.59      0.00
    0   13   15     -0.87      0.00
    0   13   16     -3.43      0.00
    0   14    0     -0.28      0.00
    0   14    1     -7.45      0.00
    0   14    2     -3.50      0.00
    0   14    3     -2.27      0.00
    0   14    4     -1.58      0.00
    0   14    5      1.32      0.00
    0   14    6      5.34      0.00
    0   14    7     -0.12      0.00
    0   14    8     -1.11      0.00
    0   14    9     -2.86      0.00
    0   14   10     -3.59      0.00
    0   14   11     -3.43      0.00
    0   14   12     -1.99      0.00
    0   14   13     -5.16      0.00
    0   14   14     -2.08      0.00
    0   14   15     -0.12      0.00
    0   15    0     -0.23      0.00
    0   15    1      4.15      0.00
    0   15    2      2.43      0.00
    0   15    3      5.43      0.00
    0   15    4      3.29      0.00
    0   15    5      2.39      0.00
    0   15    6     -4.51      0.00
    0   15    7     -0.45      0.00
    0   15    8     -3.24      0.00
    0   15    9     -0.73      0.00
    0   15   10     -1.24      0.00
    0   15   11      0.31      0.00
    0   15   12     -1.22      0.00
    0   15   13      2.40      0.00
    0   15   14     -0.13      0.00
    0   16    0     -0.65      0.00
    0   16    1      0.64      0.00
    0   16    2      0.56      0.00
    0   16    3      0.46      0.00
    0   16    4     -2.07      0.00
    0   16    5     -1.63      0.00
    0   16    6     -1.39      0.00
    0   16    7     -2.34      0.00
    0   16    8      1.10      0.00
    0   16    9      1.92      0.00
    0   16   10      3.68      0.00
    0   16   11      3.31      0.00
    0   16   12      2.03      0.00
    0   16   13     -0.27      0.00
    0   17    0     -1.06      0.00
    0   17    1     -1.98      0.00
    0   17    2     -1.16      0.00
    0   17    3      0.97      0.00
    0   17    4      0.63      0.00
    0   17    5      1.19      0.00
    0   17    6      1.54      0.00
    0   17    7      0.61      0.00
    0   17    8      0.79      0.00
    0   17    9     -1.05      0.00
    0   17   10     -1.10      0.00
    0   17   11     -2.90      0.00
    0   18    0      1.65      0.00
    0   18    1      2.49      0.00
    0   18    2      2.42      0.00
    0   18    3      2.07      0.00
    0   18    4      1.58      0.00
    0   18    5     -0.52      0.00
    0   18    6     -2.47      0.00
    0   18    7     -1.11      0.00
    0   18    8     -1.73      0.00
    0   18    9      0.70      0.00
    0   19    0     -1.87      0.00
    0   19    1      0.29      0.00
    0   19    2     -0.83      0.00
    0   19    3     -0.88      0.00
    0   19    4     -2.18      0.00
    0   19    5     -0.50      0.00
    0   19    6      1.20      0.00
   -1   19    0      0.21      0.00
   -1   18    0      1.83      0.00
    1  -18    1      0.58      0.00
    1  -18    2      0.81      0.00
    1  -18    3      0.61      0.00
    1  -18    4      0.76      0.00
   -1   17    0     -1.74      0.00
    1  -17    1      1.35      0.00
    1  -17    2     -1.44      0.00
    1  -17    3      0.82      0.00
    1  -17    4     -1.98      0.00
    1  -17    5     -0.10      0.00
    1  -17    6      0.75      0.00
   -1   16    0      1.50      0.00
    1  -16    1     -0.07      0.00
    1  -16    2      0.59      0.00
    1  -16    3     -0.59      0.00
    1  -16    4      1.18      0.00
    1  -16    5      0.86      0.00
    1  -16    6     -0.72      0.00
    1  -16    7     -1.16      0.00
    1  -16    8      0.97      0.00
   -1   15    0      0.79      0.00
    1  -15    1     -2.41      0.00
    1  -15    2     -2.43      0.00
    1  -15    3     -0.14      0.00
    1  -15    4     -0.88      0.00
    1  -15    5     -1.45      0.00
    1  -15    6      1.79      0.00
    1  -15    7      0.21      0.00
    1  -15    8      0.11      0.00
    1  -15    9     -0.22      0.00
    1  -15   10     -1.09      0.00
   -1   14    0     -2.54      0.00
    1  -14    1      4.91      0.00
    1  -14    2      0.09      0.00
    1  -14    3      1.43      0.00
    1  -14    4     -1.41      0.00
    1  -14    5      2.02      0.00
    1  -14    6     -1.79      0.00
    1  -14    7     -1.15      0.00
    1  -14    8     -0.67      0.00
    1  -14    9     -1.10      0.00
    1  -14   10     -0.07      0.00
    1  -14   11     -1.81      0.00
   -1   13    0      1.38      0.00
    1  -13    1     -6.20      0.00
    1  -13    2     -2.32      0.00
    1  -13    3     -0.73      0.00
    1  -13    4      1.06      0.00
    1  -13    5     -1.26      0.00
    1  -13    6      0.07      0.00
    1  -13    7     -0.26      0.00
    1  -13    8     -0.14      0.00
    1  -13    9     -0.57      0.00
    1  -13   10     -0.15      0.00
    1  -13   11      1.20      0.00
    1  -13   12      0.85      0.00
   -1   12    0      0.76      0.00
    1  -12    1      4.24      0.00
    1  -12    2      1.95      0.00
    1  -12    3      1.08      0.00
    1  -12    4      0.38      0.00
    1  -12    5      1.29      0.00
    1  -12    6      2.55      0.00
    1  -12    7     -0.79      0.00
    1  -12    8      1.31      0.00
    1  -12    9      1.01      0.00
    1  -12   10      0.89      0.00
    1  -12   11      0.25      0.00
    1  -12   12     -0.94      0.00
    1  -12   13      0.48      0.00
   -1   11    0     -2.05      0.00
    1  -11    1     -0.81      0.00
    1  -11    2     -2.84      0.00
    1  -11    3      1.31      0.00
    1  -11    4     -2.54      0.00
    1  -11    5      0.39      0.00
    1  -11    6     -3.42      0.00
    1  -11    7      2.47      0.00
    1  -11    8     -2.30      0.00
    1  -11    9     -0.56      0.00
    1  -11   10     -2.41      0.00
    1  -11   11     -0.04      0.00
    1  -11   12     -1.04      0.00
    1  -11   13     -0.70      0.00
    1  -11   14      0.08      0.00
   -1   10    0      2.44      0.00
    1  -10    1     -0.87      0.00
    1  -10    2      0.41      0.00
    1  -10    3     -2.50      0.00
    1  -10    4      0.26      0.00
    1  -10    5     -2.78      0.00
    1  -10    6      0.67      0.00
    1  -10    7     -4.57      0.00
    1  -10    8      2.52      0.00
    1  -10    9      0.92      0.00
    1  -10   10      1.71      0.00
    1  -10   11      0.44      0.00
    1  -10   12     -0.99      0.00
    1  -10   13      0.22      0.00
    1  -10   14     -1.04      0.00
    1  -10   15      0.46      0.00
   -1    9    0     -0.51      0.00
    1   -9    1     -2.60      0.00
    1   -9    2     -1.86      0.00
    1   -9    3     -1.61      0.00
    1   -9    4     -3.08      0.00
    1   -9    5     -0.65      0.00
    1   -9    6      0.19      0.00
    1   -9    7      2.71      0.00
    1   -9    8     -3.15      0.00
    1   -9    9     -1.62      0.00
    1   -9   10     -2.42      0.00
    1   -9   11      0.51      0.00
    1   -9   12     -0.58      0.00
    1   -9   13     -0.27      0.00
    1   -9   14     -2.37      0.00
    1   -9   15     -0.35      0.00
   -1    8    0      1.83      0.00
    1   -8    1      8.15      0.00
    1   -8    2     -0.16      0.00
    1   -8    3      3.34      0.00
    1   -8    4     -0.42      0.00
    1   -8    5      1.80      0.00
    1   -8    6     -0.07      0.00
    1   -8    7      0.38      0.00
    1   -8    8      4.71      0.00
    1   -8    9      2.24      0.00
    1   -8   10      0.01      0.00
    1   -8   11     -1.43      0.00
    1   -8   12     -2.74      0.00
    1   -8   13      0.29      0.00
    1   -8   14      0.92      0.00
    1   -8   15      0.25      0.00
    1   -8   16     -1.44      0.00
   -1    7    0     -1.84      0.00
    1   -7    1     -9.77      0.00
    1   -7    2     -1.08      0.00
    1   -7    3     -2.83      0.00
    1   -7    4      1.82      0.00
    1   -7    5     -0.30      0.00
    1   -7    6      4.05      0.00
    1   -7    7      1.44      0.00
    1   -7    8     -0.16      0.00
    1   -7    9     -1.55      0.00
    1   -7   10     -0.53      0.00
    1   -7   11      0.58      0.00
    1   -7   12      0.64      0.00
    1   -7   13     -0.02      0.00
    1   -7   14     -2.74      0.00
    1   -7   15      0.66      0.00
    1   -7   16      1.53      0.00
    1   -7   17      2.57      0.00
   -1    6    0      4.25      0.00
    1   -6    1     12.61      0.00
    1   -6    2      0.95      0.00
    1   -6    3      4.11      0.00
    1   -6    4     -0.58      0.00
    1   -6    5      3.17      0.00
    1   -6    6      4.01      0.00
    1   -6    7     -0.45      0.00
    1   -6    8      2.81      0.00
    1   -6    9     -0.90      0.00
    1   -6   10      0.03      0.00
    1   -6   11     -2.08      0.00
    1   -6   12     -3.53      0.00
    1   -6   13     -0.05      0.00
    1   -6   14      1.78      0.00
    1   -6   15      2.03      0.00
    1   -6   16     -0.69      0.00
    1   -6   17      0.23      0.00
   -1    5    0     -8.44      0.00
    1   -5    1    -10.18      0.00
    1   -5    2     -5.25      0.00
    1   -5    3      2.55      0.00
    1   -5    4      2.22      0.00
    1   -5    5      2.08      0.00
    1   -5    6      1.60      0.00
    1   -5    7      7.29      0.00
    1   -5    8      4.62      0.00
    1   -5    9      1.80      0.00
    1   -5   10     -2.28      0.00
    1   -5   11      0.20      0.00
    1   -5   12      2.25      0.00
    1   -5   13      2.49      0.00
    1   -5   14     -1.48      0.00
    1   -5   15      0.88      0.00
    1   -5   16      1.60      0.00
    1   -5   17      2.15      0.00
   -1    4    0     -4.22      0.00
    1   -4    1     16.87      0.00
    1   -4    2      1.88      0.00
    1   -4    3      1.39      0.00
    1   -4    4     -0.15      0.00
    1   -4    5      3.25      0.00
    1   -4    6      8.06      0.00
    1   -4    7     -5.42      0.00
    1   -4    8      3.29      0.00
    1   -4    9     -0.69      0.00
    1   -4   10      6.26      0.00
    1   -4   11     -0.05      0.00
    1   -4   12     -3.23      0.00
    1   -4   13     -1.11      0.00
    1   -4   14      2.00      0.00
    1   -4   15      1.26      0.00
    1   -4   16     -1.32      0.00
    1   -4   17     -0.61      0.00
    1   -4   18      0.68      0.00
   -1    3    0     -4.48      0.00
    1   -3    1    -27.49      0.00
    1   -3    2     -9.73      0.00
    1   -3    3      2.10      0.00
    1   -3    4     -0.62      0.00
    1   -3    5     -4.42      0.00
    1   -3    6     -2.42      0.00
    1   -3    7      6.47      0.00
    1   -3    8      2.95      0.00
    1   -3    9     -0.92      0.00
    1   -3   10     -6.93      0.00
    1   -3   11     -2.52      0.00
    1   -3   12      0.26      0.00
    1   -3   13      0.52      0.00
    1   -3   14     -3.63      0.00
    1   -3   15      0.68      0.00
    1   -3   16      0.59      0.00
    1   -3   17      1.22      0.00
    1   -3   18     -1.55      0.00
   -1    2    0    -12.95      0.00
    1   -2    1     53.19      0.00
    1   -2    2      7.23      0.00
    1   -2    3      7.02      0.00
    1   -2    4     -0.65      0.00
    1   -2    5      5.91      0.00
    1   -2    6      4.18      0.00
    1   -2    7     -7.85      0.00
    1   -2    8     -0.88      0.00
    1   -2    9     -4.28      0.00
    1   -2   10     -0.20      0.00
    1   -2   11     -4.23      0.00
    1   -2   12     -6.44      0.00
    1   -2   13     -1.38      0.00
    1   -2   14      1.39      0.00
    1   -2   15     -0.31      0.00
    1   -2   16     -1.02      0.00
    1   -2   17     -0.66      0.00
    1   -2   18     -0.15      0.00
   -1    1    0     19.00      0.00
    1   -1    1    -36.32      0.00
    1   -1    2      8.29      0.00
    1   -1    3     15.41      0.00
    1   -1    4      7.39      0.00
    1   -1    5     -4.72      0.00
    1   -1    6     -1.82      0.00
    1   -1    7      2.27      0.00
    1   -1    8      1.12      0.00
    1   -1    9     -1.16      0.00
    1   -1   10     -2.97      0.00
    1   -1   11     -1.98      0.00
    1   -1   12     -0.26      0.00
    1   -1   13     -0.75      0.00
    1   -1   14     -2.10      0.00
    1   -1   15      1.13      0.00
    1   -1   16     -0.28      0.00
    1   -1   17     -0.16      0.00
    1   -1   18     -0.39      0.00
    1   -1   19      0.46      0.00
    1    0    2      1.65      0.00
    1    0    3     -2.46      0.00
    1    0    4     -4.38      0.00
    1    0    5      1.17      0.00
    1    0    6      3.95      0.00
    1    0    7     -5.10      0.00
    1    0    8      2.33      0.00
    1    0    9     -1.55      0.00
    1    0   10     -1.64      0.00
    1    0   11      1.18      0.00
    1    0   12     -1.73      0.00
    1    0   13      2.38      0.00
    1    0   14      0.59      0.00
    1    0   15      0.51      0.00
    1    0   16      0.05      0.00
    1    0   17      0.55      0.00
    1    0   18     -0.76      0.00
    1    0   19     -0.53      0.00
    1    1    1    -26.85      0.00
    1    1    2     18.15      0.00
    1    1    3     25.44      0.00
    1    1    4      9.19      0.00
    1    1    5      1.77      0.00
    1    1    6     -0.97      0.00
    1    1    7      5.45      0.00
    1    1    8     -1.66      0.00
    1    1    9      0.80      0.00
    1    1   10     -2.18      0.00
    1    1   11     -3.84      0.00
    1    1   12     -2.10      0.00
    1    1   13      1.33      0.00
    1    1   14      2.36      0.00
    1    1   15      2.48      0.00
    1    1   16      0.63      0.00
    1    1   17     -0.67      0.00
    1    1   18     -0.02      0.00
    1    1   19      0.14      0.00
    1    2    0     21.67      0.00
    1    2    1     62.75      0.00
    1    2    2      9.79      0.00
    1    2    3      1.04      0.00
    1    2    4      4.13      0.00
    1    2    5      0.33      0.00
    1    2    6      5.63      0.00
    1    2    7     -5.70      0.00
    1    2    8      6.84      0.00
    1    2    9     -0.74      0.00
    1    2   10      0.03      0.00
    1    2   11      5.14      0.00
    1    2   12      1.34      0.00
    1    2   13      0.86      0.00
    1    2   14     -1.68      0.00
    1    2   15     -1.22      0.00
    1    2   16     -0.87      0.00
    1    2   17      0.30      0.00
    1    2   18      0.23      0.00
    1    2   19     -0.46      0.00
    1    3    0    -10.90      0.00
    1    3    1    -25.89      0.00
    1    3    2     -3.50      0.00
    1    3    3     -1.17      0.00
    1    3    4     -6.49      0.00
    1    3    5     -5.90      0.00
    1    3    6     -1.28      0.00
    1    3    7      6.17      0.00
    1    3    8     -4.37      0.00
    1    3    9      6.17      0.00
    1    3   10      1.00      0.00
    1    3   11      0.32      0.00
    1    3   12     -0.77      0.00
    1    3   13      4.02      0.00
    1    3   14      2.24      0.00
    1    3   15      3.06      0.00
    1    3   16      0.60      0.00
    1    3   17     -0.78      0.00
    1    3   18     -1.19      0.00
    1    3   19     -0.05      0.00
    1    4    0      3.54      0.00
    1    4    1     23.93      0.00
    1    4    2      0.88      0.00
    1    4    3      0.24      0.00
    1    4    4     -0.91      0.00
    1    4    5     -3.08      0.00
    1    4    6     -1.73      0.00
    1    4    7     -3.89      0.00
    1    4    8      7.72      0.00
    1    4    9     -4.02      0.00
    1    4   10     -3.36      0.00
    1    4   11      1.23      0.00
    1    4   12      0.24      0.00
    1    4   13     -0.34      0.00
    1    4   14     -0.15      0.00
    1    4   15     -2.20      0.00
    1    4   16     -0.34      0.00
    1    4   17      0.44      0.00
    1    4   18      1.51      0.00
    1    4   19     -0.61      0.00
    1    5    0      2.99      0.00
    1    5    1    -11.05      0.00
    1    5    2     -2.04      0.00
    1    5    3     -6.88      0.00
    1    5    4      0.26      0.00
    1    5    5     -4.02      0.00
    1    5    6      2.19      0.00
    1    5    7     -2.20      0.00
    1    5    8     -8.65      0.00
    1    5    9      5.56      0.00
    1    5   10      1.86      0.00
    1    5   11      1.11      0.00
    1    5   12     -2.49      0.00
    1    5   13     -0.45      0.00
    1    5   14     -1.83      0.00
    1    5   15      1.70      0.00
    1    5   16      0.53      0.00
    1    5   17     -0.16      0.00
    1    5   18      0.37      0.00
    1    5   19      0.88      0.00
    1    6    0     -5.62      0.00
    1    6    1      8.07      0.00
    1    6    2     -1.48      0.00
    1    6    3     -4.52      0.00
    1    6    4     -8.43      0.00
    1    6    5     -9.41      0.00
    1    6    6     -5.04      0.00
    1    6    7      0.35      0.00
    1    6    8      6.01      0.00
    1    6    9     -4.98      0.00
    1    6   10     -4.24      0.00
    1    6   11     -0.22      0.00
    1    6   12      0.39      0.00
    1    6   13      1.48      0.00
    1    6   14      0.52      0.00
    1    6   15     -1.90      0.00
    1    6   16     -0.31      0.00
    1    6   17      0.32      0.00
    1    6   18     -0.05      0.00
    1    6   19     -1.06      0.00
    1    7    0     -0.21      0.00
    1    7    1     -9.17      0.00
    1    7    2     -1.92      0.00
    1    7    3     -3.71      0.00
    1    7    4      3.95      0.00
    1    7    5     -1.52      0.00
    1    7    6     -1.69      0.00
    1    7    7     -6.93      0.00
    1    7    8     -7.23      0.00
    1    7    9      4.02      0.00
    1    7   10      1.12      0.00
    1    7   11      1.15      0.00
    1    7   12     -1.42      0.00
    1    7   13     -1.79      0.00
    1    7   14     -0.39      0.00
    1    7   15      0.15      0.00
    1    7   16     -0.36      0.00
    1    7   17     -2.18      0.00
    1    7   18     -0.03      0.00
    1    7   19     -1.02      0.00
    1    8    0      9.26      0.00
    1    8    1     11.97      0.00
    1    8    2      7.69      0.00
    1    8    3      0.35      0.00
    1    8    4     -1.55      0.00
    1    8    5     -5.46      0.00
    1    8    6      2.11      0.00
    1    8    7      2.04      0.00
    1    8    8      5.54      0.00
    1    8    9     -1.31      0.00
    1    8   10      2.04      0.00
    1    8   11      0.89      0.00
    1    8   12      1.01      0.00
    1    8   13      0.70      0.00
    1    8   14     -1.87      0.00
    1    8   15     -1.32      0.00
    1    8   16      0.25      0.00
    1    8   17      1.36      0.00
    1    8   18      0.63      0.00
    1    9    0     -2.16      0.00
    1    9    1     -5.78      0.00
    1    9    2     -1.21      0.00
    1    9    3     -5.82      0.00
    1    9    4      0.86      0.00
    1    9    5     -3.70      0.00
    1    9    6     -2.99      0.00
    1    9    7     -3.53      0.00
    1    9    8     -3.38      0.00
    1    9    9      2.10      0.00
    1    9   10     -2.91      0.00
    1    9   11      1.02      0.00
    1    9   12     -1.10      0.00
    1    9   13     -0.82      0.00
    1    9   14      1.94      0.00
    1    9   15     -0.65      0.00
    1    9   16     -0.55      0.00
    1    9   17     -2.25      0.00
    1    9   18     -0.56      0.00
    1   10    0      0.54      0.00
    1   10    1      3.55      0.00
    1   10    2      2.71      0.00
    1   10    3      2.10      0.00
    1   10    4      0.14      0.00
    1   10    5     -2.59      0.00
    1   10    6      0.93      0.00
    1   10    7     -0.48      0.00
    1   10    8      3.39      0.00
    1   10    9     -0.93      0.00
    1   10   10      5.25      0.00
    1   10   11     -0.14      0.00
    1   10   12      2.46      0.00
    1   10   13      0.70      0.00
    1   10   14     -1.96      0.00
    1   10   15     -0.63      0.00
    1   10   16     -0.27      0.00
    1   10   17      0.02      0.00
    1   10   18      0.17      0.00
    1   11    0      4.90      0.00
    1   11    1     -2.52      0.00
    1   11    2      1.30      0.00
    1   11    3     -5.96      0.00
    1   11    4      2.50      0.00
    1   11    5     -0.24      0.00
    1   11    6      4.76      0.00
    1   11    7      1.17      0.00
    1   11    8      2.24      0.00
    1   11    9      4.98      0.00
    1   11   10     -0.60      0.00
    1   11   11      3.15      0.00
    1   11   12     -1.08      0.00
    1   11   13     -1.64      0.00
    1   11   14      1.30      0.00
    1   11   15     -1.45      0.00
    1   11   16      0.57      0.00
    1   11   17     -0.11      0.00
    1   12    0     -5.55      0.00
    1   12    1     -0.48      0.00
    1   12    2     -2.37      0.00
    1   12    3     -0.87      0.00
    1   12    4     -1.23      0.00
    1   12    5     -3.71      0.00
    1   12    6     -2.18      0.00
    1   12    7     -0.41      0.00
    1   12    8     -1.45      0.00
    1   12    9     -5.66      0.00
    1   12   10     -1.07      0.00
    1   12   11     -3.87      0.00
    1   12   12      0.78      0.00
    1   12   13      0.65      0.00
    1   12   14     -1.24      0.00
    1   12   15      0.12      0.00
    1   12   16     -0.47      0.00
    1   13    0      0.67      0.00
    1   13    1     -4.12      0.00
    1   13    2     -0.01      0.00
    1   13    3     -3.80      0.00
    1   13    4      0.09      0.00
    1   13    5     -1.48      0.00
    1   13    6     -0.42      0.00
    1   13    7     -6.18      0.00
    1   13    8     -1.70      0.00
    1   13    9      0.88      0.00
    1   13   10     -0.26      0.00
    1   13   11      1.15      0.00
    1   13   12     -1.47      0.00
    1   13   13     -2.60      0.00
    1   13   14      0.03      0.00
    1   13   15     -1.65      0.00
    1   13   16      0.53      0.00
    1   14    0      0.34      0.00
    1   14    1      0.12      0.00
    1   14    2     -1.57      0.00
    1   14    3     -0.88      0.00
    1   14    4      2.32      0.00
    1   14    5      1.07      0.00
    1   14    6      4.48      0.00
    1   14    7      5.21      0.00
    1   14    8      1.66      0.00
    1   14    9     -0.76      0.00
    1   14   10      0.06      0.00
    1   14   11     -0.25      0.00
    1   14   12      1.73      0.00
    1   14   13      0.95      0.00
    1   14   14     -0.21      0.00
    1   14   15     -0.11      0.00
    1   15    0     -1.72      0.00
    1   15    1     -1.03      0.00
    1   15    2      1.33      0.00
    1   15    3     -0.58      0.00
    1   15    4      1.02      0.00
    1   15    5     -1.57      0.00
    1   15    6     -3.16      0.00
    1   15    7     -5.13      0.00
    1   15    8     -3.21      0.00
    1   15    9     -1.49      0.00
    1   15   10     -0.80      0.00
    1   15   11     -0.35      0.00
    1   15   12     -1.12      0.00
    1   15   13     -1.22      0.00
    1   15   14     -0.44      0.00
    1   16    0      0.17      0.00
    1   16    1     -1.07      0.00
    1   16    2     -0.45      0.00
    1   16    3      0.82      0.00
    1   16    4      1.04      0.00
    1   16    5      1.59      0.00
    1   16    6      1.89      0.00
    1   16    7     -0.28      0.00
    1   16    8     -0.10      0.00
    1   16    9     -1.13      0.00
    1   16   10     -0.46      0.00
    1   16   11     -0.53      0.00
    1   16   12     -0.09      0.00
    1   16   13     -1.55      0.00
    1   17    0      0.90      0.00
    1   17    1      0.85      0.00
    1   17    2      2.07      0.00
    1   17    3      0.93      0.00
    1   17    4      4.33      0.00
    1   17    5      1.10      0.00
    1   17    6      1.33      0.00
    1   17    7      1.78      0.00
    1   17    8     -0.92      0.00
    1   17    9      1.37      0.00
    1   17   10      0.32      0.00
    1   17   11      1.14      0.00
    1   18    0     -1.97      0.00
    1   18    1     -0.51      0.00
    1   18    2     -0.03      0.00
    1   18    3      0.78      0.00
    1   18    4     -0.77      0.00
    1   18    5      0.87      0.00
    1   18    6     -0.70      0.00
    1   18    7     -1.79      0.00
    1   18    8      0.53      0.00
    1   18    9     -0.61      0.00
    1   19    0      0.37      0.00
    1   19    1     -1.26      0.00
    1   19    2      1.16      0.00
    1   19    3      1.03      0.00
    1   19    4      2.54      0.00
    1   19    5      0.16      0.00
    1   19    6      0.10      0.00
   -2   18    0     -2.09      0.00
    2  -18    1      1.38      0.00
    2  -18    2     -0.89      0.00
    2  -18    3      0.69      0.00
   -2   17    0      2.25      0.00
    2  -17    1     -1.18      0.00
    2  -17    2      2.75      0.00
    2  -17    3     -0.18      0.00
    2  -17    4      0.31      0.00
    2  -17    5     -0.29      0.00
    2  -17    6     -0.87      0.00
   -2   16    0      0.59      0.00
    2  -16    1      1.17      0.00
    2  -16    2      0.03      0.00
    2  -16    3      0.42      0.00
    2  -16    4     -0.26      0.00
    2  -16    5      0.67      0.00
    2  -16    6      1.52      0.00
    2  -16    7      1.60      0.00
   -2   15    0     -0.79      0.00
    2  -15    1      0.34      0.00
    2  -15    2     -0.51      0.00
    2  -15    3     -1.01      0.00
    2  -15    4      0.90      0.00
    2  -15    5     -1.10      0.00
    2  -15    6     -3.24      0.00
    2  -15    7     -0.88      0.00
    2  -15    8      0.37      0.00
    2  -15    9      0.87      0.00
   -2   14    0      2.94      0.00
    2  -14    1     -0.83      0.00
    2  -14    2      4.29      0.00
    2  -14    3      0.52      0.00
    2  -14    4     -0.77      0.00
    2  -14    5      0.54      0.00
    2  -14    6      2.22      0.00
    2  -14    7      1.57      0.00
    2  -14    8     -0.46      0.00
    2  -14    9      0.70      0.00
    2  -14   10      0.31      0.00
   -2   13    0     -1.13      0.00
    2  -13    1      0.59      0.00
    2  -13    2     -4.68      0.00
    2  -13    3     -2.12      0.00
    2  -13    4      0.34      0.00
    2  -13    5     -0.94      0.00
    2  -13    6     -2.15      0.00
    2  -13    7     -1.68      0.00
    2  -13    8     -1.01      0.00
    2  -13    9     -1.17      0.00
    2  -13   10     -1.28      0.00
    2  -13   11     -1.03      0.00
   -2   12    0     -0.03      0.00
    2  -12    1     -0.36      0.00
    2  -12    2      5.80      0.00
    2  -12    3      1.25      0.00
    2  -12    4     -0.54      0.00
    2  -12    5     -1.08      0.00
    2  -12    6     -1.00      0.00
    2  -12    7      0.58      0.00
    2  -12    8     -0.60      0.00
    2  -12    9     -0.18      0.00
    2  -12   10      0.57      0.00
    2  -12   11     -0.47      0.00
    2  -12   12      0.05      0.00
    2  -12   13     -1.01      0.00
   -2   11    0      1.96      0.00
    2  -11    1      1.49      0.00
    2  -11    2     -3.76      0.00
    2  -11    3     -1.76      0.00
    2  -11    4     -0.37      0.00
    2  -11    5      0.64      0.00
    2  -11    6      0.63      0.00
    2  -11    7     -0.18      0.00
    2  -11    8      1.25      0.00
    2  -11    9      0.44      0.00
    2  -11   10      0.53      0.00
    2  -11   11     -0.80      0.00
    2  -11   12      0.67      0.00
    2  -11   13     -0.05      0.00
   -2   10    0     -0.68      0.00
    2  -10    1     -0.75      0.00
    2  -10    2      4.65      0.00
    2  -10    3      1.71      0.00
    2  -10    4      0.64      0.00
    2  -10    5     -0.81      0.00
    2  -10    6     -0.44      0.00
    2  -10    7      0.23      0.00
    2  -10    8     -0.92      0.00
    2  -10    9     -0.68      0.00
    2  -10   10      0.59      0.00
    2  -10   11     -0.01      0.00
    2  -10   12      0.46      0.00
    2  -10   13     -0.70      0.00
    2  -10   14     -0.06      0.00
   -2    9    0     -0.26      0.00
    2   -9    1      2.91      0.00
    2   -9    2     -4.63      0.00
    2   -9    3     -3.65      0.00
    2   -9    4     -2.66      0.00
    2   -9    5     -1.90      0.00
    2   -9    6     -1.20      0.00
    2   -9    7      0.13      0.00
    2   -9    8      1.68      0.00
    2   -9    9     -0.85      0.00
    2   -9   10     -0.41      0.00
    2   -9   11     -2.36      0.00
    2   -9   12      0.40      0.00
    2   -9   13     -0.98      0.00
    2   -9   14     -0.52      0.00
    2   -9   15     -1.64      0.00
   -2    8    0      0.96      0.00
    2   -8    1     -3.73      0.00
    2   -8    2      4.74      0.00
    2   -8    3      1.48      0.00
    2   -8    4     -0.97      0.00
    2   -8    5      0.07      0.00
    2   -8    6     -1.51      0.00
    2   -8    7     -0.26      0.00
    2   -8    8     -2.33      0.00
    2   -8    9      0.95      0.00
    2   -8   10     -0.57      0.00
    2   -8   11     -0.48      0.00
    2   -8   12     -1.29      0.00
    2   -8   13     -0.37      0.00
    2   -8   14      1.01      0.00
    2   -8   15      1.03      0.00
    2   -8   16      0.87      0.00
   -2    7    0     -1.16      0.00
    2   -7    1      4.52      0.00
    2   -7    2     -7.06      0.00
    2   -7    3     -4.86      0.00
    2   -7    4     -1.29      0.00
    2   -7    5     -2.26      0.00
    2   -7    6      1.20      0.00
    2   -7    7     -0.20      0.00
    2   -7    8      1.53      0.00
    2   -7    9     -3.29      0.00
    2   -7   10     -0.11      0.00
    2   -7   11     -1.34      0.00
    2   -7   12      2.33      0.00
    2   -7   13     -0.28      0.00
    2   -7   14      0.51      0.00
    2   -7   15     -1.52      0.00
    2   -7   16     -0.83      0.00
   -2    6    0     -0.83      0.00
    2   -6    1     -8.79      0.00
    2   -6    2      7.96      0.00
    2   -6    3      0.79      0.00
    2   -6    4      0.17      0.00
    2   -6    5      0.73      0.00
    2   -6    6     -1.67      0.00
    2   -6    7      4.37      0.00
    2   -6    8     -0.07      0.00
    2   -6    9      4.94      0.00
    2   -6   10     -0.87      0.00
    2   -6   11     -0.54      0.00
    2   -6   12     -2.64      0.00
    2   -6   13     -0.98      0.00
    2   -6   14     -0.53      0.00
    2   -6   15      1.01      0.00
    2   -6   16      1.40      0.00
    2   -6   17     -0.86      0.00
   -2    5    0      0.86      0.00
    2   -5    1      7.44      0.00
    2   -5    2     -9.38      0.00
    2   -5    3     -2.90      0.00
    2   -5    4     -0.89      0.00
    2   -5    5      2.04      0.00
    2   -5    6      2.92      0.00
    2   -5    7      0.35      0.00
    2   -5    8      1.61      0.00
    2   -5    9     -1.63      0.00
    2   -5   10      0.15      0.00
    2   -5   11     -0.53      0.00
    2   -5   12      1.67      0.00
    2   -5   13      0.45      0.00
    2   -5   14      1.64      0.00
    2   -5   15     -1.82      0.00
    2   -5   16     -0.63      0.00
    2   -5   17      0.54      0.00
   -2    4    0      2.48      0.00
    2   -4    1    -11.30      0.00
    2   -4    2     15.33      0.00
    2   -4    3      0.71      0.00
    2   -4    4      4.45      0.00
    2   -4    5     -0.91      0.00
    2   -4    6      0.53      0.00
    2   -4    7      4.64      0.00
    2   -4    8     -0.34      0.00
    2   -4    9      4.00      0.00
    2   -4   10      0.46      0.00
    2   -4   11      0.71      0.00
    2   -4   12     -0.71      0.00
    2   -4   13     -1.40      0.00
    2   -4   14     -0.72      0.00
    2   -4   15      1.50      0.00
    2   -4   16      0.80      0.00
    2   -4   17     -0.96      0.00
   -2    3    0     -1.31      0.00
    2   -3    1      3.75      0.00
    2   -3    2    -14.11      0.00
    2   -3    3     -5.32      0.00
    2   -3    4     -1.70      0.00
    2   -3    5      2.38      0.00
    2   -3    6      0.31      0.00
    2   -3    7      3.37      0.00
    2   -3    8      4.20      0.00
    2   -3    9      1.69      0.00
    2   -3   10     -0.34      0.00
    2   -3   11     -1.30      0.00
    2   -3   12     -0.35      0.00
    2   -3   13     -0.03      0.00
    2   -3   14      0.41      0.00
    2   -3   15     -2.54      0.00
    2   -3   16      0.02      0.00
    2   -3   17      0.03      0.00
    2   -3   18     -0.08      0.00
   -2    2    0     -1.80      0.00
    2   -2    1    -11.75      0.00
    2   -2    2     18.38      0.00
    2   -2    3      1.95      0.00
    2   -2    4      1.65      0.00
    2   -2    5      1.09      0.00
    2   -2    6      2.47      0.00
    2   -2    7      3.95      0.00
    2   -2    8     -1.31      0.00
    2   -2    9      5.54      0.00
    2   -2   10      2.16      0.00
    2   -2   11      1.94      0.00
    2   -2   12     -0.12      0.00
    2   -2   13     -1.56      0.00
    2   -2   14     -0.25      0.00
    2   -2   15      0.77      0.00
    2   -2   16     -0.79      0.00
    2   -2   17     -1.20      0.00
    2   -2   18      0.53      0.00
   -2    1    0      9.91      0.00
    2   -1    1      2.89      0.00
    2   -1    3     -2.37      0.00
    2   -1    4      7.01      0.00
    2   -1    5      0.57      0.00
    2   -1    6     -1.48      0.00
    2   -1    7      0.78      0.00
    2   -1    8      2.21      0.00
    2   -1    9     -5.14      0.00
    2   -1   10     -3.05      0.00
    2   -1   11     -5.42      0.00
    2   -1   12     -1.76      0.00
    2   -1   13     -2.33      0.00
    2   -1   14     -0.27      0.00
    2   -1   15     -1.34      0.00
    2   -1   16      1.79      0.00
    2   -1   17      1.06      0.00
    2   -1   18      0.47      0.00
    2    0    1     -3.45      0.00
    2    0    2     24.77      0.00
    2    0    3      3.99      0.00
    2    0    4     -1.34      0.00
    2    0    5      3.83      0.00
    2    0    6      2.57      0.00
    2    0    7      3.75      0.00
    2    0    8     -3.22      0.00
    2    0    9      5.71      0.00
    2    0   10     -1.81      0.00
    2    0   11     -0.99      0.00
    2    0   12     -2.45      0.00
    2    0   13     -1.62      0.00
    2    0   14     -0.36      0.00
    2    0   15      0.14      0.00
    2    0   16     -1.28      0.00
    2    0   17     -1.46      0.00
    2    0   18     -0.77      0.00
    2    0   19     -0.86      0.00
    2    1    0     13.76      0.00
    2    1    1      0.67      0.00
    2    1    2    -12.02      0.00
    2    1    3      4.51      0.00
    2    1    4      7.95      0.00
    2    1    5      1.79      0.00
    2    1    6     -3.57      0.00
    2    1    7     -1.13      0.00
    2    1    8      1.28      0.00
    2    1    9     -7.69      0.00
    2    1   10     -0.13      0.00
    2    1   11     -3.87      0.00
    2    1   12      0.23      0.00
    2    1   13     -1.79      0.00
    2    1   14      0.19      0.00
    2    1   15     -1.23      0.00
    2    1   16      0.54      0.00
    2    1   17     -0.09      0.00
    2    1   18      0.62      0.00
    2    1   19      0.03      0.00
    2    2    0      1.75      0.00
    2    2    1      3.11      0.00
    2    2    2     29.43      0.00
    2    2    3      0.64      0.00
    2    2    4      3.78      0.00
    2    2    5      3.28      0.00
    2    2    6      5.68      0.00
    2    2    7      3.28      0.00
    2    2    8     -1.48      0.00
    2    2    9      5.33      0.00
    2    2   10     -1.74      0.00
    2    2   11     -1.84      0.00
    2    2   12     -0.92      0.00
    2    2   13     -1.42      0.00
    2    2   14      0.58      0.00
    2    2   15      0.83      0.00
    2    2   16      0.53      0.00
    2    2   17      0.31      0.00
    2    2   18     -0.50      0.00
    2    2   19     -0.10      0.00
    2    3    0      2.26      0.00
    2    3    1     -1.79      0.00
    2    3    2    -15.15      0.00
    2    3    3      9.06      0.00
    2    3    4      0.28      0.00
    2    3    5      3.56      0.00
    2    3    6     -5.21      0.00
    2    3    7     -0.56      0.00
    2    3    8     -0.54      0.00
    2    3    9     -8.67      0.00
    2    3   10     -0.82      0.00
    2    3   11     -2.98      0.00
    2    3   12     -0.21      0.00
    2    3   13      0.37      0.00
    2    3   14      0.45      0.00
    2    3   15      0.17      0.00
    2    3   16     -0.06      0.00
    2    3   17     -0.18      0.00
    2    3   18      0.05      0.00
    2    3   19     -0.22      0.00
    2    4    0      9.01      0.00
    2    4    1      5.16      0.00
    2    4    2     22.58      0.00
    2    4    3     -1.79      0.00
    2    4    4      4.13      0.00
    2    4    5      0.10      0.00
    2    4    6      0.81      0.00
    2    4    7     -1.30      0.00
    2    4    8     -1.60      0.00
    2    4    9      4.90      0.00
    2    4   10      0.12      0.00
    2    4   11     -1.05      0.00
    2    4   12      0.49      0.00
    2    4   13     -2.51      0.00
    2    4   14     -0.34      0.00
    2    4   15     -1.42      0.00
    2    4   16     -0.22      0.00
    2    4   17     -0.20      0.00
    2    4   18      0.48      0.00
    2    4   19      0.17      0.00
    2    5    0     -1.02      0.00
    2    5    1     -2.48      0.00
    2    5    2    -12.82      0.00
    2    5    3      4.73      0.00
    2    5    4     -3.28      0.00
    2    5    5      1.16      0.00
    2    5    6     -2.06      0.00
    2    5    7     -0.48      0.00
    2    5    8     -0.98      0.00
    2    5    9     -8.14      0.00
    2    5   10      0.45      0.00
    2    5   11     -1.71      0.00
    2    5   12     -0.01      0.00
    2    5   13      0.74      0.00
    2    5   14      0.32      0.00
    2    5   15      1.83      0.00
    2    5   16      0.75      0.00
    2    5   17      1.52      0.00
    2    5   18     -0.46      0.00
    2    5   19      0.64      0.00
    2    6    0      0.16      0.00
    2    6    1      1.09      0.00
    2    6    2     10.28      0.00
    2    6    3     -2.04      0.00
    2    6    4     -3.37      0.00
    2    6    5     -3.17      0.00
    2    6    6     -7.13      0.00
    2    6    7     -3.75      0.00
    2    6    8     -2.99      0.00
    2    6    9      3.41      0.00
    2    6   10     -2.07      0.00
    2    6   11     -0.05      0.00
    2    6   12      0.61      0.00
    2    6   13      0.61      0.00
    2    6   14      0.63      0.00
    2    6   15     -0.03      0.00
    2    6   16      0.21      0.00
    2    6   17      0.09      0.00
    2    6   18      1.08      0.00
    2    6   19     -0.08      0.00
    2    7    0      5.62      0.00
    2    7    1      2.90      0.00
    2    7    2     -7.23      0.00
    2    7    3      3.87      0.00
    2    7    4     -0.57      0.00
    2    7    5      0.35      0.00
    2    7    6     -2.06      0.00
    2    7    7     -3.43      0.00
    2    7    8     -3.10      0.00
    2    7    9     -6.51      0.00
    2    7   10      2.52      0.00
    2    7   11     -1.26      0.00
    2    7   12      0.27      0.00
    2    7   13     -1.37      0.00
    2    7   14      0.03      0.00
    2    7   15      0.94      0.00
    2    7   16      1.22      0.00
    2    7   17      1.70      0.00
    2    7   18      0.36      0.00
    2    7   19      1.13      0.00
    2    8    0      3.01      0.00
    2    8    1      4.14      0.00
    2    8    2      9.95      0.00
    2    8    3      0.63      0.00
    2    8    4     -3.95      0.00
    2    8    5     -2.34      0.00
    2    8    6     -3.72      0.00
    2    8    7     -0.15      0.00
    2    8    8      0.52      0.00
    2    8    9      3.99      0.00
    2    8   10     -1.78      0.00
    2    8   11      2.30      0.00
    2    8   12      1.22      0.00
    2    8   13      3.36      0.00
    2    8   14      0.64      0.00
    2    8   15      1.06      0.00
    2    8   16     -1.07      0.00
    2    8   17     -0.63      0.00
    2    8   18     -1.97      0.00
    2    9    0     -0.15      0.00
    2    9    1      0.72      0.00
    2    9    2     -7.88      0.00
    2    9    3      1.61      0.00
    2    9    4     -1.77      0.00
    2    9    5     -0.10      0.00
    2    9    6     -3.97      0.00
    2    9    7     -1.79      0.00
    2    9    8     -2.42      0.00
    2    9    9     -2.14      0.00
    2    9   10      4.16      0.00
    2    9   11      0.70      0.00
    2    9   12      1.21      0.00
    2    9   13     -0.75      0.00
    2    9   14     -0.25      0.00
    2    9   15     -0.66      0.00
    2    9   16     -0.72      0.00
    2    9   17     -0.99      0.00
    2    9   18      0.14      0.00
    2   10    0      4.43      0.00
    2   10    1      2.83      0.00
    2   10    2      5.65      0.00
    2   10    3      0.55      0.00
    2   10    4     -2.40      0.00
    2   10    5     -0.12      0.00
    2   10    6     -0.54      0.00
    2   10    7      0.48      0.00
    2   10    8      1.71      0.00
    2   10    9      2.67      0.00
    2   10   10     -2.84      0.00
    2   10   11      0.14      0.00
    2   10   12     -1.11      0.00
    2   10   13      0.17      0.00
    2   10   14     -1.02      0.00
    2   10   15     -0.41      0.00
    2   10   16     -0.65      0.00
    2   10   17      0.15      0.00
    2   11    0     -0.10      0.00
    2   11    1      0.76      0.00
    2   11    2     -4.12      0.00
    2   11    3     -0.05      0.00
    2   11    4     -2.15      0.00
    2   11    5     -0.45      0.00
    2   11    6     -1.48      0.00
    2   11    7      0.68      0.00
    2   11    8     -2.02      0.00
    2   11    9     -1.44      0.00
    2   11   10      3.37      0.00
    2   11   11      1.15      0.00
    2   11   12      1.18      0.00
    2   11   13      0.86      0.00
    2   11   14     -0.67      0.00
    2   11   15     -0.23      0.00
    2   11   16     -2.33      0.00
    2   11   17     -1.36      0.00
    2   12    0     -1.01      0.00
    2   12    1     -1.54      0.00
    2   12    2      0.15      0.00
    2   12    3     -0.70      0.00
    2   12    4     -2.10      0.00
    2   12    5      0.25      0.00
    2   12    6     -1.50      0.00
    2   12    7      0.95      0.00
    2   12    8      2.27      0.00
    2   12    9      3.18      0.00
    2   12   10     -2.01      0.00
    2   12   11      0.99      0.00
    2   12   12     -0.15      0.00
    2   12   13      0.10      0.00
    2   12   14     -0.26      0.00
    2   12   15     -0.87      0.00
    2   12   16      0.63      0.00
    2   13    0      2.02      0.00
    2   13    1      0.56      0.00
    2   13    2     -3.40      0.00
    2   13    3     -0.65      0.00
    2   13    4     -1.79      0.00
    2   13    5      0.91      0.00
    2   13    6      0.09      0.00
    2   13    7     -0.50      0.00
    2   13    8     -2.63      0.00
    2   13    9     -3.12      0.00
    2   13   10      1.03      0.00
    2   13   11     -1.42      0.00
    2   13   12     -0.80      0.00
    2   13   13     -0.94      0.00
    2   13   14     -1.62      0.00
    2   13   15     -0.40      0.00
    2   14    0     -0.40      0.00
    2   14    1     -0.82      0.00
    2   14    2      0.94      0.00
    2   14    3     -0.80      0.00
    2   14    4     -1.54      0.00
    2   14    5     -1.45      0.00
    2   14    6     -0.93      0.00
    2   14    7      0.78      0.00
    2   14    8      0.33      0.00
    2   14    9      1.53      0.00
    2   14   10     -1.52      0.00
    2   14   11      1.42      0.00
    2   14   12      0.39      0.00
    2   14   13      0.99      0.00
    2   14   14     -0.28      0.00
    2   15    0      0.90      0.00
    2   15    1     -0.17      0.00
    2   15    2     -2.93      0.00
    2   15    3     -1.05      0.00
    2   15    4     -1.70      0.00
    2   15    5      0.76      0.00
    2   15    6     -2.49      0.00
    2   15    7     -1.85      0.00
    2   15    8     -1.64      0.00
    2   15    9     -2.00      0.00
    2   15   10      0.54      0.00
    2   15   11     -0.29      0.00
    2   15   12      0.25      0.00
    2   15   13     -0.49      0.00
    2   16    0     -0.98      0.00
    2   16    1     -1.25      0.00
    2   16    2     -0.40      0.00
    2   16    3      0.89      0.00
    2   16    4      0.10      0.00
    2   16    5      0.75      0.00
    2   16    6      2.88      0.00
    2   16    7      1.84      0.00
    2   16    8      0.96      0.00
    2   16    9      1.18      0.00
    2   16   10      0.33      0.00
    2   16   11      0.23      0.00
    2   16   12     -0.16      0.00
    2   17    0      2.02      0.00
    2   17    1      1.84      0.00
    2   17    2      0.42      0.00
    2   17    3     -0.31      0.00
    2   17    4      0.48      0.00
    2   17    5      1.44      0.00
    2   17    6     -1.01      0.00
    2   17    7      0.06      0.00
    2   17    8     -0.52      0.00
    2   17    9     -0.68      0.00
    2   17   10     -0.24      0.00
    2   17   11      0.67      0.00
    2   18    0     -2.11      0.00
    2   18    1     -1.98      0.00
    2   18    2     -0.65      0.00
    2   18    3      1.24      0.00
    2   18    4      0.00      0.00
    2   18    5      0.43      0.00
    2   18    6      1.16      0.00
    2   18    7      0.43      0.00
    2   18    8      0.81      0.00
    2   18    9      0.13      0.00
    2   19    0      0.73      0.00
    2   19    1      1.21      0.00
    2   19    2     -0.98      0.00
    2   19    3      0.54      0.00
    2   19    4      1.37      0.00
    2   19    5      2.55      0.00
    2   19    6      1.12      0.00
   -3   18    0     -0.80      0.00
    3  -18    1     -0.24      0.00
   -3   17    0      1.46      0.00
    3  -17    1      0.16      0.00
    3  -17    2     -0.75      0.00
    3  -17    3      0.61      0.00
    3  -17    4      0.61      0.00
   -3   16    0     -1.58      0.00
    3  -16    1      1.70      0.00
    3  -16    2      0.52      0.00
    3  -16    3      2.12      0.00
    3  -16    4      0.50      0.00
    3  -16    5      1.34      0.00
    3  -16    6     -1.07      0.00
   -3   15    0      1.57      0.00
    3  -15    1      0.01      0.00
    3  -15    2      0.56      0.00
    3  -15    3     -0.74      0.00
    3  -15    4      0.01      0.00
    3  -15    5     -0.23      0.00
    3  -15    6      0.82      0.00
    3  -15    7     -2.36      0.00
    3  -15    8      0.49      0.00
   -3   14    0     -1.22      0.00
    3  -14    1      0.59      0.00
    3  -14    2     -1.25      0.00
    3  -14    3      1.94      0.00
    3  -14    4     -0.17      0.00
    3  -14    5     -1.73      0.00
    3  -14    6     -0.38      0.00
    3  -14    7      0.22      0.00
    3  -14    8      0.28      0.00
    3  -14    9     -1.33      0.00
    3  -14   10     -0.74      0.00
   -3   13    0     -1.41      0.00
    3  -13    1      0.22      0.00
    3  -13    2      0.48      0.00
    3  -13    3     -1.12      0.00
    3  -13    4     -0.26      0.00
    3  -13    5      1.01      0.00
    3  -13    6     -0.61      0.00
    3  -13    7     -0.91      0.00
    3  -13    8     -0.07      0.00
    3  -13    9      2.14      0.00
    3  -13   10      1.22      0.00
    3  -13   11      2.24      0.00
   -3   12    0     -0.31      0.00
    3  -12    1      0.02      0.00
    3  -12    2     -0.50      0.00
    3  -12    3      2.84      0.00
    3  -12    4      0.51      0.00
    3  -12    5     -1.55      0.00
    3  -12    6     -0.47      0.00
    3  -12    7     -1.66      0.00
    3  -12    8      0.14      0.00
    3  -12    9     -1.54      0.00
    3  -12   10     -0.27      0.00
    3  -12   11     -0.35      0.00
    3  -12   12     -0.28      0.00
   -3   11    0     -1.26      0.00
    3  -11    1     -0.42      0.00
    3  -11    2      0.37      0.00
    3  -11    3     -3.11      0.00
    3  -11    4     -1.57      0.00
    3  -11    5     -1.27      0.00
    3  -11    6     -0.66      0.00
    3  -11    7     -0.61      0.00
    3  -11    8     -1.75      0.00
    3  -11    9      1.05      0.00
    3  -11   10     -1.05      0.00
    3  -11   11      0.85      0.00
    3  -11   12     -0.87      0.00
    3  -11   13      0.49      0.00
   -3   10    0     -0.01      0.00
    3  -10    1      1.29      0.00
    3  -10    2     -0.04      0.00
    3  -10    3      4.42      0.00
    3  -10    4      2.39      0.00
    3  -10    5     -0.02      0.00
    3  -10    6     -0.47      0.00
    3  -10    7      0.14      0.00
    3  -10    8      1.83      0.00
    3  -10    9     -0.07      0.00
    3  -10   10      0.48      0.00
    3  -10   11      0.65      0.00
    3  -10   12     -0.36      0.00
    3  -10   13      0.39      0.00
    3  -10   14     -1.70      0.00
   -3    9    0      0.71      0.00
    3   -9    1     -0.29      0.00
    3   -9    2      2.86      0.00
    3   -9    3     -3.83      0.00
    3   -9    4     -2.85      0.00
    3   -9    5     -0.90      0.00
    3   -9    6     -0.40      0.00
    3   -9    7     -1.30      0.00
    3   -9    8     -1.96      0.00
    3   -9    9      2.35      0.00
    3   -9   10     -1.28      0.00
    3   -9   11      1.38      0.00
    3   -9   12     -0.83      0.00
    3   -9   13      0.79      0.00
    3   -9   14      0.67      0.00
   -3    8    0      0.36      0.00
    3   -8    1      0.18      0.00
    3   -8    2     -4.00      0.00
    3   -8    3      3.50      0.00
    3   -8    4      2.81      0.00
    3   -8    5     -1.55      0.00
    3   -8    6      0.11      0.00
    3   -8    7      0.95      0.00
    3   -8    8      1.58      0.00
    3   -8    9     -2.34      0.00
    3   -8   10      0.45      0.00
    3   -8   11     -1.72      0.00
    3   -8   12     -0.53      0.00
    3   -8   13     -0.93      0.00
    3   -8   14      0.52      0.00
    3   -8   15      1.07      0.00
   -3    7    0      0.16      0.00
    3   -7    1      0.56      0.00
    3   -7    2      7.11      0.00
    3   -7    3     -4.30      0.00
    3   -7    4     -3.38      0.00
    3   -7    5     -0.17      0.00
    3   -7    6     -0.57      0.00
    3   -7    7     -1.15      0.00
    3   -7    8     -1.21      0.00
    3   -7    9      2.59      0.00
    3   -7   10     -2.86      0.00
    3   -7   11      1.76      0.00
    3   -7   12     -1.39      0.00
    3   -7   13      1.44      0.00
    3   -7   14     -2.04      0.00
    3   -7   15     -0.87      0.00
    3   -7   16     -2.03      0.00
   -3    6    0      1.61      0.00
    3   -6    1     -0.04      0.00
    3   -6    2     -8.64      0.00
    3   -6    3      5.27      0.00
    3   -6    4      2.33      0.00
    3   -6    5     -0.70      0.00
    3   -6    6     -0.50      0.00
    3   -6    7     -0.30      0.00
    3   -6    8      1.01      0.00
    3   -6    9     -1.60      0.00
    3   -6   10      2.69      0.00
    3   -6   11     -1.35      0.00
    3   -6   12      0.57      0.00
    3   -6   13     -0.64      0.00
    3   -6   14      2.77      0.00
    3   -6   15      0.92      0.00
    3   -6   16      2.07      0.00
   -3    5    0     -4.08      0.00
    3   -5    1     -1.00      0.00
    3   -5    2      6.89      0.00
    3   -5    3     -7.59      0.00
    3   -5    4     -4.14      0.00
    3   -5    5     -1.64      0.00
    3   -5    6      0.86      0.00
    3   -5    7      0.40      0.00
    3   -5    8     -0.22      0.00
    3   -5    9      0.03      0.00
    3   -5   10     -3.51      0.00
    3   -5   11      0.11      0.00
    3   -5   12     -0.36      0.00
    3   -5   13      0.82      0.00
    3   -5   14     -1.90      0.00
    3   -5   15     -1.21      0.00
    3   -5   16     -2.71      0.00
    3   -5   17     -2.23      0.00
   -3    4    0      3.21      0.00
    3   -4    1      1.81      0.00
    3   -4    2     -7.43      0.00
    3   -4    3      9.43      0.00
    3   -4    4      2.65      0.00
    3   -4    5      1.11      0.00
    3   -4    6     -0.43      0.00
    3   -4    7     -1.31      0.00
    3   -4    8      2.35      0.00
    3   -4    9      1.01      0.00
    3   -4   10      4.41      0.00
    3   -4   11      0.80      0.00
    3   -4   12     -0.69      0.00
    3   -4   13     -0.57      0.00
    3   -4   14      0.20      0.00
    3   -4   15      0.63      0.00
    3   -4   16      0.15      0.00
    3   -4   17      1.15      0.00
   -3    3    0     -1.87      0.00
    3   -3    1      3.27      0.00
    3   -3    2      4.51      0.00
    3   -3    3     -7.78      0.00
    3   -3    4     -3.63      0.00
    3   -3    5     -0.76      0.00
    3   -3    6      1.18      0.00
    3   -3    7      2.50      0.00
    3   -3    8      1.08      0.00
    3   -3    9      1.05      0.00
    3   -3   10     -2.46      0.00
    3   -3   11      0.13      0.00
    3   -3   12      2.04      0.00
    3   -3   13      1.45      0.00
    3   -3   14      0.46      0.00
    3   -3   15     -1.10      0.00
    3   -3   16     -0.61      0.00
    3   -3   17     -1.59      0.00
   -3    2    0     -0.20      0.00
    3   -2    1      0.33      0.00
    3   -2    2     -6.26      0.00
    3   -2    3      9.78      0.00
    3   -2    4     -0.04      0.00
    3   -2    5      0.02      0.00
    3   -2    6      0.69      0.00
    3   -2    7     -2.00      0.00
    3   -2    8      2.07      0.00
    3   -2    9     -0.60      0.00
    3   -2   10      5.28      0.00
    3   -2   11      0.84      0.00
    3   -2   12     -1.60      0.00
    3   -2   13     -1.08      0.00
    3   -2   14     -1.32      0.00
    3   -2   15     -0.31      0.00
    3   -2   16     -2.08      0.00
    3   -2   17     -0.64      0.00
    3   -2   18     -1.76      0.00
    3   -1    1      3.89      0.00
    3   -1    2      1.13      0.00
    3   -1    3     -9.74      0.00
    3   -1    4     -1.35      0.00
    3   -1    5     -0.79      0.00
    3   -1    6      1.41      0.00
    3   -1    7      3.41      0.00
    3   -1    8      3.62      0.00
    3   -1    9      4.21      0.00
    3   -1   10     -4.08      0.00
    3   -1   11      0.42      0.00
    3   -1   12     -0.11      0.00
    3   -1   13      0.21      0.00
    3   -1   14     -1.42      0.00
    3   -1   15     -1.12      0.00
    3   -1   16     -1.10      0.00
    3   -1   17     -0.43      0.00
    3   -1   18      0.27      0.00
    3    0    0     -1.73      0.00
    3    0    1      2.72      0.00
    3    0    2     -4.95      0.00
    3    0    3     12.81      0.00
    3    0    4     -1.44      0.00
    3    0    5      3.62      0.00
    3    0    6      2.95      0.00
    3    0    7      1.07      0.00
    3    0    8      1.14      0.00
    3    0    9     -1.24      0.00
    3    0   10      6.35      0.00
    3    0   11      0.72      0.00
    3    0   12      0.23      0.00
    3    0   13      0.85      0.00
    3    0   14      0.96      0.00
    3    0   15      0.81      0.00
    3    0   16      1.00      0.00
    3    0   17      0.18      0.00
    3    0   18     -0.39      0.00
    3    1    1     -1.44      0.00
    3    1    2     -2.71      0.00
    3    1    3    -12.99      0.00
    3    1    4      1.34      0.00
    3    1    5     -1.75      0.00
    3    1    6      2.85      0.00
    3    1    7      2.33      0.00
    3    1    8      3.42      0.00
    3    1    9      2.63      0.00
    3    1   10     -7.11      0.00
    3    1   11     -0.75      0.00
    3    1   12     -2.74      0.00
    3    1   13     -1.12      0.00
    3    1   14     -1.67      0.00
    3    1   15     -0.97      0.00
    3    1   16     -2.57      0.00
    3    1   17     -0.27      0.00
    3    1   18     -0.31      0.00
    3    2    0     -0.43      0.00
    3    2    1      2.81      0.00
    3    2    2     -0.58      0.00
    3    2    3     13.46      0.00
    3    2    4      0.32      0.00
    3    2    5      4.97      0.00
    3    2    6      3.47      0.00
    3    2    7      1.09      0.00
    3    2    8     -0.88      0.00
    3    2    9     -1.97      0.00
    3    2   10      3.12      0.00
    3    2   11     -1.09      0.00
    3    2   12     -1.18      0.00
    3    2   13     -0.08      0.00
    3    2   14     -1.21      0.00
    3    2   15     -0.07      0.00
    3    2   16      0.62      0.00
    3    2   17     -0.74      0.00
    3    2   18     -0.59      0.00
    3    2   19     -0.72      0.00
    3    3    0     -6.38      0.00
    3    3    1     -1.30      0.00
    3    3    2     -6.64      0.00
    3    3    3    -10.74      0.00
    3    3    4      2.08      0.00
    3    3    5      0.71      0.00
    3    3    6      2.56      0.00
    3    3    7      2.95      0.00
    3    3    8      1.07      0.00
    3    3    9      0.62      0.00
    3    3   10     -7.02      0.00
    3    3   11     -0.90      0.00
    3    3   12     -2.64      0.00
    3    3   13     -1.04      0.00
    3    3   14     -0.60      0.00
    3    3   15     -1.58      0.00
    3    3   16     -1.70      0.00
    3    3   17     -0.14      0.00
    3    3   18     -0.15      0.00
    3    3   19      0.63      0.00
    3    4    0     -0.67      0.00
    3    4    1     -2.00      0.00
    3    4    2      3.50      0.00
    3    4    3      9.44      0.00
    3    4    4      2.11      0.00
    3    4    5      2.49      0.00
    3    4    6      3.86      0.00
    3    4    7     -1.00      0.00
    3    4    8     -1.20      0.00
    3    4    9     -2.27      0.00
    3    4   10      1.07      0.00
    3    4   11     -2.42      0.00
    3    4   12     -1.36      0.00
    3    4   13     -1.15      0.00
    3    4   14     -1.11      0.00
    3    4   15     -0.17      0.00
    3    4   16     -0.27      0.00
    3    4   17     -0.49      0.00
    3    4   18      0.00      0.00
    3    4   19      0.01      0.00
    3    5    0     -2.93      0.00
    3    5    1      2.49      0.00
    3    5    2     -3.00      0.00
    3    5    3     -5.64      0.00
    3    5    4      4.16      0.00
    3    5    5      1.74      0.00
    3    5    6      0.14      0.00
    3    5    7      0.72      0.00
    3    5    8     -2.83      0.00
    3    5    9     -1.78      0.00
    3    5   10     -7.28      0.00
    3    5   11      0.09      0.00
    3    5   12     -2.26      0.00
    3    5   13     -0.24      0.00
    3    5   14     -0.78      0.00
    3    5   15     -0.57      0.00
    3    5   16      0.26      0.00
    3    5   17      0.44      0.00
    3    5   18      0.34      0.00
    3    5   19      0.33      0.00
    3    6    0      2.17      0.00
    3    6    1      2.36      0.00
    3    6    2      5.80      0.00
    3    6    3     10.37      0.00
    3    6    4      2.36      0.00
    3    6    5      1.98      0.00
    3    6    6      2.24      0.00
    3    6    7     -0.91      0.00
    3    6    8     -1.23      0.00
    3    6    9     -1.93      0.00
    3    6   10      1.71      0.00
    3    6   11     -3.79      0.00
    3    6   12     -0.15      0.00
    3    6   13     -0.96      0.00
    3    6   14      1.00      0.00
    3    6   15     -0.14      0.00
    3    6   16      0.71      0.00
    3    6   17      0.85      0.00
    3    6   18      1.33      0.00
    3    7    0      2.35      0.00
    3    7    1      2.53      0.00
    3    7    2      2.29      0.00
    3    7    3     -5.41      0.00
    3    7    4      3.63      0.00
    3    7    5     -0.52      0.00
    3    7    6     -1.13      0.00
    3    7    7     -2.36      0.00
    3    7    8     -2.91      0.00
    3    7    9     -1.79      0.00
    3    7   10     -5.50      0.00
    3    7   11      2.54      0.00
    3    7   12     -0.16      0.00
    3    7   13      0.29      0.00
    3    7   14      0.29      0.00
    3    7   15      0.78      0.00
    3    7   16      0.69      0.00
    3    7   17      0.15      0.00
    3    7   18     -0.16      0.00
    3    8    0      0.99      0.00
    3    8    1      3.02      0.00
    3    8    2      3.20      0.00
    3    8    3      7.83      0.00
    3    8    4      0.48      0.00
    3    8    5     -0.79      0.00
    3    8    6     -0.55      0.00
    3    8    7     -0.85      0.00
    3    8    8     -1.60      0.00
    3    8    9     -0.74      0.00
    3    8   10      3.33      0.00
    3    8   11     -2.54      0.00
    3    8   12      1.52      0.00
    3    8   13      2.14      0.00
    3    8   14      2.68      0.00
    3    8   15      1.47      0.00
    3    8   16      2.15      0.00
    3    8   17      1.31      0.00
    3    8   18      1.32      0.00
    3    9    0      1.84      0.00
    3    9    1      2.30      0.00
    3    9    2      1.28      0.00
    3    9    3     -4.38      0.00
    3    9    4      0.42      0.00
    3    9    5     -0.64      0.00
    3    9    6     -1.70      0.00
    3    9    7     -1.99      0.00
    3    9    8     -1.25      0.00
    3    9    9     -1.69      0.00
    3    9   10     -3.96      0.00
    3    9   11      2.36      0.00
    3    9   12      1.28      0.00
    3    9   13     -0.67      0.00
    3    9   14      1.02      0.00
    3    9   15      0.32      0.00
    3    9   16      0.11      0.00
    3    9   17      0.04      0.00
    3    9   18     -0.34      0.00
    3   10    0      2.53      0.00
    3   10    1      1.55      0.00
    3   10    2      2.69      0.00
    3   10    3      3.15      0.00
    3   10    4     -0.47      0.00
    3   10    5     -2.10      0.00
    3   10    6     -0.26      0.00
    3   10    7     -0.61      0.00
    3   10    8      0.28      0.00
    3   10    9      1.71      0.00
    3   10   10      4.68      0.00
    3   10   11     -0.98      0.00
    3   10   12      1.38      0.00
    3   10   13      2.33      0.00
    3   10   14      1.53      0.00
    3   10   15     -0.01      0.00
    3   10   16      0.07      0.00
    3   10   17     -1.51      0.00
    3   11    0     -0.65      0.00
    3   11    1      0.96      0.00
    3   11    2     -1.55      0.00
    3   11    3     -3.61      0.00
    3   11    4     -0.71      0.00
    3   11    5     -1.36      0.00
    3   11    6     -0.82      0.00
    3   11    7     -0.37      0.00
    3   11    8     -0.98      0.00
    3   11    9     -1.92      0.00
    3   11   10     -3.38      0.00
    3   11   11      1.84      0.00
    3   11   12      0.51      0.00
    3   11   13     -1.49      0.00
    3   11   14     -1.34      0.00
    3   11   15     -1.54      0.00
    3   11   16     -2.19      0.00
    3   11   17     -0.93      0.00
    3   12    0      1.26      0.00
    3   12    1      1.15      0.00
    3   12    2      0.92      0.00
    3   12    3      2.71      0.00
    3   12    4     -0.92      0.00
    3   12    5      0.59      0.00
    3   12    6     -0.41      0.00
    3   12    7      0.16      0.00
    3   12    8      1.23      0.00
    3   12    9      0.96      0.00
    3   12   10      2.41      0.00
    3   12   11     -2.88      0.00
    3   12   12     -0.19      0.00
    3   12   13     -0.12      0.00
    3   12   14      0.51      0.00
    3   12   15     -0.89      0.00
    3   12   16      0.31      0.00
    3   13    0      1.30      0.00
    3   13    1      1.32      0.00
    3   13    2      1.14      0.00
    3   13    3     -3.26      0.00
    3   13    4      0.05      0.00
    3   13    5     -2.34      0.00
    3   13    6      0.00      0.00
    3   13    7     -2.25      0.00
    3   13    8     -2.21      0.00
    3   13    9     -1.88      0.00
    3   13   10     -1.76      0.00
    3   13   11      2.28      0.00
    3   13   12      0.86      0.00
    3   13   13      0.00      0.00
    3   13   14     -0.66      0.00
    3   13   15     -1.01      0.00
    3   14    0      2.33      0.00
    3   14    1      2.71      0.00
    3   14    2     -0.21      0.00
    3   14    3      3.70      0.00
    3   14    4      0.41      0.00
    3   14    5      0.20      0.00
    3   14    6     -0.68      0.00
    3   14    7      1.76      0.00
    3   14    8      0.91      0.00
    3   14    9      1.17      0.00
    3   14   10      0.81      0.00
    3   14   11     -0.71      0.00
    3   14   12     -0.21      0.00
    3   14   13     -0.31      0.00
    3   14   14     -1.02      0.00
    3   15    0     -2.34      0.00
    3   15    1     -1.03      0.00
    3   15    2      1.99      0.00
    3   15    3     -2.26      0.00
    3   15    4     -1.18      0.00
    3   15    5      0.79      0.00
    3   15    6     -0.26      0.00
    3   15    7     -2.78      0.00
    3   15    8     -0.40      0.00
    3   15    9     -2.09      0.00
    3   15   10      0.54      0.00
    3   15   11     -0.55      0.00
    3   15   12      1.30      0.00
    3   15   13     -0.29      0.00
    3   16    0      3.33      0.00
    3   16    1      2.28      0.00
    3   16    2     -2.10      0.00
    3   16    3      0.88      0.00
    3   16    4      1.83      0.00
    3   16    5     -3.68      0.00
    3   16    6      0.34      0.00
    3   16    7      0.84      0.00
    3   16    8     -0.93      0.00
    3   16    9      2.74      0.00
    3   16   10     -0.20      0.00
    3   16   11      3.17      0.00
    3   16   12     -0.19      0.00
    3   17    0     -2.89      0.00
    3   17    1     -1.68      0.00
    3   17    2      3.27      0.00
    3   17    3     -0.69      0.00
    3   17    4     -2.93      0.00
    3   17    5      2.39      0.00
    3   17    6     -1.96      0.00
    3   17    7     -1.01      0.00
    3   17    8      1.15      0.00
    3   17    9     -2.74      0.00
    3   17   10      1.72      0.00
    3   18    0     -0.54      0.00
    3   18    1     -0.55      0.00
    3   18    2     -4.25      0.00
    3   18    3     -0.94      0.00
    3   18    4      2.58      0.00
    3   18    5     -3.25      0.00
    3   18    6      2.17      0.00
    3   18    7     -0.43      0.00
    3   18    8     -0.31      0.00
    3   19    1     -0.46      0.00
    3   19    2      2.65      0.00
    3   19    3     -0.97      0.00
    3   19    4     -2.32      0.00
   -4   17    0     -1.42      0.00
    4  -17    1      0.76      0.00
    4  -17    2     -1.07      0.00
   -4   16    0      3.28      0.00
    4  -16    1     -0.61      0.00
    4  -16    2      2.27      0.00
    4  -16    3     -0.27      0.00
    4  -16    4      1.56      0.00
    4  -16    5      0.56      0.00
   -4   15    0     -0.46      0.00
    4  -15    1      0.11      0.00
    4  -15    2     -0.82      0.00
    4  -15    3     -0.52      0.00
    4  -15    4     -1.46      0.00
    4  -15    5     -0.62      0.00
    4  -15    6     -1.05      0.00
    4  -15    7      1.49      0.00
   -4   14    0     -0.08      0.00
    4  -14    1     -0.93      0.00
    4  -14    2      0.09      0.00
    4  -14    3      0.44      0.00
    4  -14    4      1.03      0.00
    4  -14    5      1.13      0.00
    4  -14    6     -0.25      0.00
    4  -14    7     -0.60      0.00
    4  -14    8     -0.60      0.00
   -4   13    0      1.58      0.00
    4  -13    1     -0.85      0.00
    4  -13    2      1.11      0.00
    4  -13    3     -0.58      0.00
    4  -13    4      0.50      0.00
    4  -13    5     -0.62      0.00
    4  -13    6     -1.74      0.00
    4  -13    7     -1.63      0.00
    4  -13    8     -2.36      0.00
    4  -13    9     -0.97      0.00
    4  -13   10      1.06      0.00
   -4   12    0     -3.52      0.00
    4  -12    1     -2.62      0.00
    4  -12    2     -1.98      0.00
    4  -12    3     -0.90      0.00
    4  -12    4     -1.81      0.00
    4  -12    5     -0.14      0.00
    4  -12    6     -0.30      0.00
    4  -12    7      1.09      0.00
    4  -12    8      0.67      0.00
    4  -12    9      1.59      0.00
    4  -12   10     -0.17      0.00
    4  -12   11      0.93      0.00
   -4   11    0     -2.04      0.00
    4  -11    1     -2.74      0.00
    4  -11    2     -1.61      0.00
    4  -11    3     -0.47      0.00
    4  -11    4      0.17      0.00
    4  -11    5     -0.07      0.00
    4  -11    6     -2.26      0.00
    4  -11    7     -2.06      0.00
    4  -11    8     -2.18      0.00
    4  -11    9     -2.99      0.00
    4  -11   10      1.45      0.00
    4  -11   11     -1.86      0.00
    4  -11   12      0.16      0.00
   -4   10    0     -0.58      0.00
    4  -10    1     -0.07      0.00
    4  -10    2      1.20      0.00
    4  -10    3      0.17      0.00
    4  -10    4      0.10      0.00
    4  -10    5     -0.23      0.00
    4  -10    6     -0.45      0.00
    4  -10    7     -0.94      0.00
    4  -10    8      0.27      0.00
    4  -10    9      1.10      0.00
    4  -10   10     -1.00      0.00
    4  -10   11      1.39      0.00
    4  -10   12      1.70      0.00
    4  -10   13      0.48      0.00
   -4    9    0     -1.41      0.00
    4   -9    1     -2.41      0.00
    4   -9    2     -3.18      0.00
    4   -9    3     -0.13      0.00
    4   -9    4     -2.78      0.00
    4   -9    5      0.37      0.00
    4   -9    6     -1.17      0.00
    4   -9    7      1.11      0.00
    4   -9    8     -1.41      0.00
    4   -9    9     -1.76      0.00
    4   -9   10      2.76      0.00
    4   -9   11     -1.77      0.00
    4   -9   12      0.13      0.00
    4   -9   13     -0.59      0.00
   -4    8    0     -4.26      0.00
    4   -8    1     -0.41      0.00
    4   -8    2      0.50      0.00
    4   -8    3     -0.68      0.00
    4   -8    4      2.47      0.00
    4   -8    5      0.07      0.00
    4   -8    6      0.17      0.00
    4   -8    7     -1.99      0.00
    4   -8    8      2.38      0.00
    4   -8    9      0.28      0.00
    4   -8   10     -2.29      0.00
    4   -8   11     -0.28      0.00
    4   -8   12     -0.36      0.00
    4   -8   13     -0.47      0.00
    4   -8   14     -0.40      0.00
   -4    7    0      3.48      0.00
    4   -7    1      0.75      0.00
    4   -7    2     -1.22      0.00
    4   -7    3      3.60      0.00
    4   -7    4     -2.94      0.00
    4   -7    5      1.70      0.00
    4   -7    6     -0.18      0.00
    4   -7    7      2.31      0.00
    4   -7    8     -2.60      0.00
    4   -7    9     -1.03      0.00
    4   -7   10      3.30      0.00
    4   -7   11     -0.32      0.00
    4   -7   12      1.48      0.00
    4   -7   13      0.37      0.00
    4   -7   14     -0.16      0.00
    4   -7   15     -0.99      0.00
   -4    6    0     -3.78      0.00
    4   -6    1     -0.56      0.00
    4   -6    2      1.40      0.00
    4   -6    3     -3.00      0.00
    4   -6    4      4.46      0.00
    4   -6    5      1.30      0.00
    4   -6    6      1.36      0.00
    4   -6    7     -0.59      0.00
    4   -6    8      3.45      0.00
    4   -6    9      0.94      0.00
    4   -6   10     -2.10      0.00
    4   -6   11      0.41      0.00
    4   -6   12     -0.42      0.00
    4   -6   13      0.45      0.00
    4   -6   14      1.06      0.00
    4   -6   15      1.78      0.00
   -4    5    0     -1.30      0.00
    4   -5    1      0.83      0.00
    4   -5    2     -1.52      0.00
    4   -5    3      6.67      0.00
    4   -5    4     -3.35      0.00
    4   -5    5      0.87      0.00
    4   -5    6      1.02      0.00
    4   -5    7      1.36      0.00
    4   -5    8     -1.24      0.00
    4   -5    9     -1.16      0.00
    4   -5   10      2.48      0.00
    4   -5   11     -1.01      0.00
    4   -5   12      1.34      0.00
    4   -5   13      1.12      0.00
    4   -5   14     -0.06      0.00
    4   -5   15     -0.41      0.00
    4   -5   16     -2.79      0.00
   -4    4    0      2.33      0.00
    4   -4    1     -0.13      0.00
    4   -4    2      2.89      0.00
    4   -4    3     -4.06      0.00
    4   -4    4      7.74      0.00
    4   -4    5      2.92      0.00
    4   -4    6      0.04      0.00
    4   -4    7      1.30      0.00
    4   -4    8      1.12      0.00
    4   -4    9      2.68      0.00
    4   -4   10      0.12      0.00
    4   -4   11      4.36      0.00
    4   -4   12      1.54      0.00
    4   -4   13      1.25      0.00
    4   -4   14      0.82      0.00
    4   -4   15      0.52      0.00
    4   -4   16      1.53      0.00
   -4    3    0     -3.54      0.00
    4   -3    1      1.12      0.00
    4   -3    2      0.58      0.00
    4   -3    3      4.96      0.00
    4   -3    4     -8.03      0.00
    4   -3    5     -2.25      0.00
    4   -3    6      1.05      0.00
    4   -3    7     -2.01      0.00
    4   -3    8      0.01      0.00
    4   -3    9     -3.00      0.00
    4   -3   10     -0.05      0.00
    4   -3   11     -4.55      0.00
    4   -3   12      0.44      0.00
    4   -3   13      1.30      0.00
    4   -3   14      0.95      0.00
    4   -3   15     -0.19      0.00
    4   -3   16     -2.03      0.00
    4   -3   17      0.48      0.00
   -4    2    0      1.95      0.00
    4   -2    1     -0.79      0.00
    4   -2    2     -0.69      0.00
    4   -2    3     -4.52      0.00
    4   -2    4      8.75      0.00
    4   -2    5     -0.51      0.00
    4   -2    6     -3.36      0.00
    4   -2    7      1.48      0.00
    4   -2    8     -1.59      0.00
    4   -2    9      2.86      0.00
    4   -2   10      0.60      0.00
    4   -2   11      6.16      0.00
    4   -2   12      0.21      0.00
    4   -2   13     -0.49      0.00
    4   -2   14     -0.30      0.00
    4   -2   15      0.39      0.00
    4   -2   16      0.22      0.00
    4   -2   17     -2.26      0.00
   -4    1    0      2.54      0.00
    4   -1    1      1.21      0.00
    4   -1    2      4.46      0.00
    4   -1    3      1.30      0.00
    4   -1    4    -10.45      0.00
    4   -1    5     -0.41      0.00
    4   -1    6      1.99      0.00
    4   -1    7     -1.36      0.00
    4   -1    8      2.48      0.00
    4   -1    9     -2.02      0.00
    4   -1   10      0.55      0.00
    4   -1   11     -6.20      0.00
    4   -1   12      2.22      0.00
    4   -1   13      2.08      0.00
    4   -1   14      0.50      0.00
    4   -1   15     -1.18      0.00
    4   -1   16     -1.43      0.00
    4   -1   17     -0.89      0.00
    4   -1   18     -0.51      0.00
    4    0    0      1.70      0.00
    4    0    1      2.05      0.00
    4    0    2     -2.72      0.00
    4    0    3     -3.00      0.00
    4    0    4      6.97      0.00
    4    0    5     -3.34      0.00
    4    0    6     -2.35      0.00
    4    0    7      1.63      0.00
    4    0    8     -1.43      0.00
    4    0    9      1.88      0.00
    4    0   10     -0.12      0.00
    4    0   11      5.89      0.00
    4    0   12     -2.22      0.00
    4    0   13     -2.34      0.00
    4    0   14      0.45      0.00
    4    0   15     -0.61      0.00
    4    0   16     -0.63      0.00
    4    0   17     -1.35      0.00
    4    0   18     -0.74      0.00
    4    1    0      2.45      0.00
    4    1    1     -2.53      0.00
    4    1    2      2.80      0.00
    4    1    3     -3.04      0.00
    4    1    4     -9.28      0.00
    4    1    5      0.37      0.00
    4    1    6      1.15      0.00
    4    1    7      0.91      0.00
    4    1    8      3.75      0.00
    4    1    9     -0.81      0.00
    4    1   10      0.10      0.00
    4    1   11     -8.24      0.00
    4    1   12      1.66      0.00
    4    1   13      1.00      0.00
    4    1   14     -1.45      0.00
    4    1   15     -0.06      0.00
    4    1   16     -1.20      0.00
    4    1   17     -1.57      0.00
    4    1   18     -0.66      0.00
    4    2    0      3.45      0.00
    4    2    1      1.80      0.00
    4    2    2     -3.44      0.00
    4    2    3     -1.16      0.00
    4    2    4      5.02      0.00
    4    2    5      1.14      0.00
    4    2    6      3.90      0.00
    4    2    7      4.38      0.00
    4    2    8      2.24      0.00
    4    2    9      2.27      0.00
    4    2   10      2.26      0.00
    4    2   11      6.92      0.00
    4    2   12     -0.97      0.00
    4    2   13     -1.05      0.00
    4    2   14      1.60      0.00
    4    2   15     -1.27      0.00
    4    2   16      0.06      0.00
    4    2   17     -0.39      0.00
    4    2   18     -0.21      0.00
    4    3    0     -1.44      0.00
    4    3    1     -2.66      0.00
    4    3    2      0.32      0.00
    4    3    3     -3.85      0.00
    4    3    4     -5.78      0.00
    4    3    5     -0.24      0.00
    4    3    6      0.86      0.00
    4    3    7      2.38      0.00
    4    3    8      3.87      0.00
    4    3    9      0.07      0.00
    4    3   10     -1.48      0.00
    4    3   11     -8.21      0.00
    4    3   12      1.07      0.00
    4    3   13      0.92      0.00
    4    3   14     -0.32      0.00
    4    3   15      0.97      0.00
    4    3   16     -0.88      0.00
    4    3   17     -1.08      0.00
    4    3   18      0.09      0.00
    4    4    0      0.99      0.00
    4    4    1     -2.07      0.00
    4    4    2     -2.99      0.00
    4    4    3      0.13      0.00
    4    4    4      3.59      0.00
    4    4    5      2.68      0.00
    4    4    6      3.77      0.00
    4    4    7      1.96      0.00
    4    4    8      0.08      0.00
    4    4    9     -1.32      0.00
    4    4   10      0.38      0.00
    4    4   11      3.53      0.00
    4    4   12     -3.90      0.00
    4    4   13     -2.94      0.00
    4    4   14     -1.95      0.00
    4    4   15     -1.83      0.00
    4    4   16     -1.18      0.00
    4    4   17     -1.22      0.00
    4    4   18     -1.37      0.00
    4    5    0     -0.63      0.00
    4    5    1     -1.02      0.00
    4    5    2     -0.87      0.00
    4    5    3     -2.36      0.00
    4    5    4     -2.70      0.00
    4    5    5      2.05      0.00
    4    5    6      3.44      0.00
    4    5    7      3.55      0.00
    4    5    8      4.82      0.00
    4    5    9      0.16      0.00
    4    5   10     -1.83      0.00
    4    5   11     -7.29      0.00
    4    5   12      1.06      0.00
    4    5   13      0.60      0.00
    4    5   14     -0.55      0.00
    4    5   15     -0.52      0.00
    4    5   16     -1.23      0.00
    4    5   17     -0.62      0.00
    4    5   18      0.26      0.00
    4    6    0     -0.30      0.00
    4    6    1      1.78      0.00
    4    6    2      2.26      0.00
    4    6    3      4.30      0.00
    4    6    4      5.90      0.00
    4    6    5      2.29      0.00
    4    6    6      2.52      0.00
    4    6    7      0.96      0.00
    4    6    8     -1.25      0.00
    4    6    9     -0.82      0.00
    4    6   10     -0.60      0.00
    4    6   11      3.54      0.00
    4    6   12     -4.31      0.00
    4    6   13     -1.37      0.00
    4    6   14     -0.01      0.00
    4    6   15      0.71      0.00
    4    6   16      0.89      0.00
    4    6   17      0.08      0.00
    4    6   18      0.50      0.00
    4    7    0      1.91      0.00
    4    7    1     -0.90      0.00
    4    7    2      1.64      0.00
    4    7    3      0.73      0.00
    4    7    4     -0.51      0.00
    4    7    5      3.28      0.00
    4    7    6      2.59      0.00
    4    7    7      0.76      0.00
    4    7    8      2.39      0.00
    4    7    9     -2.78      0.00
    4    7   10     -2.91      0.00
    4    7   11     -7.61      0.00
    4    7   12      0.25      0.00
    4    7   13      0.38      0.00
    4    7   14     -1.36      0.00
    4    7   15      1.26      0.00
    4    7   16     -0.06      0.00
    4    7   17      1.38      0.00
    4    7   18      0.25      0.00
    4    8    0      0.74      0.00
    4    8    1      4.95      0.00
    4    8    2      2.44      0.00
    4    8    3      3.06      0.00
    4    8    4      4.77      0.00
    4    8    5     -0.06      0.00
    4    8    6      2.74      0.00
    4    8    7      1.29      0.00
    4    8    8     -0.60      0.00
    4    8    9      0.71      0.00
    4    8   10     -0.64      0.00
    4    8   11      4.07      0.00
    4    8   12     -2.93      0.00
    4    8   13      0.49      0.00
    4    8   14      1.89      0.00
    4    8   15      1.00      0.00
    4    8   16      1.41      0.00
    4    8   17      0.03      0.00
    4    9    0      2.40      0.00
    4    9    1     -0.19      0.00
    4    9    2      4.02      0.00
    4    9    3      1.83      0.00
    4    9    4      0.24      0.00
    4    9    5      2.61      0.00
    4    9    6      0.10      0.00
    4    9    7     -0.27      0.00
    4    9    8      1.89      0.00
    4    9    9     -1.86      0.00
    4    9   10     -1.65      0.00
    4    9   11     -4.79      0.00
    4    9   12      1.00      0.00
    4    9   13      1.37      0.00
    4    9   14      0.33      0.00
    4    9   15      1.75      0.00
    4    9   16      0.84      0.00
    4    9   17      0.62      0.00
    4   10    0     -1.41      0.00
    4   10    1      0.28      0.00
    4   10    2     -1.43      0.00
    4   10    3     -0.96      0.00
    4   10    4      0.94      0.00
    4   10    5     -3.11      0.00
    4   10    6      1.65      0.00
    4   10    7     -0.44      0.00
    4   10    8     -2.19      0.00
    4   10    9     -0.08      0.00
    4   10   10     -1.05      0.00
    4   10   11      2.79      0.00
    4   10   12     -1.71      0.00
    4   10   13      1.42      0.00
    4   10   14      1.24      0.00
    4   10   15      2.64      0.00
    4   10   16      0.41      0.00
    4   10   17      0.88      0.00
    4   11    0      0.92      0.00
    4   11    1     -1.18      0.00
    4   11    2      0.93      0.00
    4   11    3     -1.95      0.00
    4   11    4     -1.61      0.00
    4   11    5     -0.24      0.00
    4   11    6     -1.65      0.00
    4   11    7     -1.86      0.00
    4   11    8      0.91      0.00
    4   11    9     -3.24      0.00
    4   11   10     -2.45      0.00
    4   11   11     -3.46      0.00
    4   11   12      0.44      0.00
    4   11   13      0.70      0.00
    4   11   14      0.60      0.00
    4   11   15     -1.70      0.00
    4   11   16      0.11      0.00
    4   12    0      0.34      0.00
    4   12    1      1.39      0.00
    4   12    2      2.04      0.00
    4   12    3      1.17      0.00
    4   12    4      2.28      0.00
    4   12    5     -1.23      0.00
    4   12    6      0.52      0.00
    4   12    7      0.19      0.00
    4   12    8     -2.18      0.00
    4   12    9      1.21      0.00
    4   12   10      0.09      0.00
    4   12   11      1.31      0.00
    4   12   12     -0.87      0.00
    4   12   13     -0.14      0.00
    4   12   14     -0.53      0.00
    4   12   15      1.00      0.00
    4   13    0      3.18      0.00
    4   13    1      0.24      0.00
    4   13    2      0.24      0.00
    4   13    3      0.62      0.00
    4   13    4     -0.32      0.00
    4   13    5      0.59      0.00
    4   13    6      1.80      0.00
    4   13    7     -1.31      0.00
    4   13    8      0.69      0.00
    4   13    9     -2.38      0.00
    4   13   10     -2.24      0.00
    4   13   11     -0.28      0.00
    4   13   12     -0.40      0.00
    4   13   13      1.16      0.00
    4   13   14     -1.01      0.00
    4   14    0      0.33      0.00
    4   14    1      1.89      0.00
    4   14    2      5.11      0.00
    4   14    3     -0.21      0.00
    4   14    4      4.31      0.00
    4   14    5      0.87      0.00
    4   14    6     -1.68      0.00
    4   14    7      0.30      0.00
    4   14    8     -1.46      0.00
    4   14    9     -1.32      0.00
    4   14   10      0.84      0.00
    4   14   11     -1.83      0.00
    4   14   12      1.17      0.00
    4   14   13     -1.41      0.00
    4   15    0      3.59      0.00
    4   15    1      2.67      0.00
    4   15    2     -0.11      0.00
    4   15    3      6.66      0.00
    4   15    4     -0.12      0.00
    4   15    5     -0.07      0.00
    4   15    6      2.43      0.00
    4   15    7     -2.05      0.00
    4   15    8     -1.41      0.00
    4   15    9      1.61      0.00
    4   15   10     -2.59      0.00
    4   15   11      3.39      0.00
    4   15   12     -1.85      0.00
    4   16    0      0.24      0.00
    4   16    1      0.16      0.00
    4   16    2      4.79      0.00
    4   16    3     -4.18      0.00
    4   16    4      3.19      0.00
    4   16    5      3.43      0.00
    4   16    6     -1.35      0.00
    4   16    7      3.18      0.00
    4   16    8      2.06      0.00
    4   16    9     -1.48      0.00
    4   16   10      4.59      0.00
    4   16   11     -1.07      0.00
    4   17    0     -2.29      0.00
    4   17    1     -0.94      0.00
    4   17    2     -3.53      0.00
    4   17    3      5.74      0.00
    4   17    4     -0.52      0.00
    4   17    5     -3.46      0.00
    4   17    6      1.06      0.00
    4   17    7     -3.95      0.00
    4   17    8     -2.96      0.00
    4   17    9      1.86      0.00
    4   18    0      0.32      0.00
    4   18    1      0.74      0.00
    4   18    2      2.57      0.00
    4   18    3     -3.36      0.00
    4   18    4     -0.59      0.00
    4   18    5      4.18      0.00
    4   18    6     -2.87      0.00
   -5   16    0      0.41      0.00
    5  -16    1      1.84      0.00
    5  -16    2      0.39      0.00
   -5   15    0      0.78      0.00
    5  -15    1      1.49      0.00
    5  -15    2     -0.19      0.00
    5  -15    3      2.49      0.00
    5  -15    4      1.07      0.00
    5  -15    5      2.05      0.00
   -5   14    0      0.24      0.00
    5  -14    1     -0.26      0.00
    5  -14    2      0.41      0.00
    5  -14    3     -2.11      0.00
    5  -14    4     -0.39      0.00
    5  -14    5     -2.46      0.00
    5  -14    6      0.15      0.00
    5  -14    7     -0.01      0.00
   -5   13    0     -0.42      0.00
    5  -13    1     -1.09      0.00
    5  -13    2     -2.53      0.00
    5  -13    3     -0.70      0.00
    5  -13    4     -0.48      0.00
    5  -13    5      1.11      0.00
    5  -13    6      0.62      0.00
    5  -13    7     -2.18      0.00
    5  -13    8     -1.14      0.00
   -5   12    0     -3.31      0.00
    5  -12    1      1.23      0.00
    5  -12    2     -0.23      0.00
    5  -12    3      2.47      0.00
    5  -12    4      0.05      0.00
    5  -12    5     -1.48      0.00
    5  -12    6     -1.93      0.00
    5  -12    7     -0.46      0.00
    5  -12    8     -0.96      0.00
    5  -12    9     -0.30      0.00
   -5   11    0      3.91      0.00
    5  -11    1     -0.39      0.00
    5  -11    2      0.56      0.00
    5  -11    3     -4.06      0.00
    5  -11    4      0.69      0.00
    5  -11    5     -0.62      0.00
    5  -11    6      2.23      0.00
    5  -11    7     -1.57      0.00
    5  -11    8      0.25      0.00
    5  -11    9      0.10      0.00
    5  -11   10     -0.15      0.00
    5  -11   11      3.19      0.00
   -5   10    0     -8.98      0.00
    5  -10    1     -6.20      0.00
    5  -10    2     -5.77      0.00
    5  -10    3      0.07      0.00
    5  -10    4     -2.07      0.00
    5  -10    5     -1.17      0.00
    5  -10    6     -2.16      0.00
    5  -10    7     -0.91      0.00
    5  -10    8     -1.84      0.00
    5  -10    9     -1.76      0.00
    5  -10   10     -2.60      0.00
    5  -10   11     -3.02      0.00
    5  -10   12     -0.66      0.00
   -5    9    0      3.67      0.00
    5   -9    1      6.04      0.00
    5   -9    2      2.90      0.00
    5   -9    3     -1.82      0.00
    5   -9    4      0.10      0.00
    5   -9    5     -2.25      0.00
    5   -9    6     -0.10      0.00
    5   -9    7     -0.98      0.00
    5   -9    8     -0.46      0.00
    5   -9    9      1.02      0.00
    5   -9   10      1.38      0.00
    5   -9   11      3.63      0.00
    5   -9   12      1.04      0.00
    5   -9   13     -0.18      0.00
   -5    8    0     -2.29      0.00
    5   -8    1     -9.57      0.00
    5   -8    2     -3.96      0.00
    5   -8    3     -2.82      0.00
    5   -8    4     -0.23      0.00
    5   -8    5     -0.21      0.00
    5   -8    6      1.49      0.00
    5   -8    7      0.80      0.00
    5   -8    8      1.84      0.00
    5   -8    9      1.42      0.00
    5   -8   10     -0.61      0.00
    5   -8   11     -1.17      0.00
    5   -8   12     -1.40      0.00
    5   -8   13      1.50      0.00
   -5    7    0     -3.05      0.00
    5   -7    1      3.32      0.00
    5   -7    2     -0.31      0.00
    5   -7    3     -2.11      0.00
    5   -7    4     -0.27      0.00
    5   -7    5     -0.50      0.00
    5   -7    6      0.34      0.00
    5   -7    7      0.63      0.00
    5   -7    8     -2.31      0.00
    5   -7    9     -2.49      0.00
    5   -7   10     -3.07      0.00
    5   -7   11      0.05      0.00
    5   -7   12      0.70      0.00
    5   -7   13     -1.22      0.00
    5   -7   14      1.00      0.00
   -5    6    0      0.66      0.00
    5   -6    1     -4.24      0.00
    5   -6    2     -0.90      0.00
    5   -6    3      0.29      0.00
    5   -6    4     -0.33      0.00
    5   -6    5     -0.33      0.00
    5   -6    6      0.28      0.00
    5   -6    7      0.63      0.00
    5   -6    8      2.51      0.00
    5   -6    9      5.23      0.00
    5   -6   10      3.69      0.00
    5   -6   11      1.37      0.00
    5   -6   12      0.05      0.00
    5   -6   13      1.19      0.00
    5   -6   14     -0.38      0.00
    5   -6   15      0.20      0.00
   -5    5    0     -0.30      0.00
    5   -5    1     -1.81      0.00
    5   -5    2      1.25      0.00
    5   -5    3     -2.70      0.00
    5   -5    4      5.26      0.00
    5   -5    5      3.38      0.00
    5   -5    6      6.45      0.00
    5   -5    7      5.30      0.00
    5   -5    8      1.80      0.00
    5   -5    9     -2.61      0.00
    5   -5   10     -3.31      0.00
    5   -5   11     -0.03      0.00
    5   -5   12     -0.08      0.00
    5   -5   13      0.32      0.00
    5   -5   14      1.36      0.00
    5   -5   15      0.61      0.00
   -5    4    0     -2.62      0.00
    5   -4    1      0.31      0.00
    5   -4    2     -0.16      0.00
    5   -4    3      3.92      0.00
    5   -4    4     -1.51      0.00
    5   -4    5      2.78      0.00
    5   -4    6     -2.19      0.00
    5   -4    7     -1.94      0.00
    5   -4    8     -1.64      0.00
    5   -4    9      3.52      0.00
    5   -4   10      2.42      0.00
    5   -4   11      1.60      0.00
    5   -4   12      4.77      0.00
    5   -4   13      2.75      0.00
    5   -4   14      3.83      0.00
    5   -4   15      0.61      0.00
    5   -4   16      1.18      0.00
   -5    3    0      0.71      0.00
    5   -3    1     -2.29      0.00
    5   -3    2      1.86      0.00
    5   -3    3     -0.94      0.00
    5   -3    4      5.47      0.00
    5   -3    5     -1.92      0.00
    5   -3    6      5.21      0.00
    5   -3    7      5.75      0.00
    5   -3    8      3.38      0.00
    5   -3    9      0.25      0.00
    5   -3   10     -0.26      0.00
    5   -3   11      1.66      0.00
    5   -3   12     -3.30      0.00
    5   -3   13      1.14      0.00
    5   -3   14     -1.12      0.00
    5   -3   15      0.81      0.00
    5   -3   16     -1.75      0.00
   -5    2    0      0.06      0.00
    5   -2    1      1.07      0.00
    5   -2    2      2.53      0.00
    5   -2    3      2.15      0.00
    5   -2    4      0.47      0.00
    5   -2    5     10.08      0.00
    5   -2    6      0.31      0.00
    5   -2    7     -0.33      0.00
    5   -2    8      0.17      0.00
    5   -2    9      1.66      0.00
    5   -2   10      1.91      0.00
    5   -2   11      0.92      0.00
    5   -2   12      8.45      0.00
    5   -2   13      1.54      0.00
    5   -2   14      4.72      0.00
    5   -2   15      1.89      0.00
    5   -2   16      3.32      0.00
    5   -2   17      0.78      0.00
   -5    1    0     -1.29      0.00
    5   -1    1     -1.64      0.00
    5   -1    2     -1.46      0.00
    5   -1    3      0.81      0.00
    5   -1    4     -1.01      0.00
    5   -1    5    -12.76      0.00
    5   -1    6     -3.07      0.00
    5   -1    7     -2.74      0.00
    5   -1    8     -5.10      0.00
    5   -1    9     -2.87      0.00
    5   -1   10     -5.50      0.00
    5   -1   11     -0.92      0.00
    5   -1   12     -8.63      0.00
    5   -1   13      2.32      0.00
    5   -1   14     -0.56      0.00
    5   -1   15     -1.01      0.00
    5   -1   16     -2.78      0.00
    5   -1   17     -1.76      0.00
    5    0    0      0.14      0.00
    5    0    1      2.18      0.00
    5    0    2      2.04      0.00
    5    0    3     -4.16      0.00
    5    0    4     -2.15      0.00
    5    0    5      8.79      0.00
    5    0    6     -0.80      0.00
    5    0    7      2.80      0.00
    5    0    8      3.86      0.00
    5    0    9      2.33      0.00
    5    0   10      4.22      0.00
    5    0   11     -0.05      0.00
    5    0   12      7.61      0.00
    5    0   13     -4.24      0.00
    5    0   14     -1.96      0.00
    5    0   15      0.82      0.00
    5    0   16     -0.17      0.00
    5    0   17      0.38      0.00
    5    1    0      4.42      0.00
    5    1    1     -2.15      0.00
    5    1    2      0.53      0.00
    5    1    3      4.96      0.00
    5    1    4      1.32      0.00
    5    1    5     -6.80      0.00
    5    1    6      0.47      0.00
    5    1    7     -2.18      0.00
    5    1    8     -4.20      0.00
    5    1    9     -1.73      0.00
    5    1   10     -7.10      0.00
    5    1   11     -1.93      0.00
    5    1   12     -9.67      0.00
    5    1   13      4.68      0.00
    5    1   14      4.53      0.00
    5    1   15      0.18      0.00
    5    1   16      1.72      0.00
    5    1   17     -0.88      0.00
    5    2    0     -0.63      0.00
    5    2    1      6.40      0.00
    5    2    2      0.24      0.00
    5    2    3     -7.12      0.00
    5    2    4     -5.22      0.00
    5    2    5     -1.38      0.00
    5    2    6     -3.92      0.00
    5    2    7      1.15      0.00
    5    2    8      1.68      0.00
    5    2    9      1.29      0.00
    5    2   10      3.57      0.00
    5    2   11      1.31      0.00
    5    2   12      7.75      0.00
    5    2   13     -4.73      0.00
    5    2   14     -6.04      0.00
    5    2   15     -1.46      0.00
    5    2   16     -5.15      0.00
    5    2   17     -1.89      0.00
    5    2   18     -3.05      0.00
    5    3    0      3.59      0.00
    5    3    1     -5.27      0.00
    5    3    2     -0.71      0.00
    5    3    3      3.24      0.00
    5    3    4     -0.25      0.00
    5    3    5      2.60      0.00
    5    3    6      2.00      0.00
    5    3    7      3.60      0.00
    5    3    8      1.07      0.00
    5    3    9      3.09      0.00
    5    3   10     -3.57      0.00
    5    3   11     -4.08      0.00
    5    3   12    -11.76      0.00
    5    3   13     -0.17      0.00
    5    3   14      3.18      0.00
    5    3   15     -0.83      0.00
    5    3   16      2.47      0.00
    5    3   17     -0.38      0.00
    5    3   18     -0.07      0.00
    5    4    0      2.36      0.00
    5    4    1      5.36      0.00
    5    4    2      2.44      0.00
    5    4    3     -2.08      0.00
    5    4    4      2.63      0.00
    5    4    5     -1.67      0.00
    5    4    6      2.88      0.00
    5    4    7      1.81      0.00
    5    4    8      2.79      0.00
    5    4    9      0.21      0.00
    5    4   10      2.66      0.00
    5    4   11      4.44      0.00
    5    4   12     10.85      0.00
    5    4   13      1.04      0.00
    5    4   14     -1.24      0.00
    5    4   15      1.52      0.00
    5    4   16     -1.59      0.00
    5    4   17     -0.22      0.00
    5    4   18     -1.48      0.00
    5    5    0     -1.92      0.00
    5    5    1     -3.54      0.00
    5    5    2     -5.31      0.00
    5    5    3     -3.30      0.00
    5    5    4     -8.26      0.00
    5    5    5     -1.04      0.00
    5    5    6     -4.51      0.00
    5    5    7      2.35      0.00
    5    5    8     -0.27      0.00
    5    5    9      5.57      0.00
    5    5   10     -0.31      0.00
    5    5   11     -3.23      0.00
    5    5   12     -9.66      0.00
    5    5   13     -1.83      0.00
    5    5   14      0.80      0.00
    5    5   15     -2.45      0.00
    5    5   16     -0.49      0.00
    5    5   17     -1.54      0.00
    5    5   18     -0.92      0.00
    5    6    0     -0.65      0.00
    5    6    1     -1.00      0.00
    5    6    2      4.08      0.00
    5    6    3      4.03      0.00
    5    6    4      7.02      0.00
    5    6    5      5.07      0.00
    5    6    6      4.71      0.00
    5    6    7      4.20      0.00
    5    6    8      3.19      0.00
    5    6    9     -1.96      0.00
    5    6   10     -0.45      0.00
    5    6   11     -0.93      0.00
    5    6   12      3.91      0.00
    5    6   13     -4.55      0.00
    5    6   14     -2.81      0.00
    5    6   15     -0.51      0.00
    5    6   16     -0.49      0.00
    5    6   17      0.12      0.00
    5    7    0      2.11      0.00
    5    7    1      2.11      0.00
    5    7    2     -3.25      0.00
    5    7    3     -3.18      0.00
    5    7    4     -3.95      0.00
    5    7    5     -3.01      0.00
    5    7    6      0.77      0.00
    5    7    7      1.22      0.00
    5    7    8      1.81      0.00
    5    7    9      5.98      0.00
    5    7   10      1.64      0.00
    5    7   11      0.54      0.00
    5    7   12     -2.81      0.00
    5    7   13      3.42      0.00
    5    7   14      3.12      0.00
    5    7   15      1.14      0.00
    5    7   16      1.01      0.00
    5    7   17     -0.21      0.00
    5    8    0     -3.56      0.00
    5    8    1     -0.90      0.00
    5    8    2      3.12      0.00
    5    8    3      4.82      0.00
    5    8    4      0.79      0.00
    5    8    5      5.90      0.00
    5    8    6     -3.04      0.00
    5    8    7      5.46      0.00
    5    8    8      0.62      0.00
    5    8    9     -1.04      0.00
    5    8   10     -0.55      0.00
    5    8   11     -3.69      0.00
    5    8   12     -0.90      0.00
    5    8   13     -7.51      0.00
    5    8   14     -2.77      0.00
    5    8   15     -2.12      0.00
    5    8   16      0.07      0.00
    5    8   17      0.67      0.00
    5    9    0      1.63      0.00
    5    9    1      1.89      0.00
    5    9    2     -0.60      0.00
    5    9    3      0.30      0.00
    5    9    4      1.57      0.00
    5    9    5     -0.46      0.00
    5    9    6      5.49      0.00
    5    9    7     -0.11      0.00
    5    9    8      1.92      0.00
    5    9    9      1.89      0.00
    5    9   10     -1.83      0.00
    5    9   11     -1.92      0.00
    5    9   12     -2.42      0.00
    5    9   13      2.17      0.00
    5    9   14      2.41      0.00
    5    9   15      3.55      0.00
    5    9   16      2.11      0.00
    5   10    0      0.33      0.00
    5   10    1     -0.66      0.00
    5   10    2     -1.29      0.00
    5   10    3     -0.23      0.00
    5   10    4     -3.12      0.00
    5   10    5      1.85      0.00
    5   10    6     -3.58      0.00
    5   10    7      4.90      0.00
    5   10    8      1.69      0.00
    5   10    9      0.43      0.00
    5   10   10      1.77      0.00
    5   10   11     -0.87      0.00
    5   10   12      0.63      0.00
    5   10   13     -2.13      0.00
    5   10   14     -0.14      0.00
    5   10   15     -1.42      0.00
    5   10   16      0.24      0.00
    5   11    0     -4.63      0.00
    5   11    1      0.69      0.00
    5   11    2     -0.44      0.00
    5   11    3      1.22      0.00
    5   11    4     -1.12      0.00
    5   11    5      1.35      0.00
    5   11    6      0.66      0.00
    5   11    7      0.43      0.00
    5   11    8     -2.32      0.00
    5   11    9      0.13      0.00
    5   11   10     -4.32      0.00
    5   11   11     -4.35      0.00
    5   11   12     -3.03      0.00
    5   11   13     -1.98      0.00
    5   11   14      0.99      0.00
    5   11   15      1.65      0.00
    5   12    0      3.57      0.00
    5   12    1     -1.30      0.00
    5   12    2     -2.78      0.00
    5   12    3      0.06      0.00
    5   12    4     -0.58      0.00
    5   12    5      0.80      0.00
    5   12    6      0.47      0.00
    5   12    7      0.16      0.00
    5   12    8      2.08      0.00
    5   12    9     -3.33      0.00
    5   12   10     -0.59      0.00
    5   12   11     -0.84      0.00
    5   12   12     -1.01      0.00
    5   12   13      0.90      0.00
    5   12   14     -0.93      0.00
    5   13    0     -3.94      0.00
    5   13    1      0.11      0.00
    5   13    2     -0.42      0.00
    5   13    3     -1.38      0.00
    5   13    4     -1.54      0.00
    5   13    5      0.59      0.00
    5   13    6     -2.31      0.00
    5   13    7      1.59      0.00
    5   13    8     -5.08      0.00
    5   13    9      0.20      0.00
    5   13   10     -2.53      0.00
    5   13   11     -3.39      0.00
    5   13   12      0.46      0.00
    5   13   13     -2.12      0.00
    5   14    0      0.59      0.00
    5   14    1      0.31      0.00
    5   14    2     -0.60      0.00
    5   14    3      4.72      0.00
    5   14    4      0.48      0.00
    5   14    5      3.55      0.00
    5   14    6      2.66      0.00
    5   14    7     -0.34      0.00
    5   14    8      3.31      0.00
    5   14    9     -1.99      0.00
    5   14   10     -1.27      0.00
    5   14   11      0.88      0.00
    5   14   12     -2.35      0.00
    5   15    0      3.99      0.00
    5   15    1      2.62      0.00
    5   15    2      2.50      0.00
    5   15    3      0.48      0.00
    5   15    4      4.86      0.00
    5   15    5      2.13      0.00
    5   15    6      0.04      0.00
    5   15    7      1.37      0.00
    5   15    8     -3.47      0.00
    5   15    9     -0.83      0.00
    5   15   10      0.81      0.00
    5   15   11     -2.34      0.00
    5   16    0     -3.37      0.00
    5   16    1     -0.73      0.00
    5   16    2      1.02      0.00
    5   16    3      3.93      0.00
    5   16    4     -0.99      0.00
    5   16    5      2.21      0.00
    5   16    6      2.94      0.00
    5   16    7      0.28      0.00
    5   16    8      2.22      0.00
    5   16    9      0.22      0.00
    5   17    0      3.50      0.00
    5   17    1      1.40      0.00
    5   17    2     -0.66      0.00
    5   17    3     -0.64      0.00
    5   17    4      3.51      0.00
    5   17    5      1.29      0.00
    5   17    6     -1.38      0.00
    5   17    7      0.02      0.00
   -6   15    0      1.49      0.00
    6  -15    1     -0.07      0.00
    6  -15    2      0.08      0.00
   -6   14    0      0.19      0.00
    6  -14    1      0.24      0.00
    6  -14    2      0.38      0.00
    6  -14    3      1.23      0.00
    6  -14    4     -0.86      0.00
    6  -14    5      0.73      0.00
   -6   13    0      0.90      0.00
    6  -13    1      1.15      0.00
    6  -13    2      0.33      0.00
    6  -13    3      0.16      0.00
    6  -13    4      0.45      0.00
    6  -13    5      0.96      0.00
    6  -13    6      0.79      0.00
    6  -13    7      1.00      0.00
   -6   12    0      0.23      0.00
    6  -12    1     -2.73      0.00
    6  -12    2      0.34      0.00
    6  -12    3     -1.11      0.00
    6  -12    4      0.46      0.00
    6  -12    5     -0.61      0.00
    6  -12    6     -1.30      0.00
    6  -12    7     -1.20      0.00
    6  -12    8     -0.30      0.00
   -6   11    0     -0.68      0.00
    6  -11    1      0.41      0.00
    6  -11    2     -1.58      0.00
    6  -11    3     -0.09      0.00
    6  -11    4     -2.83      0.00
    6  -11    5     -0.30      0.00
    6  -11    6     -1.11      0.00
    6  -11    7     -0.32      0.00
    6  -11    8     -1.72      0.00
    6  -11    9     -1.14      0.00
    6  -11   10     -0.50      0.00
   -6   10    0      2.49      0.00
    6  -10    1      1.06      0.00
    6  -10    2      2.65      0.00
    6  -10    3      1.69      0.00
    6  -10    4      2.63      0.00
    6  -10    5      1.31      0.00
    6  -10    6     -1.49      0.00
    6  -10    7      0.35      0.00
    6  -10    8     -1.26      0.00
    6  -10    9      0.55      0.00
    6  -10   10     -0.51      0.00
    6  -10   11     -1.62      0.00
   -6    9    0     -0.17      0.00
    6   -9    1     -1.13      0.00
    6   -9    2     -1.11      0.00
    6   -9    3     -1.71      0.00
    6   -9    4     -4.27      0.00
    6   -9    5     -2.02      0.00
    6   -9    6     -0.33      0.00
    6   -9    7     -1.58      0.00
    6   -9    8      1.57      0.00
    6   -9    9     -1.71      0.00
    6   -9   10      1.39      0.00
    6   -9   11      1.61      0.00
    6   -9   12      1.28      0.00
   -6    8    0      0.29      0.00
    6   -8    1     -0.56      0.00
    6   -8    2     -2.61      0.00
    6   -8    3     -0.49      0.00
    6   -8    4     -0.03      0.00
    6   -8    5     -0.19      0.00
    6   -8    6     -2.77      0.00
    6   -8    7      0.88      0.00
    6   -8    8     -1.96      0.00
    6   -8    9      1.58      0.00
    6   -8   10     -0.55      0.00
    6   -8   11     -1.99      0.00
    6   -8   12     -0.59      0.00
    6   -8   13     -0.86      0.00
   -6    7    0      0.95      0.00
    6   -7    1      1.96      0.00
    6   -7    2      2.07      0.00
    6   -7    3      0.06      0.00
    6   -7    4     -4.45      0.00
    6   -7    5     -0.71      0.00
    6   -7    6      0.21      0.00
    6   -7    7      0.38      0.00
    6   -7    8      3.00      0.00
    6   -7    9      0.04      0.00
    6   -7   10      1.61      0.00
    6   -7   11      1.61      0.00
    6   -7   12      0.78      0.00
    6   -7   13      2.11      0.00
   -6    6    0     -1.25      0.00
    6   -6    1     -3.69      0.00
    6   -6    2     -6.68      0.00
    6   -6    3     -3.19      0.00
    6   -6    4     -0.18      0.00
    6   -6    5     -1.28      0.00
    6   -6    6     -0.23      0.00
    6   -6    7     -0.22      0.00
    6   -6    8      1.39      0.00
    6   -6    9      0.38      0.00
    6   -6   10      2.05      0.00
    6   -6   11     -0.82      0.00
    6   -6   12     -0.09      0.00
    6   -6   13     -1.45      0.00
    6   -6   14     -0.69      0.00
   -6    5    0     -1.48      0.00
    6   -5    1      0.28      0.00
    6   -5    2      0.62      0.00
    6   -5    3      0.47      0.00
    6   -5    4     -3.80      0.00
    6   -5    5      1.27      0.00
    6   -5    6      0.63      0.00
    6   -5    7      3.11      0.00
    6   -5    8      0.64      0.00
    6   -5    9      0.56      0.00
    6   -5   10     -2.79      0.00
    6   -5   11     -1.02      0.00
    6   -5   12     -0.46      0.00
    6   -5   13      1.51      0.00
    6   -5   14      0.63      0.00
    6   -5   15      0.92      0.00
   -6    4    0     -1.92      0.00
    6   -4    1      0.33      0.00
    6   -4    2     -3.04      0.00
    6   -4    3     -0.35      0.00
    6   -4    4      0.92      0.00
    6   -4    5     -0.80      0.00
    6   -4    6      1.25      0.00
    6   -4    7     -2.03      0.00
    6   -4    8      3.14      0.00
    6   -4    9      0.00      0.00
    6   -4   10      5.14      0.00
    6   -4   11      1.70      0.00
    6   -4   12      0.98      0.00
    6   -4   13      1.42      0.00
    6   -4   14      0.38      0.00
    6   -4   15      0.66      0.00
   -6    3    0     -2.36      0.00
    6   -3    1     -3.91      0.00
    6   -3    2     -3.07      0.00
    6   -3    3      0.04      0.00
    6   -3    4      0.68      0.00
    6   -3    5      5.20      0.00
    6   -3    6      4.20      0.00
    6   -3    7      7.11      0.00
    6   -3    8      3.15      0.00
    6   -3    9      1.39      0.00
    6   -3   10     -2.18      0.00
    6   -3   11     -1.32      0.00
    6   -3   12      0.93      0.00
    6   -3   13     -0.49      0.00
    6   -3   14      1.34      0.00
    6   -3   15      1.46      0.00
    6   -3   16      1.13      0.00
   -6    2    0     -3.55      0.00
    6   -2    1      2.51      0.00
    6   -2    2      2.10      0.00
    6   -2    3      2.30      0.00
    6   -2    4     -0.29      0.00
    6   -2    5     -3.50      0.00
    6   -2    6     -0.39      0.00
    6   -2    7     -6.50      0.00
    6   -2    8     -1.57      0.00
    6   -2    9     -1.83      0.00
    6   -2   10      1.21      0.00
    6   -2   11      1.42      0.00
    6   -2   12      0.27      0.00
    6   -2   13      5.23      0.00
    6   -2   14      1.52      0.00
    6   -2   15      1.34      0.00
    6   -2   16      1.10      0.00
   -6    1    0     -0.85      0.00
    6   -1    1      0.29      0.00
    6   -1    2     -3.65      0.00
    6   -1    3      0.58      0.00
    6   -1    4      2.89      0.00
    6   -1    5      6.53      0.00
    6   -1    6      2.90      0.00
    6   -1    7      7.76      0.00
    6   -1    8      5.17      0.00
    6   -1    9      1.35      0.00
    6   -1   10      2.65      0.00
    6   -1   11     -0.62      0.00
    6   -1   12      2.33      0.00
    6   -1   13     -3.21      0.00
    6   -1   14      2.34      0.00
    6   -1   15      2.47      0.00
    6   -1   16      0.63      0.00
    6    0    0     -5.34      0.00
    6    0    1     -3.52      0.00
    6    0    2      2.03      0.00
    6    0    3      2.42      0.00
    6    0    4     -0.57      0.00
    6    0    5     -2.54      0.00
    6    0    6      2.42      0.00
    6    0    7     -4.49      0.00
    6    0    8     -0.77      0.00
    6    0    9     -0.38      0.00
    6    0   10     -2.76      0.00
    6    0   11      0.19      0.00
    6    0   12     -1.67      0.00
    6    0   13      5.12      0.00
    6    0   14     -1.23      0.00
    6    0   15     -1.63      0.00
    6    0   16      0.88      0.00
    6    0   17     -0.79      0.00
    6    1    0      2.83      0.00
    6    1    1      8.03      0.00
    6    1    2     -0.62      0.00
    6    1    3     -0.73      0.00
    6    1    4      0.70      0.00
    6    1    5     -1.34      0.00
    6    1    6     -3.83      0.00
    6    1    7     -1.75      0.00
    6    1    8     -2.04      0.00
    6    1    9     -5.19      0.00
    6    1   10      0.80      0.00
    6    1   11     -3.92      0.00
    6    1   12     -0.88      0.00
    6    1   13     -6.82      0.00
    6    1   14      1.24      0.00
    6    1   15      2.32      0.00
    6    1   16     -0.57      0.00
    6    1   17      0.00      0.00
    6    2    0     -4.38      0.00
    6    2    1     -5.05      0.00
    6    2    2     -0.41      0.00
    6    2    3      2.22      0.00
    6    2    4     -2.17      0.00
    6    2    5      1.86      0.00
    6    2    6      1.85      0.00
    6    2    7      1.55      0.00
    6    2    8      3.18      0.00
    6    2    9      3.34      0.00
    6    2   10     -1.94      0.00
    6    2   11      0.34      0.00
    6    2   12     -0.89      0.00
    6    2   13      5.29      0.00
    6    2   14     -1.58      0.00
    6    2   15     -2.38      0.00
    6    2   16      1.33      0.00
    6    2   17     -0.01      0.00
    6    3    0      3.62      0.00
    6    3    1      6.50      0.00
    6    3    2      1.54      0.00
    6    3    3     -0.34      0.00
    6    3    4      3.02      0.00
    6    3    5     -3.20      0.00
    6    3    6      1.96      0.00
    6    3    7     -2.67      0.00
    6    3    8     -0.65      0.00
    6    3    9     -3.77      0.00
    6    3   10      2.37      0.00
    6    3   11     -0.84      0.00
    6    3   12     -0.96      0.00
    6    3   13     -6.11      0.00
    6    3   14      0.57      0.00
    6    3   15      2.31      0.00
    6    3   16     -1.06      0.00
    6    3   17     -1.21      0.00
    6    4    0      1.80      0.00
    6    4    1      1.38      0.00
    6    4    2      1.13      0.00
    6    4    3      1.72      0.00
    6    4    4     -2.19      0.00
    6    4    5      0.95      0.00
    6    4    6     -4.04      0.00
    6    4    7     -0.77      0.00
    6    4    8      1.05      0.00
    6    4    9      2.02      0.00
    6    4   10     -1.51      0.00
    6    4   11     -0.72      0.00
    6    4   12      0.02      0.00
    6    4   13      4.89      0.00
    6    4   14     -1.97      0.00
    6    4   15     -3.00      0.00
    6    4   16     -0.46      0.00
    6    4   17     -0.81      0.00
    6    5    0     -2.45      0.00
    6    5    1     -0.68      0.00
    6    5    2     -2.72      0.00
    6    5    3     -2.19      0.00
    6    5    4     -1.30      0.00
    6    5    5     -2.01      0.00
    6    5    6      4.48      0.00
    6    5    7      2.11      0.00
    6    5    8      2.84      0.00
    6    5    9      0.75      0.00
    6    5   10      3.84      0.00
    6    5   11      1.88      0.00
    6    5   12     -1.34      0.00
    6    5   13     -5.01      0.00
    6    5   14      0.35      0.00
    6    5   15      1.95      0.00
    6    5   16      0.22      0.00
    6    5   17     -0.18      0.00
    6    6    0      3.22      0.00
    6    6    1      0.08      0.00
    6    6    2      2.45      0.00
    6    6    3      2.30      0.00
    6    6    4      5.30      0.00
    6    6    5      0.47      0.00
    6    6    6     -0.63      0.00
    6    6    7     -4.31      0.00
    6    6    8      0.42      0.00
    6    6    9      0.39      0.00
    6    6   10     -0.86      0.00
    6    6   11      0.94      0.00
    6    6   12      1.21      0.00
    6    6   13      5.43      0.00
    6    6   14     -1.15      0.00
    6    6   15     -0.12      0.00
    6    6   16      0.03      0.00
    6    6   17     -0.30      0.00
    6    7    0     -2.19      0.00
    6    7    1      1.65      0.00
    6    7    2     -2.51      0.00
    6    7    3     -4.65      0.00
    6    7    4     -8.60      0.00
    6    7    5     -5.38      0.00
    6    7    6     -3.14      0.00
    6    7    7      1.61      0.00
    6    7    8      1.48      0.00
    6    7    9      2.06      0.00
    6    7   10      3.84      0.00
    6    7   11      0.52      0.00
    6    7   12     -1.51      0.00
    6    7   13     -4.41      0.00
    6    7   14     -0.67      0.00
    6    7   15     -0.93      0.00
    6    7   16     -0.73      0.00
    6    8    0     -2.43      0.00
    6    8    1     -5.68      0.00
    6    8    2     -0.18      0.00
    6    8    3      2.66      0.00
    6    8    4      8.69      0.00
    6    8    5      3.74      0.00
    6    8    6      6.40      0.00
    6    8    7     -0.66      0.00
    6    8    8      3.41      0.00
    6    8    9      1.52      0.00
    6    8   10     -1.13      0.00
    6    8   11      1.56      0.00
    6    8   12     -2.19      0.00
    6    8   13      1.64      0.00
    6    8   14     -2.16      0.00
    6    8   15      0.97      0.00
    6    8   16      0.95      0.00
    6    9    0      3.93      0.00
    6    9    1      4.73      0.00
    6    9    2      2.33      0.00
    6    9    3     -2.42      0.00
    6    9    4     -4.46      0.00
    6    9    5     -6.86      0.00
    6    9    6     -3.91      0.00
    6    9    7     -1.30      0.00
    6    9    8      0.81      0.00
    6    9    9      1.26      0.00
    6    9   10      3.08      0.00
    6    9   11     -0.46      0.00
    6    9   12      0.60      0.00
    6    9   13     -0.96      0.00
    6    9   14      0.39      0.00
    6    9   15      0.27      0.00
    6    9   16     -0.04      0.00
    6   10    0      0.56      0.00
    6   10    1      0.66      0.00
    6   10    2      0.88      0.00
    6   10    3     -0.82      0.00
    6   10    4      1.73      0.00
    6   10    5      2.48      0.00
    6   10    6      3.67      0.00
    6   10    7      2.23      0.00
    6   10    8      3.54      0.00
    6   10    9      2.24      0.00
    6   10   10     -1.01      0.00
    6   10   11     -0.31      0.00
    6   10   12     -4.62      0.00
    6   10   13     -2.43      0.00
    6   10   14     -2.56      0.00
    6   10   15     -0.98      0.00
    6   11    0     -0.79      0.00
    6   11    1     -3.74      0.00
    6   11    2     -0.95      0.00
    6   11    3      0.53      0.00
    6   11    4      2.16      0.00
    6   11    5     -3.47      0.00
    6   11    6      2.64      0.00
    6   11    7     -0.31      0.00
    6   11    8      2.50      0.00
    6   11    9      0.03      0.00
    6   11   10      0.55      0.00
    6   11   11     -0.78      0.00
    6   11   12     -0.33      0.00
    6   11   13      0.44      0.00
    6   11   14      0.26      0.00
    6   12    0      3.42      0.00
    6   12    1      4.03      0.00
    6   12    2     -0.01      0.00
    6   12    3     -7.87      0.00
    6   12    4     -5.37      0.00
    6   12    5     -2.78      0.00
    6   12    6     -2.39      0.00
    6   12    7     -0.36      0.00
    6   12    8      0.47      0.00
    6   12    9      1.53      0.00
    6   12   10     -0.36      0.00
    6   12   11     -0.82      0.00
    6   12   12     -1.24      0.00
    6   12   13     -1.13      0.00
    6   13    0     -1.35      0.00
    6   13    1     -3.68      0.00
    6   13    2     -0.15      0.00
    6   13    3      3.71      0.00
    6   13    4      5.16      0.00
    6   13    5      1.44      0.00
    6   13    6      6.51      0.00
    6   13    7      2.80      0.00
    6   13    8      2.94      0.00
    6   13    9     -1.89      0.00
    6   13   10     -1.83      0.00
    6   13   11     -2.69      0.00
    6   13   12     -3.97      0.00
    6   14    0      0.66      0.00
    6   14    1      0.79      0.00
    6   14    2     -2.01      0.00
    6   14    3     -5.02      0.00
    6   14    4     -2.66      0.00
    6   14    5     -1.32      0.00
    6   14    6     -1.57      0.00
    6   14    7     -1.70      0.00
    6   14    8     -0.93      0.00
    6   14    9      0.59      0.00
    6   14   10     -1.33      0.00
    6   15    0     -0.63      0.00
    6   15    1     -1.57      0.00
    6   15    2      0.54      0.00
    6   15    3     -1.24      0.00
    6   15    4      1.14      0.00
    6   15    5     -0.19      0.00
    6   15    6      2.43      0.00
    6   15    7      1.77      0.00
    6   15    8      0.36      0.00
    6   15    9     -1.21      0.00
    6   16    0     -0.52      0.00
    6   16    1     -0.33      0.00
    6   16    2     -1.87      0.00
    6   16    3      2.25      0.00
    6   16    4      2.09      0.00
    6   16    5      2.82      0.00
    6   16    6      2.71      0.00
   -7   14    0     -0.36      0.00
    7  -14    1      0.74      0.00
    7  -14    2      0.23      0.00
    7  -14    3      0.80      0.00
   -7   13    0      0.56      0.00
    7  -13    1     -0.74      0.00
    7  -13    2     -0.14      0.00
    7  -13    3     -0.99      0.00
    7  -13    4      0.12      0.00
    7  -13    5     -0.56      0.00
   -7   12    0     -0.55      0.00
    7  -12    1      1.00      0.00
    7  -12    2      0.14      0.00
    7  -12    3      1.07      0.00
    7  -12    4      0.77      0.00
    7  -12    5      0.14      0.00
    7  -12    6      0.61      0.00
    7  -12    7     -0.78      0.00
   -7   11    0      0.74      0.00
    7  -11    1      1.19      0.00
    7  -11    2      1.02      0.00
    7  -11    3      0.96      0.00
    7  -11    4      0.18      0.00
    7  -11    5      0.34      0.00
    7  -11    6     -0.98      0.00
    7  -11    7      0.53      0.00
    7  -11    8     -0.40      0.00
   -7   10    0     -1.83      0.00
    7  -10    1     -0.49      0.00
    7  -10    2     -1.17      0.00
    7  -10    3     -0.88      0.00
    7  -10    4      0.15      0.00
    7  -10    5     -1.77      0.00
    7  -10    6      0.82      0.00
    7  -10    7     -3.47      0.00
    7  -10    8     -0.03      0.00
    7  -10    9     -1.69      0.00
    7  -10   10     -0.09      0.00
   -7    9    0      1.94      0.00
    7   -9    1      1.95      0.00
    7   -9    2      2.65      0.00
    7   -9    3      1.71      0.00
    7   -9    4      0.83      0.00
    7   -9    5     -0.74      0.00
    7   -9    6     -1.60      0.00
    7   -9    7      0.40      0.00
    7   -9    8     -1.91      0.00
    7   -9    9      0.25      0.00
    7   -9   10     -1.10      0.00
    7   -9   11      0.42      0.00
   -7    8    0     -1.40      0.00
    7   -8    1      1.35      0.00
    7   -8    2     -1.06      0.00
    7   -8    3     -0.67      0.00
    7   -8    4     -0.82      0.00
    7   -8    5     -0.69      0.00
    7   -8    6     -1.35      0.00
    7   -8    7     -2.16      0.00
    7   -8    8      0.43      0.00
    7   -8    9      0.41      0.00
    7   -8   10      1.13      0.00
    7   -8   11      0.43      0.00
    7   -8   12     -1.04      0.00
   -7    7    0      3.42      0.00
    7   -7    1      1.24      0.00
    7   -7    2      3.24      0.00
    7   -7    3      0.64      0.00
    7   -7    4      1.08      0.00
    7   -7    5     -2.48      0.00
    7   -7    6      1.42      0.00
    7   -7    7      0.40      0.00
    7   -7    8      0.69      0.00
    7   -7    9      0.47      0.00
    7   -7   10      0.17      0.00
    7   -7   11      0.21      0.00
    7   -7   12      1.43      0.00
   -7    6    0     -2.14      0.00
    7   -6    1      0.06      0.00
    7   -6    2     -1.71      0.00
    7   -6    3     -1.91      0.00
    7   -6    4     -1.89      0.00
    7   -6    5     -1.17      0.00
    7   -6    6     -4.29      0.00
    7   -6    7     -1.66      0.00
    7   -6    8     -2.17      0.00
    7   -6    9      1.72      0.00
    7   -6   10      0.43      0.00
    7   -6   11      1.16      0.00
    7   -6   12     -0.59      0.00
    7   -6   13     -0.33      0.00
   -7    5    0      3.05      0.00
    7   -5    1      0.37      0.00
    7   -5    2      0.97      0.00
    7   -5    3     -1.31      0.00
    7   -5    4     -0.77      0.00
    7   -5    5     -1.82      0.00
    7   -5    6      1.60      0.00
    7   -5    7      2.46      0.00
    7   -5    8      3.58      0.00
    7   -5    9      1.86      0.00
    7   -5   10      0.93      0.00
    7   -5   11      0.46      0.00
    7   -5   12      0.15      0.00
    7   -5   13     -0.30      0.00
    7   -5   14      0.20      0.00
   -7    4    0     -2.37      0.00
    7   -4    1     -2.01      0.00
    7   -4    2     -0.77      0.00
    7   -4    3     -1.52      0.00
    7   -4    4     -0.70      0.00
    7   -4    5     -1.26      0.00
    7   -4    6     -1.90      0.00
    7   -4    7     -2.14      0.00
    7   -4    8     -3.95      0.00
    7   -4    9      0.01      0.00
    7   -4   10     -0.78      0.00
    7   -4   11     -0.24      0.00
    7   -4   12      0.22      0.00
    7   -4   13     -0.38      0.00
    7   -4   14      0.49      0.00
   -7    3    0      2.87      0.00
    7   -3    1     -0.13      0.00
    7   -3    2     -0.29      0.00
    7   -3    3     -2.34      0.00
    7   -3    4     -1.16      0.00
    7   -3    5     -1.02      0.00
    7   -3    6     -1.37      0.00
    7   -3    7      2.92      0.00
    7   -3    8      2.66      0.00
    7   -3    9      1.91      0.00
    7   -3   10     -0.56      0.00
    7   -3   11      0.12      0.00
    7   -3   12     -0.80      0.00
    7   -3   13     -0.33      0.00
    7   -3   14     -0.14      0.00
    7   -3   15     -1.73      0.00
   -7    2    0     -4.54      0.00
    7   -2    1     -4.35      0.00
    7   -2    2     -1.15      0.00
    7   -2    3     -0.79      0.00
    7   -2    4      0.50      0.00
    7   -2    5      1.32      0.00
    7   -2    6      1.91      0.00
    7   -2    7      0.22      0.00
    7   -2    8     -1.65      0.00
    7   -2    9      0.94      0.00
    7   -2   10      0.87      0.00
    7   -2   11      0.36      0.00
    7   -2   12     -0.11      0.00
    7   -2   13      0.00      0.00
    7   -2   14      0.48      0.00
    7   -2   15      1.94      0.00
   -7    1    0      2.62      0.00
    7   -1    1     -0.67      0.00
    7   -1    2      0.00      0.00
    7   -1    3     -1.46      0.00
    7   -1    4     -0.91      0.00
    7   -1    5     -0.88      0.00
    7   -1    6     -1.64      0.00
    7   -1    7      2.30      0.00
    7   -1    8      0.50      0.00
    7   -1    9      0.82      0.00
    7   -1   10     -2.71      0.00
    7   -1   11     -0.34      0.00
    7   -1   12      0.56      0.00
    7   -1   13      0.12      0.00
    7   -1   14      0.58      0.00
    7   -1   15     -0.58      0.00
    7    0    0     -5.06      0.00
    7    0    1     -4.53      0.00
    7    0    2     -0.99      0.00
    7    0    3     -1.29      0.00
    7    0    4      1.94      0.00
    7    0    5      1.34      0.00
    7    0    6      0.64      0.00
    7    0    7     -0.71      0.00
    7    0    8     -1.11      0.00
    7    0    9      0.26      0.00
    7    0   10      1.81      0.00
    7    0   11     -0.50      0.00
    7    0   12     -1.87      0.00
    7    0   13     -0.10      0.00
    7    0   14      0.38      0.00
    7    0   15      1.31      0.00
    7    0   16      0.16      0.00
    7    1    0      2.67      0.00
    7    1    1     -0.56      0.00
    7    1    2      1.55      0.00
    7    1    3      1.19      0.00
    7    1    4     -0.50      0.00
    7    1    5      1.94      0.00
    7    1    6      1.61      0.00
    7    1    7      5.19      0.00
    7    1    8      1.72      0.00
    7    1    9      2.20      0.00
    7    1   10     -2.66      0.00
    7    1   11      0.98      0.00
    7    1   12      1.31      0.00
    7    1   13     -0.11      0.00
    7    1   14     -0.48      0.00
    7    1   15      0.44      0.00
    7    1   16      0.24      0.00
    7    2    0     -4.15      0.00
    7    2    1     -1.87      0.00
    7    2    2     -0.43      0.00
    7    2    3     -0.32      0.00
    7    2    4      3.23      0.00
    7    2    5      1.19      0.00
    7    2    6      0.04      0.00
    7    2    7     -2.04      0.00
    7    2    8     -2.04      0.00
    7    2    9     -0.31      0.00
    7    2   10      1.15      0.00
    7    2   11     -1.90      0.00
    7    2   12     -2.44      0.00
    7    2   13     -0.85      0.00
    7    2   14      0.72      0.00
    7    2   15     -0.63      0.00
    7    2   16     -0.17      0.00
    7    3    0      6.27      0.00
    7    3    1      0.02      0.00
    7    3    2      3.25      0.00
    7    3    3     -0.11      0.00
    7    3    4     -1.31      0.00
    7    3    5     -1.31      0.00
    7    3    6     -1.46      0.00
    7    3    7      2.10      0.00
    7    3    8      0.56      0.00
    7    3    9     -0.88      0.00
    7    3   10     -2.51      0.00
    7    3   11     -0.23      0.00
    7    3   12      0.44      0.00
    7    3   13     -0.88      0.00
    7    3   14     -1.91      0.00
    7    3   15      1.11      0.00
    7    3   16      0.61      0.00
    7    4    0     -3.96      0.00
    7    4    1      1.32      0.00
    7    4    2     -0.70      0.00
    7    4    3      1.90      0.00
    7    4    4      1.89      0.00
    7    4    5      4.59      0.00
    7    4    6      1.95      0.00
    7    4    7      0.27      0.00
    7    4    8     -2.18      0.00
    7    4    9      2.05      0.00
    7    4   10      0.80      0.00
    7    4   11      0.22      0.00
    7    4   12     -0.08      0.00
    7    4   13      0.50      0.00
    7    4   14      3.04      0.00
    7    4   15     -0.41      0.00
    7    4   16      0.13      0.00
    7    5    0      7.43      0.00
    7    5    1     -0.62      0.00
    7    5    2      3.55      0.00
    7    5    3     -0.16      0.00
    7    5    4      1.32      0.00
    7    5    5     -3.04      0.00
    7    5    6     -1.35      0.00
    7    5    7      1.32      0.00
    7    5    8      2.25      0.00
    7    5    9     -0.41      0.00
    7    5   10      0.95      0.00
    7    5   11      0.78      0.00
    7    5   12      1.39      0.00
    7    5   13      0.03      0.00
    7    5   14     -2.01      0.00
    7    5   15      0.89      0.00
    7    5   16      0.12      0.00
    7    6    0     -4.39      0.00
    7    6    1      1.21      0.00
    7    6    2     -2.43      0.00
    7    6    3     -0.62      0.00
    7    6    4     -2.01      0.00
    7    6    5      3.50      0.00
    7    6    6     -0.78      0.00
    7    6    7     -0.94      0.00
    7    6    8     -3.02      0.00
    7    6    9      0.55      0.00
    7    6   10      0.52      0.00
    7    6   11     -0.32      0.00
    7    6   12      1.59      0.00
    7    6   13     -0.46      0.00
    7    6   14      3.05      0.00
    7    6   15     -0.52      0.00
    7    6   16      0.73      0.00
    7    7    0      5.07      0.00
    7    7    1     -1.48      0.00
    7    7    2      2.18      0.00
    7    7    3      1.37      0.00
    7    7    4      1.12      0.00
    7    7    5     -1.78      0.00
    7    7    6     -0.90      0.00
    7    7    7      1.04      0.00
    7    7    8      0.17      0.00
    7    7    9      0.58      0.00
    7    7   10     -0.30      0.00
    7    7   11      1.32      0.00
    7    7   12     -0.96      0.00
    7    7   13      0.66      0.00
    7    7   14     -1.58      0.00
    7    7   15      0.58      0.00
    7    8    0     -5.23      0.00
    7    8    1      0.56      0.00
    7    8    2     -2.32      0.00
    7    8    3     -0.65      0.00
    7    8    4     -0.94      0.00
    7    8    5      1.24      0.00
    7    8    6     -1.75      0.00
    7    8    7     -1.61      0.00
    7    8    8     -1.62      0.00
    7    8    9     -1.60      0.00
    7    8   10      1.13      0.00
    7    8   11     -2.16      0.00
    7    8   12      2.81      0.00
    7    8   13     -2.19      0.00
    7    8   14      1.62      0.00
    7    8   15     -0.30      0.00
    7    9    0      5.02      0.00
    7    9    1     -0.75      0.00
    7    9    2      1.40      0.00
    7    9    3     -0.08      0.00
    7    9    4     -1.73      0.00
    7    9    5      0.04      0.00
    7    9    6     -2.54      0.00
    7    9    7      1.53      0.00
    7    9    8      0.20      0.00
    7    9    9      3.37      0.00
    7    9   10      1.30      0.00
    7    9   11      2.60      0.00
    7    9   12     -1.62      0.00
    7    9   13      1.10      0.00
    7    9   14     -0.89      0.00
    7    9   15     -0.08      0.00
    7   10    0     -5.30      0.00
    7   10    1      1.05      0.00
    7   10    2     -0.54      0.00
    7   10    3      2.15      0.00
    7   10    4     -0.73      0.00
    7   10    5     -1.40      0.00
    7   10    6     -0.04      0.00
    7   10    7     -1.31      0.00
    7   10    8     -1.66      0.00
    7   10    9     -2.18      0.00
    7   10   10     -1.24      0.00
    7   10   11     -2.20      0.00
    7   10   12      1.24      0.00
    7   10   13     -1.99      0.00
    7   10   14      0.79      0.00
    7   11    0      8.89      0.00
    7   11    1      3.27      0.00
    7   11    2      2.12      0.00
    7   11    3     -0.27      0.00
    7   11    4     -0.44      0.00
    7   11    5      2.68      0.00
    7   11    6     -4.44      0.00
    7   11    7      2.31      0.00
    7   11    8      1.84      0.00
    7   11    9      3.53      0.00
    7   11   10      3.06      0.00
    7   11   11      0.75      0.00
    7   11   12     -0.76      0.00
    7   11   13     -0.32      0.00
    7   12    0     -2.64      0.00
    7   12    1      0.87      0.00
    7   12    2      0.70      0.00
    7   12    3      0.86      0.00
    7   12    4     -4.02      0.00
    7   12    5     -3.51      0.00
    7   12    6      2.34      0.00
    7   12    7      0.56      0.00
    7   12    8     -0.51      0.00
    7   12    9      0.71      0.00
    7   12   10     -1.15      0.00
    7   12   11      0.13      0.00
    7   13    0      3.63      0.00
    7   13    1      0.29      0.00
    7   13    2     -2.42      0.00
    7   13    3     -2.11      0.00
    7   13    4     -1.21      0.00
    7   13    5      1.11      0.00
    7   13    6     -5.61      0.00
    7   13    7      0.31      0.00
    7   13    8      1.27      0.00
    7   13    9      0.39      0.00
    7   14    0      0.40      0.00
    7   14    1      0.50      0.00
    7   14    2      0.53      0.00
    7   14    3     -0.83      0.00
    7   14    4     -3.57      0.00
    7   14    5     -1.09      0.00
    7   14    6      2.85      0.00
    7   14    7      3.36      0.00
    7   15    0      1.65      0.00
    7   15    1     -0.02      0.00
    7   15    2     -1.11      0.00
    7   15    3     -0.49      0.00
    7   15    4     -0.23      0.00
    7   15    5      0.35      0.00
   -8   13    0     -1.25      0.00
    8  -13    1      0.58      0.00
    8  -13    2      0.33      0.00
   -8   12    0      0.87      0.00
    8  -12    1     -0.26      0.00
    8  -12    2      0.75      0.00
    8  -12    3     -0.66      0.00
    8  -12    4      0.23      0.00
    8  -12    5     -0.20      0.00
   -8   11    0     -0.77      0.00
    8  -11    1      0.55      0.00
    8  -11    2      0.44      0.00
    8  -11    3      1.69      0.00
    8  -11    4      0.20      0.00
    8  -11    5      0.45      0.00
    8  -11    6     -0.78      0.00
   -8   10    0      1.63      0.00
    8  -10    1     -0.33      0.00
    8  -10    2      1.53      0.00
    8  -10    3     -0.88      0.00
    8  -10    4      0.52      0.00
    8  -10    5     -0.29      0.00
    8  -10    6     -0.17      0.00
    8  -10    7      0.40      0.00
    8  -10    8     -1.98      0.00
   -8    9    0      0.03      0.00
    8   -9    1      0.77      0.00
    8   -9    2      0.27      0.00
    8   -9    3      1.78      0.00
    8   -9    4      0.07      0.00
    8   -9    5      0.32      0.00
    8   -9    6     -1.48      0.00
    8   -9    7     -1.34      0.00
    8   -9    8     -0.05      0.00
    8   -9    9     -0.67      0.00
   -8    8    0      0.53      0.00
    8   -8    1     -1.18      0.00
    8   -8    2      0.92      0.00
    8   -8    3     -1.49      0.00
    8   -8    4     -0.99      0.00
    8   -8    5     -0.88      0.00
    8   -8    6     -0.99      0.00
    8   -8    7     -0.46      0.00
    8   -8    8     -1.68      0.00
    8   -8    9     -0.29      0.00
    8   -8   10     -0.03      0.00
   -8    7    0      1.19      0.00
    8   -7    1      0.70      0.00
    8   -7    2      0.29      0.00
    8   -7    3      1.46      0.00
    8   -7    4      0.30      0.00
    8   -7    5     -0.97      0.00
    8   -7    6     -1.41      0.00
    8   -7    7     -1.93      0.00
    8   -7    8     -0.09      0.00
    8   -7    9     -0.57      0.00
    8   -7   10      0.51      0.00
    8   -7   11      0.41      0.00
   -8    6    0      0.11      0.00
    8   -6    1     -0.59      0.00
    8   -6    2      0.82      0.00
    8   -6    3     -0.27      0.00
    8   -6    4     -0.18      0.00
    8   -6    5      0.92      0.00
    8   -6    6     -0.63      0.00
    8   -6    7      0.26      0.00
    8   -6    8     -0.75      0.00
    8   -6    9     -0.43      0.00
    8   -6   10      0.22      0.00
    8   -6   11      0.56      0.00
    8   -6   12     -0.72      0.00
   -8    5    0      3.09      0.00
    8   -5    1      3.08      0.00
    8   -5    2      1.91      0.00
    8   -5    3      2.16      0.00
    8   -5    4     -0.06      0.00
    8   -5    5     -1.23      0.00
    8   -5    6     -0.24      0.00
    8   -5    7     -2.21      0.00
    8   -5    8      1.19      0.00
    8   -5    9      0.87      0.00
    8   -5   10      1.25      0.00
    8   -5   11     -0.09      0.00
    8   -5   12      0.90      0.00
   -8    4    0     -0.52      0.00
    8   -4    1     -2.31      0.00
    8   -4    2     -0.77      0.00
    8   -4    3     -0.75      0.00
    8   -4    4      0.36      0.00
    8   -4    5     -0.54      0.00
    8   -4    6     -1.01      0.00
    8   -4    7     -0.12      0.00
    8   -4    8     -1.07      0.00
    8   -4    9     -2.48      0.00
    8   -4   10      0.58      0.00
    8   -4   11      0.49      0.00
    8   -4   12     -0.15      0.00
    8   -4   13     -0.19      0.00
   -8    3    0      1.40      0.00
    8   -3    1      4.01      0.00
    8   -3    2      1.15      0.00
    8   -3    3      1.49      0.00
    8   -3    4     -0.92      0.00
    8   -3    5     -0.01      0.00
    8   -3    6     -0.22      0.00
    8   -3    7     -2.51      0.00
    8   -3    8      2.03      0.00
    8   -3    9      2.43      0.00
    8   -3   10      1.48      0.00
    8   -3   11      0.96      0.00
    8   -3   12      0.30      0.00
    8   -3   13      1.09      0.00
   -8    2    0      1.52      0.00
    8   -2    1     -2.00      0.00
    8   -2    2     -0.53      0.00
    8   -2    3     -0.37      0.00
    8   -2    4     -0.29      0.00
    8   -2    5     -1.87      0.00
    8   -2    6      0.14      0.00
    8   -2    7      0.17      0.00
    8   -2    8     -1.26      0.00
    8   -2    9     -3.31      0.00
    8   -2   10     -0.45      0.00
    8   -2   11     -1.25      0.00
    8   -2   12      0.10      0.00
    8   -2   13     -1.67      0.00
    8   -2   14     -0.16      0.00
   -8    1    0     -1.94      0.00
    8   -1    1      2.78      0.00
    8   -1    2     -1.01      0.00
    8   -1    3      0.54      0.00
    8   -1    4      0.32      0.00
    8   -1    5      0.39      0.00
    8   -1    6     -0.57      0.00
    8   -1    7     -2.04      0.00
    8   -1    8      2.93      0.00
    8   -1    9      2.04      0.00
    8   -1   10      2.56      0.00
    8   -1   11      1.07      0.00
    8   -1   12     -0.13      0.00
    8   -1   13      1.90      0.00
    8   -1   14      0.11      0.00
    8    0    0     -0.27      0.00
    8    0    1     -4.25      0.00
    8    0    2     -2.00      0.00
    8    0    3     -2.24      0.00
    8    0    4     -2.75      0.00
    8    0    5     -1.58      0.00
    8    0    6      0.83      0.00
    8    0    7      0.24      0.00
    8    0    8     -1.18      0.00
    8    0    9     -1.38      0.00
    8    0   10     -0.87      0.00
    8    0   11      0.23      0.00
    8    0   12      0.35      0.00
    8    0   13     -1.81      0.00
    8    0   14     -0.75      0.00
    8    1    0     -2.85      0.00
    8    1    1      2.41      0.00
    8    1    2     -3.04      0.00
    8    1    3      0.52      0.00
    8    1    4      0.40      0.00
    8    1    5     -0.02      0.00
    8    1    6      0.14      0.00
    8    1    7     -0.23      0.00
    8    1    8      3.42      0.00
    8    1    9      1.21      0.00
    8    1   10      1.63      0.00
    8    1   11     -1.36      0.00
    8    1   12     -1.09      0.00
    8    1   13      0.51      0.00
    8    1   14      0.44      0.00
    8    1   15     -0.15      0.00
    8    2    0     -2.06      0.00
    8    2    1     -5.20      0.00
    8    2    2     -1.30      0.00
    8    2    3     -2.20      0.00
    8    2    4     -1.43      0.00
    8    2    5     -0.51      0.00
    8    2    6      0.42      0.00
    8    2    7      0.12      0.00
    8    2    8     -1.13      0.00
    8    2    9     -0.84      0.00
    8    2   10      0.41      0.00
    8    2   11      1.43      0.00
    8    2   12      0.56      0.00
    8    2   13     -0.66      0.00
    8    2   14     -0.95      0.00
    8    2   15     -0.29      0.00
    8    3    0     -0.99      0.00
    8    3    1      3.43      0.00
    8    3    2     -1.71      0.00
    8    3    3      1.48      0.00
    8    3    4      0.95      0.00
    8    3    5      2.15      0.00
    8    3    6      2.87      0.00
    8    3    7      1.24      0.00
    8    3    8      4.20      0.00
    8    3    9      2.37      0.00
    8    3   10      0.10      0.00
    8    3   11     -0.50      0.00
    8    3   12     -1.28      0.00
    8    3   13     -0.11      0.00
    8    3   14      0.28      0.00
    8    3   15      0.02      0.00
    8    4    0     -1.61      0.00
    8    4    1     -3.66      0.00
    8    4    2     -1.44      0.00
    8    4    3     -0.19      0.00
    8    4    4     -0.62      0.00
    8    4    5     -0.45      0.00
    8    4    6     -0.29      0.00
    8    4    7      1.46      0.00
    8    4    8     -1.44      0.00
    8    4    9     -0.85      0.00
    8    4   10      1.13      0.00
    8    4   11      0.24      0.00
    8    4   12      0.65      0.00
    8    4   13      0.64      0.00
    8    4   14     -0.11      0.00
    8    4   15      0.43      0.00
    8    5    0      2.01      0.00
    8    5    1      4.57      0.00
    8    5    2      1.66      0.00
    8    5    3      0.46      0.00
    8    5    4      1.28      0.00
    8    5    5      1.16      0.00
    8    5    6      1.10      0.00
    8    5    7     -1.45      0.00
    8    5    8      2.11      0.00
    8    5    9      0.57      0.00
    8    5   10     -1.00      0.00
    8    5   11      0.66      0.00
    8    5   12     -0.88      0.00
    8    5   13     -0.57      0.00
    8    5   14      0.00      0.00
    8    5   15     -0.26      0.00
    8    6    0     -1.72      0.00
    8    6    1     -3.52      0.00
    8    6    2     -2.40      0.00
    8    6    3      1.05      0.00
    8    6    4     -0.28      0.00
    8    6    5      1.02      0.00
    8    6    6      1.76      0.00
    8    6    7      1.55      0.00
    8    6    8     -0.83      0.00
    8    6    9     -0.30      0.00
    8    6   10     -0.17      0.00
    8    6   11     -0.39      0.00
    8    6   12     -0.60      0.00
    8    6   13      1.98      0.00
    8    6   14      0.23      0.00
    8    6   15      1.55      0.00
    8    7    1      3.56      0.00
    8    7    2      1.04      0.00
    8    7    3      0.07      0.00
    8    7    4      0.54      0.00
    8    7    5     -0.13      0.00
    8    7    6     -0.65      0.00
    8    7    7      0.64      0.00
    8    7    8      0.98      0.00
    8    7    9      0.82      0.00
    8    7   10      0.35      0.00
    8    7   11      1.14      0.00
    8    7   12      0.99      0.00
    8    7   13     -1.04      0.00
    8    7   14      0.34      0.00
    8    8    2     -0.64      0.00
    8    8    3     -0.26      0.00
    8    8    4      1.17      0.00
    8    8    5      0.85      0.00
    8    8    6      2.10      0.00
    8    8    7     -2.08      0.00
    8    8    8      0.16      0.00
    8    8    9     -1.45      0.00
    8    8   10     -1.08      0.00
    8    8   11     -0.69      0.00
    8    8   12     -2.31      0.00
    8    8   13      1.65      0.00
    8    8   14     -0.36      0.00
    8    9    3      1.79      0.00
    8    9    4     -0.75      0.00
    8    9    5     -0.35      0.00
    8    9    6     -0.55      0.00
    8    9    7      0.82      0.00
    8    9    8     -1.91      0.00
    8    9    9     -0.62      0.00
    8    9   10     -2.08      0.00
    8    9   11     -1.32      0.00
    8    9   12     -0.61      0.00
    8   10    0     -2.40      0.00
    8   10    1     -1.61      0.00
    8   10    2      0.25      0.00
    8   10    4      2.35      0.00
    8   10    5     -0.43      0.00
    8   10    6      0.25      0.00
    8   10    7     -1.33      0.00
    8   10    8      1.43      0.00
    8   10    9     -0.97      0.00
    8   10   10      0.55      0.00
    8   10   11     -0.03      0.00
    8   11    0      2.00      0.00
    8   11    1      2.18      0.00
    8   11    2      0.86      0.00
    8   11    3      1.28      0.00
    8   11    4     -1.68      0.00
    8   11    5     -0.70      0.00
    8   11    6      0.73      0.00
    8   11    7     -1.85      0.00
    8   11    8     -0.58      0.00
    8   11    9      0.62      0.00
    8   11   10     -0.24      0.00
    8   12    0     -0.81      0.00
    8   12    1      0.97      0.00
    8   12    2      0.89      0.00
    8   12    3     -0.24      0.00
    8   12    4      1.64      0.00
    8   12    5     -2.36      0.00
    8   12    6     -1.79      0.00
    8   13    0      0.36      0.00
    8   13    1      1.17      0.00
    8   13    2     -0.06      0.00
    8   13    3     -0.13      0.00
   -9   12    0      0.60      0.00
   -9   11    0     -1.09      0.00
    9  -11    1     -0.23      0.00
    9  -11    2      0.09      0.00
    9  -11    3      1.73      0.00
   -9   10    0     -0.49      0.00
    9  -10    1      0.68      0.00
    9  -10    2     -1.21      0.00
    9  -10    3     -0.42      0.00
    9  -10    4     -1.60      0.00
    9  -10    5     -0.86      0.00
   -9    9    0      0.77      0.00
    9   -9    1      1.07      0.00
    9   -9    2      2.22      0.00
    9   -9    3      0.68      0.00
    9   -9    4      0.35      0.00
    9   -9    5     -0.86      0.00
    9   -9    6     -0.49      0.00
    9   -9    7     -1.51      0.00
   -9    8    0     -1.39      0.00
    9   -8    1     -0.08      0.00
    9   -8    2     -3.21      0.00
    9   -8    3      0.35      0.00
    9   -8    4     -1.06      0.00
    9   -8    5     -0.26      0.00
    9   -8    6     -0.11      0.00
    9   -8    7     -0.08      0.00
    9   -8    8      0.90      0.00
   -9    7    0     -0.63      0.00
    9   -7    1      0.93      0.00
    9   -7    2      0.89      0.00
    9   -7    3     -1.31      0.00
    9   -7    4     -0.50      0.00
    9   -7    5     -1.24      0.00
    9   -7    6     -1.39      0.00
    9   -7    7     -1.34      0.00
    9   -7    8     -2.81      0.00
    9   -7    9      0.04      0.00
   -9    6    0      0.62      0.00
    9   -6    1     -0.29      0.00
    9   -6    2     -1.63      0.00
    9   -6    3      0.36      0.00
    9   -6    4     -1.60      0.00
    9   -6    5     -0.58      0.00
    9   -6    6     -0.80      0.00
    9   -6    7      0.13      0.00
    9   -6    8      1.82      0.00
    9   -6    9      0.07      0.00
    9   -6   10     -0.64      0.00
   -9    5    0     -3.27      0.00
    9   -5    1      0.75      0.00
    9   -5    2     -0.12      0.00
    9   -5    3      0.85      0.00
    9   -5    4      1.65      0.00
    9   -5    5      0.50      0.00
    9   -5    6      0.15      0.00
    9   -5    7     -1.43      0.00
    9   -5    8     -4.11      0.00
    9   -5    9     -1.35      0.00
    9   -5   10      0.13      0.00
    9   -5   11      0.03      0.00
   -9    4    0      1.09      0.00
    9   -4    1     -0.52      0.00
    9   -4    2     -0.49      0.00
    9   -4    3     -1.19      0.00
    9   -4    4     -1.18      0.00
    9   -4    5     -0.47      0.00
    9   -4    6     -1.69      0.00
    9   -4    7      0.81      0.00
    9   -4    8      1.61      0.00
    9   -4    9      1.16      0.00
    9   -4   10     -1.05      0.00
    9   -4   11      1.26      0.00
   -9    3    0     -0.15      0.00
    9   -3    1      2.28      0.00
    9   -3    2      2.35      0.00
    9   -3    3      3.86      0.00
    9   -3    4      1.96      0.00
    9   -3    5      2.22      0.00
    9   -3    6      0.58      0.00
    9   -3    7     -0.51      0.00
    9   -3    8     -3.53      0.00
    9   -3    9     -0.71      0.00
    9   -3   10     -0.52      0.00
    9   -3   11     -1.38      0.00
    9   -3   12      0.24      0.00
   -9    2    0     -0.34      0.00
    9   -2    1      0.53      0.00
    9   -2    2     -0.36      0.00
    9   -2    3     -0.62      0.00
    9   -2    4      0.70      0.00
    9   -2    5     -1.64      0.00
    9   -2    6     -1.71      0.00
    9   -2    7     -0.81      0.00
    9   -2    8     -0.08      0.00
    9   -2    9      0.39      0.00
    9   -2   10      0.89      0.00
    9   -2   11      2.84      0.00
    9   -2   12      2.22      0.00
   -9    1    0     -0.11      0.00
    9   -1    1     -1.43      0.00
    9   -1    2      1.22      0.00
    9   -1    3     -0.23      0.00
    9   -1    4     -0.95      0.00
    9   -1    5      1.87      0.00
    9   -1    6     -0.88      0.00
    9   -1    7      1.16      0.00
    9   -1    8     -0.75      0.00
    9   -1    9      1.53      0.00
    9   -1   10      0.24      0.00
    9   -1   11      0.14      0.00
    9   -1   12     -0.57      0.00
    9   -1   13     -1.13      0.00
    9    0    0      1.44      0.00
    9    0    1      2.83      0.00
    9    0    2     -0.13      0.00
    9    0    3      1.76      0.00
    9    0    4      0.83      0.00
    9    0    5     -1.77      0.00
    9    0    6     -0.32      0.00
    9    0    7     -1.21      0.00
    9    0    8     -1.09      0.00
    9    0    9      0.09      0.00
    9    0   10     -0.09      0.00
    9    0   11      1.16      0.00
    9    0   12      1.65      0.00
    9    0   13      1.70      0.00
    9    1    0     -0.77      0.00
    9    1    1     -2.31      0.00
    9    1    2      1.13      0.00
    9    1    3     -2.85      0.00
    9    1    4     -1.16      0.00
    9    1    5     -0.20      0.00
    9    1    6     -2.18      0.00
    9    1    7      0.73      0.00
    9    1    8     -0.05      0.00
    9    1    9      1.36      0.00
    9    1   10      2.79      0.00
    9    1   11      1.47      0.00
    9    1   12      1.34      0.00
    9    1   13     -0.01      0.00
    9    2    0     -0.01      0.00
    9    2    1     -2.24      0.00
    9    2    2     -4.42      0.00
    9    2    3     -2.71      0.00
    9    2    4     -2.63      0.00
    9    2    5     -2.29      0.00
    9    2    6     -0.25      0.00
    9    2    7     -1.15      0.00
    9    2    8      1.02      0.00
    9    2    9      0.85      0.00
    9    2   10     -0.89      0.00
    9    2   11      0.78      0.00
    9    2   12     -0.31      0.00
    9    2   13      0.17      0.00
    9    3    0     -1.00      0.00
    9    3    1     -0.44      0.00
    9    3    2      0.68      0.00
    9    3    3     -1.41      0.00
    9    3    4     -0.98      0.00
    9    3    5     -0.99      0.00
    9    3    6     -0.66      0.00
    9    3    7      1.86      0.00
    9    3    8     -0.95      0.00
    9    3    9      1.62      0.00
    9    3   10      2.74      0.00
    9    3   11      0.50      0.00
    9    3   12      1.74      0.00
    9    3   13      0.23      0.00
    9    4    0      0.36      0.00
    9    4    1     -2.83      0.00
    9    4    2     -2.67      0.00
    9    4    3     -3.27      0.00
    9    4    4     -0.53      0.00
    9    4    5     -0.75      0.00
    9    4    6     -0.11      0.00
    9    4    7     -1.59      0.00
    9    4    8      2.61      0.00
    9    4    9     -0.37      0.00
    9    4   10      0.19      0.00
    9    4   11      0.53      0.00
    9    4   12     -0.52      0.00
    9    4   13     -1.00      0.00
    9    5    0     -0.61      0.00
    9    5    1     -0.69      0.00
    9    5    3     -0.44      0.00
    9    5    4     -0.03      0.00
    9    5    5      0.01      0.00
    9    5    6      2.02      0.00
    9    5    7      3.01      0.00
    9    5    8      0.65      0.00
    9    5    9      2.61      0.00
    9    5   10      1.87      0.00
    9    5   11      0.54      0.00
    9    5   12      1.59      0.00
    9    5   13      1.38      0.00
    9    6    0      0.13      0.00
    9    6    1     -0.61      0.00
    9    6    2     -1.04      0.00
    9    6    3     -1.36      0.00
    9    6    4     -0.34      0.00
    9    6    5      0.26      0.00
    9    6    6      0.00      0.00
    9    6    7     -0.53      0.00
    9    6    8      0.47      0.00
    9    6    9     -0.60      0.00
    9    6   10      0.20      0.00
    9    6   11     -0.01      0.00
    9    6   12     -0.42      0.00
    9    7    1     -0.94      0.00
    9    7    3     -0.46      0.00
    9    7    4      2.15      0.00
    9    7    5     -0.76      0.00
    9    7    6      0.75      0.00
    9    7    7      0.07      0.00
    9    7    8      1.56      0.00
    9    7    9     -0.26      0.00
    9    7   10      0.36      0.00
    9    7   11     -1.63      0.00
    9    7   12     -0.17      0.00
    9    8    2     -0.82      0.00
    9    8    3     -0.90      0.00
    9    8    5      1.47      0.00
    9    8    6      1.25      0.00
    9    8    7      1.20      0.00
    9    8    8     -1.30      0.00
    9    8    9      0.20      0.00
    9    8   10     -0.96      0.00
    9    8   11      0.24      0.00
    9    9    4      2.46      0.00
    9    9    5     -1.02      0.00
    9    9    6      0.10      0.00
    9    9    7      0.01      0.00
    9    9    8      2.05      0.00
    9    9    9      0.32      0.00
    9    9   10      0.92      0.00
    9   10    7      1.59      0.00
  -10   10    0     -3.76      0.00
  -10    9    0      2.50      0.00
   10   -9    1      3.11      0.00
   10   -9    2      3.37      0.00
   10   -9    3      4.78      0.00
  -10    8    0      1.73      0.00
   10   -8    1     -2.16      0.00
   10   -8    2     -3.07      0.00
   10   -8    3     -8.23      0.00
   10   -8    4     -4.60      0.00
   10   -8    5     -3.83      0.00
  -10    7    0     -1.13      0.00
   10   -7    1     -0.79      0.00
   10   -7    2      2.99      0.00
   10   -7    3      5.39      0.00
   10   -7    4      3.28      0.00
   10   -7    5      2.80      0.00
   10   -7    6      0.64      0.00
   10   -7    7      0.51      0.00
  -10    6    0      3.72      0.00
   10   -6    1      1.58      0.00
   10   -6    2     -0.84      0.00
   10   -6    3     -4.18      0.00
   10   -6    4     -3.59      0.00
   10   -6    5     -4.73      0.00
   10   -6    6     -3.31      0.00
   10   -6    7     -3.58      0.00
   10   -6    8     -0.55      0.00
  -10    5    0     -0.50      0.00
   10   -5    1     -4.07      0.00
   10   -5    2     -1.28      0.00
   10   -5    3     -2.61      0.00
   10   -5    4      0.42      0.00
   10   -5    5      1.26      0.00
   10   -5    6      2.59      0.00
   10   -5    7      3.57      0.00
   10   -5    8      1.43      0.00
  -10    4    0      1.20      0.00
   10   -4    1      2.65      0.00
   10   -4    2      3.21      0.00
   10   -4    3      5.06      0.00
   10   -4    4      1.48      0.00
   10   -4    5      0.96      0.00
   10   -4    6     -1.58      0.00
   10   -4    7     -4.00      0.00
   10   -4    8     -2.25      0.00
   10   -4    9     -1.10      0.00
  -10    3    0     -0.51      0.00
   10   -3    1     -3.70      0.00
   10   -3    2     -3.42      0.00
   10   -3    3     -6.60      0.00
   10   -3    4     -1.94      0.00
   10   -3    5     -3.83      0.00
   10   -3    6     -0.47      0.00
   10   -3    7     -0.57      0.00
   10   -3    8     -0.02      0.00
   10   -3    9     -0.90      0.00
   10   -3   10      2.07      0.00
  -10    2    0     -1.62      0.00
   10   -2    1     -1.52      0.00
   10   -2    2      1.32      0.00
   10   -2    3      3.42      0.00
   10   -2    4      1.58      0.00
   10   -2    5      3.46      0.00
   10   -2    6      1.26      0.00
   10   -2    7      0.55      0.00
   10   -2    8      0.63      0.00
   10   -2    9     -2.01      0.00
   10   -2   10     -2.19      0.00
  -10    1    0      2.36      0.00
   10   -1    1      3.50      0.00
   10   -1    2      1.74      0.00
   10   -1    3      1.63      0.00
   10   -1    4      1.84      0.00
   10   -1    5     -1.29      0.00
   10   -1    6     -0.89      0.00
   10   -1    7     -4.25      0.00
   10   -1    8     -3.28      0.00
   10   -1    9     -0.50      0.00
   10   -1   10     -0.41      0.00
   10   -1   11      0.72      0.00
   10    0    0     -3.09      0.00
   10    0    1     -4.92      0.00
   10    0    2     -1.90      0.00
   10    0    3     -2.82      0.00
   10    0    4     -2.78      0.00
   10    0    5     -1.77      0.00
   10    0    6     -1.73      0.00
   10    0    7      1.27      0.00
   10    0    8      2.18      0.00
   10    0    9     -0.35      0.00
   10    0   10      3.60      0.00
   10    0   11      1.08      0.00
   10    1    0     -1.55      0.00
   10    1    1      0.57      0.00
   10    1    2     -1.05      0.00
   10    1    3      0.60      0.00
   10    1    4      1.39      0.00
   10    1    5      0.84      0.00
   10    1    6      1.38      0.00
   10    1    7     -2.63      0.00
   10    1    8     -1.54      0.00
   10    1    9     -0.74      0.00
   10    1   10     -3.20      0.00
   10    1   11      0.31      0.00
   10    2    0      3.48      0.00
   10    2    1      2.87      0.00
   10    2    2      2.49      0.00
   10    2    3      2.31      0.00
   10    2    4     -1.88      0.00
   10    2    5     -1.67      0.00
   10    2    6     -4.04      0.00
   10    2    7     -0.70      0.00
   10    2    8     -1.62      0.00
   10    2    9      0.74      0.00
   10    2   10      2.58      0.00
   10    2   11      1.08      0.00
   10    3    0     -3.25      0.00
   10    3    1     -3.95      0.00
   10    3    2     -4.21      0.00
   10    3    3     -5.69      0.00
   10    3    4     -3.05      0.00
   10    3    5     -2.58      0.00
   10    3    6     -0.35      0.00
   10    3    7     -1.00      0.00
   10    3    8      1.50      0.00
   10    3    9     -0.57      0.00
   10    3   10      0.76      0.00
   10    3   11      1.66      0.00
   10    4    0      0.14      0.00
   10    4    2     -2.16      0.00
   10    4    3      0.51      0.00
   10    4    4     -2.15      0.00
   10    4    5     -1.22      0.00
   10    4    6     -2.18      0.00
   10    4    7     -0.82      0.00
   10    4    8     -2.39      0.00
   10    4    9      1.44      0.00
   10    4   10     -0.87      0.00
   10    4   11      0.60      0.00
   10    5    2      0.09      0.00
   10    5    3     -0.92      0.00
   10    5    4     -2.59      0.00
   10    5    5      1.36      0.00
   10    5    6     -0.87      0.00
   10    5    7      1.47      0.00
   10    5    8      1.90      0.00
   10    5    9      0.99      0.00
   10    5   10      2.24      0.00
   10    6    0     -1.09      0.00
   10    6    1     -1.49      0.00
   10    6    2     -3.36      0.00
   10    6    4     -0.38      0.00
   10    6    5     -3.60      0.00
   10    6    6     -0.03      0.00
   10    6    7     -0.37      0.00
   10    6    8     -1.01      0.00
   10    6    9      0.33      0.00
   10    7    2     -0.24      0.00
   10    7    3      1.69      0.00
   10    7    4     -1.65      0.00
   10    7    5      5.83      0.00
   10    7    6     -0.11      0.00
   10    7    7      1.87      0.00
   10    7    8      1.35      0.00
   10    8    5     -3.91      0.00
   10    8    6     -0.20      0.00
  -11    7    0      1.55      0.00
  -11    6    0     -0.84      0.00
   11   -6    1      1.52      0.00
   11   -6    2      0.29      0.00
   11   -6    3     -0.74      0.00
  -11    5    0      1.78      0.00
   11   -5    1      0.98      0.00
   11   -5    2     -0.59      0.00
   11   -5    3      1.06      0.00
   11   -5    4     -1.02      0.00
   11   -5    5     -0.56      0.00
  -11    4    0     -1.50      0.00
   11   -4    1      0.43      0.00
   11   -4    2     -0.73      0.00
   11   -4    3     -0.82      0.00
   11   -4    4      0.89      0.00
   11   -4    5     -0.22      0.00
   11   -4    6      0.17      0.00
  -11    3    0      1.11      0.00
   11   -3    1      2.10      0.00
   11   -3    2      1.46      0.00
   11   -3    3      1.30      0.00
   11   -3    4     -0.98      0.00
   11   -3    5      0.97      0.00
   11   -3    6      0.36      0.00
   11   -3    7      0.07      0.00
  -11    2    0     -0.79      0.00
   11   -2    1     -1.57      0.00
   11   -2    2     -3.15      0.00
   11   -2    3     -0.55      0.00
   11   -2    4      0.40      0.00
   11   -2    5     -1.19      0.00
   11   -2    6     -1.79      0.00
   11   -2    7     -0.83      0.00
  -11    1    0     -3.90      0.00
   11   -1    1     -0.69      0.00
   11   -1    2      1.28      0.00
   11   -1    3     -0.92      0.00
   11   -1    4     -0.94      0.00
   11   -1    5      0.68      0.00
   11   -1    6      0.51      0.00
   11   -1    7     -0.13      0.00
   11   -1    8     -1.81      0.00
   11    0    0      2.38      0.00
   11    0    1      0.24      0.00
   11    0    2     -1.76      0.00
   11    0    3      1.34      0.00
   11    0    4      1.91      0.00
   11    0    5     -0.35      0.00
   11    0    6     -0.65      0.00
   11    0    7     -1.16      0.00
   11    0    8      0.71      0.00
   11    1    0     -3.38      0.00
   11    1    1     -1.02      0.00
   11    1    2      0.86      0.00
   11    1    3     -1.04      0.00
   11    1    4     -2.02      0.00
   11    1    5      0.06      0.00
   11    1    6     -1.05      0.00
   11    1    7      0.36      0.00
   11    1    8     -2.81      0.00
   11    2    0     -1.65      0.00
   11    2    1     -1.90      0.00
   11    2    2     -1.56      0.00
   11    2    3     -0.61      0.00
   11    2    4      1.92      0.00
   11    2    5     -1.67      0.00
   11    2    6     -0.31      0.00
   11    2    7     -2.79      0.00
   11    2    8      0.49      0.00
   11    3    0      0.79      0.00
   11    3    1      0.52      0.00
   11    3    2      0.33      0.00
   11    3    3     -0.62      0.00
   11    3    4     -2.29      0.00
   11    3    5     -0.89      0.00
   11    3    6     -0.83      0.00
   11    3    7      0.64      0.00
   11    4    0     -0.02      0.00
   11    4    2      0.83      0.00
   11    4    3     -0.48      0.00
   11    4    4      1.25      0.00
   11    4    5     -0.87      0.00
   11    4    6     -1.41      0.00
   11    4    7     -2.58      0.00
   11    5    3     -2.30      0.00
   11    5    4     -2.34      0.00
   11    5    5     -3.84      0.00
    1    0    0     -8.19      0.00
    2    0    0     -5.74      0.00
   -3    1    0      0.13      0.00
    0    1    0    -85.39      0.00
    1    1    0     12.90      0.00
    3    1    0     -3.55      0.00
    0    2    0     74.56      0.00
    0    3    0     -9.34      0.00
   10    5    0      1.26      0.00
   11    5    0     -1.19      0.00
   11    6    0      0.90      0.00
    0    7    0    -10.67      0.00
    8    7    0      1.08      0.00
    9    7    0     -0.15      0.00
   10    7    0     -0.38      0.00
   11    7    0      0.22      0.00
  -11    8    0     -0.59      0.00
    8    8    0     -1.18      0.00
    9    8    0     -0.32      0.00
   10    8    0      0.34      0.00
   11    8    0     -0.77      0.00
    8    9    0      0.99      0.00
    9    9    0     -0.28      0.00
   10    9    0     -0.74      0.00
   11    9    0      0.97      0.00
    9   10    0      0.27      0.00
   10   10    0      0.03      0.00
   11   10    0     -0.70      0.00
    9   11    0      0.78      0.00
   10   11    0     -0.08      0.00
   11   11    0      1.33      0.00
    9   12    0     -0.18      0.00
   10   12    0      0.14      0.00
    9   13    0      0.86      0.00
   10   13    0     -0.01      0.00
   -8   14    0      0.76      0.00
    8   14    0      0.77      0.00
    9   14    0     -0.53      0.00
   -7   15    0     -0.04      0.00
    8   15    0     -1.06      0.00
    9   15    0      0.37      0.00
   -6   16    0     -0.53      0.00
    7   16    0     -0.17      0.00
    8   16    0     -0.51      0.00
   -5   17    0      1.14      0.00
    6   17    0      0.65      0.00
    7   17    0      0.66      0.00
   -4   18    0      1.91      0.00
    5   18    0     -2.43      0.00
    6   18    0     -0.05      0.00
   -2   19    0      0.92      0.00
    3   19    0      0.46      0.00
    4   19    0     -1.25      0.00
   -4  -19    1     -0.99      0.00
   -3  -19    1     -0.01      0.00
    1  -19    1     -0.84      0.00
    2  -19    1     -0.11      0.00
   -6  -18    1      1.79      0.00
   -5  -18    1     -0.71      0.00
    4  -18    1     -0.14      0.00
   -7  -17    1      0.25      0.00
   -6  -17    1     -0.20      0.00
    5  -17    1     -1.41      0.00
   -8  -16    1      0.93      0.00
   -7  -16    1     -0.68      0.00
    6  -16    1     -0.33      0.00
   -9  -15    1     -0.44      0.00
   -8  -15    1     -1.00      0.00
    7  -15    1     -0.41      0.00
   -9  -14    1     -1.19      0.00
   -8  -14    1      1.65      0.00
    8  -14    1     -0.09      0.00
  -10  -13    1      1.04      0.00
   -9  -13    1     -0.19      0.00
  -10  -12    1      0.47      0.00
   -9  -12    1     -0.60      0.00
    9  -12    1      0.42      0.00
  -11  -11    1      1.11      0.00
  -10  -11    1      0.32      0.00
   -9  -11    1      0.45      0.00
  -11  -10    1     -0.37      0.00
  -10  -10    1      0.09      0.00
   -9  -10    1     -0.83      0.00
   10  -10    1     -3.88      0.00
  -11   -9    1      0.50      0.00
  -10   -9    1     -1.09      0.00
   -9   -9    1      0.75      0.00
  -11   -8    1      0.42      0.00
  -10   -8    1      1.58      0.00
   -9   -8    1     -0.85      0.00
   -8   -8    1     -0.97      0.00
   11   -8    1      0.45      0.00
  -11   -7    1     -0.17      0.00
  -10   -7    1     -2.04      0.00
   -9   -7    1      0.06      0.00
   -8   -7    1      1.31      0.00
   11   -7    1      1.35      0.00
  -11   -6    1      1.49      0.00
  -10   -6    1      0.88      0.00
  -11   -5    1     -0.12      0.00
  -11   -4    1     -1.33      0.00
    0   -1    1     -4.12      0.00
   -1    0    1     -8.44      0.00
    0    0    1     41.97      0.00
    1    0    1     70.22      0.00
    0    1    1     -4.80      0.00
    0    3    1      3.62      0.00
   10    4    1      0.32      0.00
   11    4    1      0.46      0.00
   10    5    1      0.22      0.00
   11    5    1     -1.94      0.00
   11    6    1      0.30      0.00
   10    7    1     -0.47      0.00
   11    7    1      0.08      0.00
  -11    8    1      1.75      0.00
    8    8    1     -3.05      0.00
    9    8    1     -0.99      0.00
   10    8    1      0.77      0.00
   11    8    1     -0.93      0.00
    8    9    1      2.76      0.00
    9    9    1      0.52      0.00
   10    9    1     -0.95      0.00
   11    9    1     -0.23      0.00
    9   10    1     -1.67      0.00
   10   10    1      1.16      0.00
   11   10    1      0.25      0.00
    9   11    1      0.74      0.00
   10   11    1      0.19      0.00
   11   11    1     -0.59      0.00
    9   12    1     -0.49      0.00
   10   12    1      0.42      0.00
    9   13    1     -0.90      0.00
   10   13    1      0.97      0.00
   -8   14    1     -0.76      0.00
    8   14    1      1.35      0.00
    9   14    1     -0.74      0.00
   -7   15    1     -2.12      0.00
    8   15    1     -0.15      0.00
    9   15    1      0.44      0.00
   -6   16    1     -0.21      0.00
    7   16    1     -0.73      0.00
    8   16    1      0.57      0.00
   -5   17    1     -0.72      0.00
    6   17    1      1.47      0.00
    7   17    1     -0.61      0.00
   -4   18    1      0.04      0.00
    5   18    1     -1.73      0.00
    6   18    1     -1.10      0.00
   -2   19    1     -0.07      0.00
    4   19    1     -1.51      0.00
    5   19    1     -0.15      0.00
   -3  -19    2     -0.41      0.00
   -2  -19    2     -0.49      0.00
    0  -19    2      0.64      0.00
    1  -19    2      0.16      0.00
   -5  -18    2      2.05      0.00
    3  -18    2      1.01      0.00
   -7  -17    2     -0.50      0.00
   -6  -17    2     -0.29      0.00
    5  -17    2     -0.06      0.00
   -8  -16    2      0.01      0.00
   -7  -16    2      1.84      0.00
    6  -16    2      0.21      0.00
   -8  -15    2     -1.36      0.00
    7  -15    2     -0.25      0.00
   -9  -14    2      0.23      0.00
   -8  -14    2     -1.28      0.00
  -10  -13    2      0.16      0.00
   -9  -13    2     -0.83      0.00
  -10  -12    2      0.12      0.00
   -9  -12    2      1.45      0.00
    9  -12    2      0.98      0.00
  -11  -11    2      0.06      0.00
  -10  -11    2      0.79      0.00
   -9  -11    2     -0.94      0.00
  -11  -10    2     -0.07      0.00
  -10  -10    2     -0.22      0.00
   -9  -10    2     -0.09      0.00
   10  -10    2     -1.28      0.00
  -11   -9    2      0.21      0.00
  -10   -9    2     -0.61      0.00
   -9   -9    2     -0.16      0.00
  -11   -8    2     -0.50      0.00
  -10   -8    2      2.55      0.00
   -9   -8    2     -1.12      0.00
   11   -8    2      0.01      0.00
  -11   -7    2      0.13      0.00
  -10   -7    2     -1.51      0.00
   -9   -7    2      0.00      0.00
   -8   -7    2      0.71      0.00
   11   -7    2     -0.69      0.00
  -11   -6    2      0.66      0.00
  -10   -6    2      1.54      0.00
   -9   -6    2      0.89      0.00
   -8   -6    2      0.15      0.00
  -11   -5    2     -0.18      0.00
  -10   -5    2      1.99      0.00
  -11   -4    2     -1.78      0.00
  -10   -4    2     -1.26      0.00
    2   -1    2    -10.20      0.00
    0    0    2     43.70      0.00
    0    2    2      8.17      0.00
    9    5    2      0.01      0.00
   11    5    2     -1.65      0.00
   11    6    2     -0.17      0.00
  -11    7    2      2.25      0.00
    9    7    2      0.92      0.00
   11    7    2      1.00      0.00
  -11    8    2     -0.31      0.00
   10    8    2     -1.33      0.00
   11    8    2     -0.46      0.00
    8    9    2      0.06      0.00
    9    9    2      1.04      0.00
   10    9    2     -0.41      0.00
   11    9    2      0.34      0.00
    9   10    2     -0.05      0.00
   10   10    2     -0.70      0.00
   11   10    2      1.21      0.00
    9   11    2      1.19      0.00
   10   11    2     -0.77      0.00
   11   11    2     -0.38      0.00
    9   12    2     -0.20      0.00
   10   12    2     -0.10      0.00
    9   13    2      0.48      0.00
   10   13    2     -0.44      0.00
   -8   14    2     -0.79      0.00
    8   14    2      1.15      0.00
    9   14    2     -0.03      0.00
   -7   15    2      0.83      0.00
    8   15    2     -1.34      0.00
    9   15    2     -0.34      0.00
   -6   16    2      0.29      0.00
    7   16    2     -1.16      0.00
    8   16    2      0.22      0.00
   -5   17    2     -0.26      0.00
    6   17    2      2.55      0.00
    7   17    2     -0.73      0.00
   -4   18    2      0.61      0.00
    5   18    2      1.62      0.00
    6   18    2     -2.00      0.00
   -2   19    2      0.43      0.00
    4   19    2     -2.42      0.00
    5   19    2     -1.41      0.00
   -3  -19    3     -0.77      0.00
   -2  -19    3     -0.36      0.00
   -1  -19    3     -0.28      0.00
    0  -19    3     -0.09      0.00
   -5  -18    3     -0.97      0.00
   -4  -18    3      3.89      0.00
    3  -18    3     -0.66      0.00
   -6  -17    3     -0.57      0.00
    4  -17    3      0.67      0.00
   -7  -16    3     -0.74      0.00
    5  -16    3     -0.05      0.00
   -8  -15    3      0.19      0.00
   -7  -15    3     -0.61      0.00
    6  -15    3     -1.72      0.00
   -9  -14    3      0.45      0.00
   -8  -14    3      0.39      0.00
   -9  -13    3     -1.25      0.00
    8  -13    3      1.07      0.00
  -10  -12    3     -0.29      0.00
   -9  -12    3      0.89      0.00
    9  -12    3     -0.18      0.00
  -10  -11    3      0.01      0.00
   -9  -11    3      0.10      0.00
  -11  -10    3     -0.44      0.00
  -10  -10    3     -0.70      0.00
   -9  -10    3     -0.04      0.00
   10  -10    3     -2.50      0.00
  -11   -9    3      1.10      0.00
  -10   -9    3     -0.51      0.00
   -9   -9    3     -0.05      0.00
  -11   -8    3      0.23      0.00
  -10   -8    3      0.51      0.00
   -9   -8    3      1.08      0.00
  -11   -7    3     -0.56      0.00
  -10   -7    3     -0.50      0.00
   -9   -7    3     -0.86      0.00
   11   -7    3      0.65      0.00
  -11   -6    3      2.47      0.00
  -10   -6    3     -0.05      0.00
   -9   -6    3      2.75      0.00
  -11   -5    3     -1.84      0.00
  -10   -5    3      1.76      0.00
  -11   -4    3      0.35      0.00
   -9   -4    3      0.50      0.00
  -11   -3    3      0.97      0.00
    0    0    3      7.57      0.00
    0    1    3     -8.88      0.00
   10    6    3     -2.21      0.00
   11    6    3     -1.85      0.00
  -11    7    3      1.30      0.00
   11    7    3      1.00      0.00
  -11    8    3      0.18      0.00
   10    8    3     -0.66      0.00
   11    8    3     -2.43      0.00
    9    9    3      0.73      0.00
   10    9    3      0.59      0.00
   11    9    3      0.35      0.00
  -10   10    3     -0.58      0.00
    8   10    3     -1.02      0.00
    9   10    3     -1.54      0.00
   10   10    3      0.41      0.00
   11   10    3     -0.03      0.00
    9   11    3      1.20      0.00
   10   11    3      0.18      0.00
   11   11    3     -1.66      0.00
    9   12    3     -0.70      0.00
   10   12    3     -0.25      0.00
    9   13    3     -0.34      0.00
   10   13    3      0.51      0.00
   -8   14    3     -0.09      0.00
    8   14    3     -1.14      0.00
    9   14    3     -0.19      0.00
   -7   15    3     -0.22      0.00
    8   15    3     -0.56      0.00
    9   15    3      0.28      0.00
   -6   16    3     -0.81      0.00
    7   16    3     -1.65      0.00
    8   16    3     -0.80      0.00
   -5   17    3     -2.44      0.00
    6   17    3     -1.21      0.00
    7   17    3     -0.11      0.00
   -4   18    3     -0.47      0.00
    5   18    3      1.47      0.00
    6   18    3      0.84      0.00
   -2   19    3      0.67      0.00
    4   19    3      1.55      0.00
    5   19    3     -1.46      0.00
   -4  -18    4     -1.03      0.00
    2  -18    4      1.53      0.00
   -6  -17    4     -0.29      0.00
   -5  -17    4      0.89      0.00
    4  -17    4      0.35      0.00
   -7  -16    4      0.15      0.00
   -6  -16    4      0.76      0.00
    5  -16    4     -0.52      0.00
   -8  -15    4      0.07      0.00
   -7  -15    4      0.28      0.00
    6  -15    4      0.65      0.00
   -9  -14    4      0.23      0.00
   -8  -14    4      0.06      0.00
    7  -14    4     -0.25      0.00
   -9  -13    4      0.14      0.00
   -8  -13    4     -1.55      0.00
    8  -13    4      0.47      0.00
  -10  -12    4     -0.16      0.00
   -9  -12    4     -1.22      0.00
  -10  -11    4      0.38      0.00
   -9  -11    4      1.15      0.00
    9  -11    4      1.76      0.00
  -11  -10    4      0.03      0.00
  -10  -10    4     -0.48      0.00
   -9  -10    4     -1.93      0.00
  -11   -9    4      0.49      0.00
  -10   -9    4      1.05      0.00
   -9   -9    4      0.21      0.00
   -8   -9    4      1.22      0.00
   10   -9    4      1.94      0.00
  -11   -8    4     -0.50      0.00
  -10   -8    4     -0.09      0.00
   -9   -8    4     -1.18      0.00
  -11   -7    4      0.01      0.00
  -10   -7    4      0.33      0.00
   -9   -7    4      0.50      0.00
   11   -7    4      0.95      0.00
  -11   -6    4      0.99      0.00
  -10   -6    4      1.14      0.00
   -9   -6    4     -0.37      0.00
   11   -6    4     -1.62      0.00
  -11   -5    4     -0.59      0.00
  -10   -5    4     -2.13      0.00
  -11   -4    4     -0.77      0.00
  -11   -3    4      2.29      0.00
  -10   -3    4     -3.29      0.00
  -11   -2    4     -2.02      0.00
  -11    6    4      1.12      0.00
   11    6    4      0.46      0.00
  -11    7    4      0.94      0.00
   11    7    4      0.68      0.00
  -11    8    4     -0.25      0.00
    9    8    4     -1.46      0.00
   10    8    4     -0.51      0.00
   11    8    4      0.47      0.00
   10    9    4      0.00      0.00
   11    9    4      0.77      0.00
  -10   10    4      2.19      0.00
    9   10    4     -0.73      0.00
   10   10    4     -1.96      0.00
   11   10    4      0.53      0.00
    9   11    4      0.92      0.00
   10   11    4      0.67      0.00
   11   11    4     -0.27      0.00
   -9   12    4      1.13      0.00
    9   12    4     -0.35      0.00
   10   12    4     -1.34      0.00
    8   13    4     -2.03      0.00
    9   13    4     -0.06      0.00
   10   13    4      0.49      0.00
   -8   14    4      0.80      0.00
    8   14    4      0.00      0.00
    9   14    4     -0.88      0.00
   -7   15    4      0.20      0.00
    8   15    4     -1.31      0.00
    9   15    4      0.07      0.00
   -6   16    4     -1.56      0.00
    7   16    4     -1.81      0.00
    8   16    4     -0.94      0.00
   -5   17    4     -1.30      0.00
    6   17    4      0.35      0.00
    7   17    4     -0.52      0.00
   -4   18    4      0.16      0.00
    5   18    4     -0.53      0.00
    6   18    4      0.41      0.00
   -2   19    4      0.05      0.00
    4   19    4     -0.02      0.00
    5   19    4      1.24      0.00
   -3  -18    5     -0.02      0.00
    1  -18    5     -0.41      0.00
   -5  -17    5     -0.24      0.00
    3  -17    5     -0.93      0.00
   -7  -16    5     -1.66      0.00
   -6  -16    5      1.33      0.00
    5  -16    5     -0.69      0.00
   -7  -15    5      1.49      0.00
    6  -15    5     -0.84      0.00
   -8  -14    5     -0.10      0.00
    7  -14    5     -0.16      0.00
   -9  -13    5      0.49      0.00
   -8  -13    5     -0.43      0.00
   -9  -12    5     -0.32      0.00
  -10  -11    5     -0.90      0.00
   -9  -11    5      0.30      0.00
    9  -11    5      1.19      0.00
  -10  -10    5     -0.11      0.00
   -9  -10    5      0.25      0.00
  -11   -9    5      0.72      0.00
  -10   -9    5      0.80      0.00
   -9   -9    5      0.38      0.00
   10   -9    5     -0.09      0.00
  -11   -8    5     -0.52      0.00
  -10   -8    5     -0.35      0.00
  -11   -7    5     -0.42      0.00
  -10   -7    5      0.26      0.00
  -11   -6    5      0.94      0.00
  -10   -6    5      0.43      0.00
   -9   -6    5     -0.43      0.00
   11   -6    5     -0.86      0.00
  -11   -5    5     -1.31      0.00
  -10   -5    5     -1.05      0.00
   -9   -5    5      0.63      0.00
  -11   -4    5     -0.23      0.00
  -10   -4    5     -1.01      0.00
  -11   -3    5      1.32      0.00
  -10   -3    5      1.51      0.00
  -11   -2    5     -0.81      0.00
  -11   -1    5      0.81      0.00
  -11    5    5     -1.89      0.00
  -11    6    5      1.57      0.00
   11    6    5      1.01      0.00
  -11    7    5      0.69      0.00
   11    7    5     -1.37      0.00
   11    8    5     -0.32      0.00
   10    9    5      2.95      0.00
   11    9    5      0.25      0.00
  -10   10    5     -0.17      0.00
    9   10    5      1.87      0.00
   10   10    5     -0.62      0.00
   11   10    5     -0.59      0.00
    9   11    5     -1.06      0.00
   10   11    5     -0.48      0.00
   11   11    5     -1.32      0.00
   -9   12    5      0.36      0.00
    9   12    5      1.15      0.00
   10   12    5      1.15      0.00
    8   13    5     -0.88      0.00
    9   13    5     -0.26      0.00
   10   13    5     -0.85      0.00
   -8   14    5     -0.01      0.00
    8   14    5     -2.87      0.00
    9   14    5     -0.84      0.00
   -7   15    5     -0.32      0.00
    8   15    5     -1.08      0.00
    9   15    5      1.02      0.00
   -6   16    5     -0.17      0.00
    7   16    5      0.06      0.00
    8   16    5     -1.02      0.00
   -5   17    5     -1.74      0.00
    6   17    5      0.44      0.00
    7   17    5     -0.10      0.00
   -4   18    5      0.35      0.00
    5   18    5     -0.19      0.00
    6   18    5      0.36      0.00
   -2   19    5     -0.54      0.00
    3   19    5      1.54      0.00
    4   19    5     -3.54      0.00
    5   19    5      0.27      0.00
   -2  -18    6      1.08      0.00
   -1  -18    6     -0.08      0.00
    0  -18    6      0.25      0.00
   -5  -17    6     -0.36      0.00
   -4  -17    6      0.10      0.00
    3  -17    6      1.84      0.00
   -6  -16    6     -0.93      0.00
    4  -16    6      0.37      0.00
   -7  -15    6      0.01      0.00
    5  -15    6      0.72      0.00
   -8  -14    6     -0.24      0.00
   -7  -14    6     -1.13      0.00
    6  -14    6     -1.16      0.00
   -9  -13    6     -1.26      0.00
   -8  -13    6      0.52      0.00
    7  -13    6      0.51      0.00
   -9  -12    6      0.18      0.00
   -8  -12    6      0.19      0.00
    8  -12    6      0.25      0.00
  -10  -11    6     -0.41      0.00
   -9  -11    6      0.23      0.00
  -10  -10    6      0.05      0.00
   -9  -10    6     -0.44      0.00
    9  -10    6     -1.26      0.00
  -10   -9    6      0.70      0.00
   -9   -9    6      0.42      0.00
  -11   -8    6     -0.23      0.00
  -10   -8    6     -0.33      0.00
   10   -8    6     -0.94      0.00
  -11   -7    6      0.87      0.00
  -10   -7    6     -0.11      0.00
  -11   -6    6      0.31      0.00
  -10   -6    6     -0.16      0.00
   11   -6    6     -0.17      0.00
  -11   -5    6     -0.40      0.00
  -10   -5    6     -2.38      0.00
   11   -5    6     -1.08      0.00
  -11   -4    6      1.12      0.00
  -10   -4    6      0.56      0.00
  -11   -3    6     -0.10      0.00
  -11   -2    6      1.35      0.00
  -11   -1    6      0.31      0.00
  -11    0    6      0.31      0.00
  -11    1    6      0.45      0.00
  -11    2    6     -1.85      0.00
  -11    3    6      0.04      0.00
  -11    4    6      1.06      0.00
  -11    5    6     -0.51      0.00
   11    5    6      0.38      0.00
  -11    6    6      0.74      0.00
   11    6    6     -1.10      0.00
  -11    7    6      1.48      0.00
   11    7    6      2.99      0.00
   11    8    6     -1.46      0.00
  -10    9    6     -2.53      0.00
   10    9    6     -0.54      0.00
   11    9    6      2.20      0.00
  -10   10    6      1.36      0.00
    9   10    6      0.73      0.00
   10   10    6     -0.27      0.00
   11   10    6     -0.50      0.00
    9   11    6      0.23      0.00
   10   11    6      0.59      0.00
   -9   12    6      0.54      0.00
    9   12    6     -0.95      0.00
   10   12    6      0.12      0.00
    8   13    6      0.40      0.00
    9   13    6      0.36      0.00
   10   13    6      0.68      0.00
    8   14    6     -1.18      0.00
    9   14    6     -1.73      0.00
   -7   15    6      0.55      0.00
    7   15    6     -1.21      0.00
    8   15    6     -0.06      0.00
    9   15    6     -0.33      0.00
   -6   16    6     -0.98      0.00
    7   16    6     -0.11      0.00
    8   16    6     -0.65      0.00
   -5   17    6     -1.01      0.00
    6   17    6     -0.77      0.00
    7   17    6      1.07      0.00
   -4   18    6      0.14      0.00
    5   18    6      3.30      0.00
    6   18    6      1.79      0.00
   -2   19    6     -0.33      0.00
   -1   19    6     -0.51      0.00
    3   19    6     -0.99      0.00
    4   19    6      1.45      0.00
   -4  -17    7     -1.87      0.00
   -3  -17    7     -0.71      0.00
    1  -17    7      0.30      0.00
    2  -17    7     -0.23      0.00
   -5  -16    7     -0.74      0.00
    3  -16    7      0.40      0.00
   -6  -15    7     -2.55      0.00
    5  -15    7     -0.28      0.00
   -7  -14    7     -1.33      0.00
    6  -14    7      0.51      0.00
   -8  -13    7     -0.04      0.00
    7  -13    7     -0.34      0.00
   -9  -12    7      0.32      0.00
   -8  -12    7     -0.41      0.00
   -9  -11    7     -0.32      0.00
    8  -11    7     -0.68      0.00
  -10  -10    7      0.72      0.00
   -9  -10    7      0.68      0.00
    9  -10    7      0.32      0.00
  -10   -9    7      1.30      0.00
   -9   -9    7      0.09      0.00
  -10   -8    7      0.48      0.00
   -9   -8    7     -0.02      0.00
   10   -8    7      0.74      0.00
  -11   -7    7      0.32      0.00
  -10   -7    7      0.76      0.00
  -11   -6    7     -0.63      0.00
  -10   -6    7      0.18      0.00
  -11   -5    7     -0.85      0.00
  -10   -5    7     -1.53      0.00
   11   -5    7     -0.60      0.00
  -11   -4    7      0.58      0.00
  -10   -4    7      1.31      0.00
   11   -4    7      0.20      0.00
  -11   -3    7     -0.36      0.00
  -10   -3    7     -0.55      0.00
  -11   -2    7      1.07      0.00
  -11   -1    7      0.45      0.00
  -11    0    7      0.27      0.00
    0    0    7     -7.13      0.00
  -11    1    7     -0.47      0.00
  -11    2    7     -0.55      0.00
  -11    3    7     -1.15      0.00
  -11    4    7      1.98      0.00
  -11    5    7     -1.61      0.00
   11    5    7     -0.86      0.00
  -11    6    7      2.00      0.00
   11    6    7      0.33      0.00
   11    7    7     -0.17      0.00
  -10    8    7     -1.36      0.00
   10    8    7      0.16      0.00
   11    8    7     -0.34      0.00
  -10    9    7      1.72      0.00
   10    9    7     -0.10      0.00
   11    9    7      0.66      0.00
   10   10    7     -0.10      0.00
   11   10    7     -0.63      0.00
   -9   11    7     -0.95      0.00
    9   11    7     -0.89      0.00
   10   11    7      1.56      0.00
    8   12    7     -0.14      0.00
    9   12    7      1.70      0.00
   10   12    7     -0.60      0.00
   -8   13    7     -0.64      0.00
    8   13    7     -2.17      0.00
    9   13    7     -0.14      0.00
    8   14    7     -0.42      0.00
    9   14    7     -1.11      0.00
    7   15    7     -1.01      0.00
    8   15    7     -0.48      0.00
   -6   16    7     -0.32      0.00
    6   16    7      1.29      0.00
    7   16    7      2.74      0.00
    8   16    7     -0.35      0.00
   -5   17    7      0.15      0.00
    6   17    7     -0.05      0.00
    7   17    7     -1.25      0.00
   -3   18    7      0.23      0.00
    4   18    7      3.37      0.00
    5   18    7     -0.41      0.00
    6   18    7      2.08      0.00
   -1   19    7      1.53      0.00
    0   19    7     -0.18      0.00
    1   19    7      0.48      0.00
    2   19    7      0.24      0.00
    3   19    7      0.92      0.00
    4   19    7     -2.31      0.00
   -2  -17    8     -0.60      0.00
   -1  -17    8      1.17      0.00
    0  -17    8     -1.14      0.00
   -4  -16    8     -2.16      0.00
    2  -16    8     -1.24      0.00
    3  -16    8     -0.03      0.00
   -6  -15    8     -0.80      0.00
    4  -15    8     -0.41      0.00
   -7  -14    8     -2.47      0.00
   -6  -14    8      1.83      0.00
    5  -14    8      0.08      0.00
   -8  -13    8     -0.25      0.00
   -7  -13    8      2.02      0.00
    6  -13    8     -1.13      0.00
   -8  -12    8     -0.01      0.00
    7  -12    8     -0.50      0.00
   -9  -11    8      1.04      0.00
   -8  -11    8      0.44      0.00
    8  -11    8      0.71      0.00
   -9  -10    8     -0.33      0.00
  -10   -9    8     -0.17      0.00
   -9   -9    8      2.74      0.00
    9   -9    8     -0.47      0.00
  -10   -8    8      0.36      0.00
   -9   -8    8     -0.44      0.00
  -10   -7    8     -0.49      0.00
   -9   -7    8      1.02      0.00
   10   -7    8     -1.13      0.00
  -11   -6    8      0.28      0.00
  -10   -6    8     -1.06      0.00
  -11   -5    8     -0.25      0.00
  -10   -5    8     -1.12      0.00
  -11   -4    8      1.10      0.00
  -10   -4    8      0.52      0.00
   11   -4    8     -1.18      0.00
  -11   -3    8     -0.49      0.00
  -10   -3    8     -0.57      0.00
   11   -3    8      0.20      0.00
  -11   -2    8      1.15      0.00
  -10   -2    8      1.56      0.00
   11   -2    8     -1.48      0.00
  -11   -1    8      0.47      0.00
  -10   -1    8      1.27      0.00
  -11    0    8     -0.95      0.00
  -11    1    8      0.20      0.00
  -11    2    8     -2.03      0.00
  -11    3    8      0.60      0.00
   11    3    8     -0.68      0.00
  -11    4    8     -0.13      0.00
   11    4    8     -1.42      0.00
  -11    5    8      0.19      0.00
   11    5    8      0.79      0.00
   11    6    8      0.63      0.00
  -10    7    8      0.53      0.00
   11    7    8      0.28      0.00
  -10    8    8      0.40      0.00
   10    8    8     -0.82      0.00
   11    8    8      0.52      0.00
   10    9    8     -0.07      0.00
   11    9    8      0.63      0.00
    9   10    8     -0.35      0.00
   10   10    8      0.34      0.00
   -9   11    8     -0.40      0.00
    9   11    8     -0.82      0.00
   10   11    8      0.67      0.00
    8   12    8     -0.35      0.00
    9   12    8      0.52      0.00
   10   12    8      1.52      0.00
   -8   13    8      0.22      0.00
    8   13    8      0.81      0.00
    9   13    8     -0.32      0.00
   -7   14    8      0.97      0.00
    7   14    8      0.21      0.00
    8   14    8      0.68      0.00
    9   14    8     -1.93      0.00
    7   15    8      1.78      0.00
    8   15    8     -0.39      0.00
   -5   16    8     -0.91      0.00
    6   16    8      1.72      0.00
    7   16    8     -0.71      0.00
   -4   17    8      0.78      0.00
    5   17    8     -0.55      0.00
    6   17    8     -2.11      0.00
   -3   18    8     -0.51      0.00
    4   18    8      1.18      0.00
    5   18    8      0.85      0.00
   -1   19    8     -0.32      0.00
    0   19    8      3.16      0.00
    1   19    8     -1.93      0.00
    2   19    8     -0.93      0.00
    3   19    8      0.61      0.00
   -3  -16    9     -0.80      0.00
   -2  -16    9     -0.26      0.00
    1  -16    9     -1.10      0.00
   -5  -15    9     -0.25      0.00
    3  -15    9      0.16      0.00
   -6  -14    9     -0.11      0.00
    4  -14    9     -0.83      0.00
    5  -14    9      0.21      0.00
   -7  -13    9      1.10      0.00
    5  -13    9     -2.18      0.00
    6  -13    9     -0.06      0.00
   -8  -12    9      0.73      0.00
   -7  -12    9      0.20      0.00
    6  -12    9     -0.99      0.00
   -8  -11    9      1.06      0.00
   -7  -11    9     -0.57      0.00
    7  -11    9     -0.53      0.00
   -9  -10    9     -0.30      0.00
   -8  -10    9     -0.74      0.00
    8  -10    9     -0.20      0.00
   -9   -9    9     -0.16      0.00
  -10   -8    9      1.50      0.00
   -9   -8    9      0.87      0.00
   -6   -8    9      0.95      0.00
    9   -8    9     -1.33      0.00
  -10   -7    9      0.71      0.00
   -9   -7    9     -1.41      0.00
  -10   -6    9     -0.87      0.00
   -9   -6    9      1.60      0.00
   10   -6    9      1.04      0.00
  -10   -5    9      0.25      0.00
   10   -5    9     -1.46      0.00
  -11   -4    9      0.76      0.00
  -10   -4    9      0.36      0.00
  -11   -3    9     -0.44      0.00
  -10   -3    9     -0.06      0.00
  -11   -2    9      0.71      0.00
  -10   -2    9      0.72      0.00
   11   -2    9      1.01      0.00
  -11   -1    9      0.61      0.00
  -10   -1    9      0.89      0.00
   11   -1    9     -2.27      0.00
  -11    0    9     -0.53      0.00
  -10    0    9     -1.52      0.00
   11    0    9      0.89      0.00
  -11    1    9     -0.49      0.00
  -10    1    9      1.36      0.00
   11    1    9     -0.88      0.00
  -11    2    9     -0.50      0.00
   11    2    9     -0.70      0.00
  -11    3    9      0.13      0.00
   11    3    9     -0.02      0.00
   11    4    9     -1.18      0.00
  -10    5    9     -1.46      0.00
   11    5    9      0.17      0.00
  -10    6    9      2.04      0.00
   11    6    9      0.25      0.00
  -10    7    9      1.65      0.00
   10    7    9      1.45      0.00
   11    7    9      0.40      0.00
  -10    8    9     -0.67      0.00
   10    8    9      0.13      0.00
   11    8    9     -0.52      0.00
   10    9    9     -1.12      0.00
   -9   10    9      0.26      0.00
    9   10    9     -0.25      0.00
   10   10    9      1.03      0.00
    9   11    9     -0.10      0.00
   10   11    9      0.12      0.00
   -8   12    9      0.21      0.00
    8   12    9     -2.24      0.00
    9   12    9      0.39      0.00
    8   13    9      2.11      0.00
    9   13    9      0.41      0.00
   -7   14    9     -0.14      0.00
    7   14    9      2.72      0.00
    8   14    9     -1.61      0.00
   -6   15    9      0.66      0.00
    7   15    9     -1.63      0.00
    8   15    9      1.30      0.00
   -5   16    9     -0.49      0.00
    6   16    9      0.38      0.00
    7   16    9      1.86      0.00
   -4   17    9     -0.68      0.00
    5   17    9     -1.07      0.00
    6   17    9      0.66      0.00
   -2   18    9     -0.08      0.00
    3   18    9      2.35      0.00
    4   18    9     -0.09      0.00
    5   18    9      0.98      0.00
    1   19    9      0.77      0.00
    2   19    9     -0.83      0.00
   -4  -15   10     -0.45      0.00
   -3  -15   10     -0.63      0.00
    2  -15   10      0.67      0.00
   -5  -14   10     -0.81      0.00
    4  -14   10     -0.48      0.00
   -6  -13   10     -0.52      0.00
    5  -13   10     -1.92      0.00
   -7  -12   10     -0.79      0.00
    5  -12   10      0.50      0.00
    6  -12   10     -0.66      0.00
   -8  -11   10      0.50      0.00
   -7  -11   10      0.90      0.00
    7  -11   10     -0.27      0.00
   -8  -10   10     -0.96      0.00
   -9   -9   10      0.53      0.00
   -8   -9   10     -0.20      0.00
    8   -9   10     -0.78      0.00
   -9   -8   10      0.95      0.00
   -9   -7   10      0.45      0.00
    9   -7   10     -0.61      0.00
  -10   -6   10     -0.59      0.00
   -9   -6   10     -0.22      0.00
  -10   -5   10     -0.79      0.00
   -9   -5   10      1.76      0.00
   10   -5   10     -0.83      0.00
  -10   -4   10      1.08      0.00
   -9   -4   10     -3.05      0.00
   10   -4   10     -1.77      0.00
  -10   -3   10     -0.10      0.00
  -10   -2   10      0.43      0.00
  -10   -1   10      0.99      0.00
  -10    0   10     -0.88      0.00
   11    0   10     -1.01      0.00
  -10    1   10      0.96      0.00
   11    1   10     -0.24      0.00
  -10    2   10     -2.99      0.00
   11    2   10      0.92      0.00
  -10    3   10     -0.03      0.00
   11    3   10     -1.36      0.00
  -10    4   10      0.47      0.00
   11    4   10      0.82      0.00
  -10    5   10     -0.66      0.00
   11    5   10      0.50      0.00
  -10    6   10      3.05      0.00
   10    6   10     -0.41      0.00
   11    6   10      0.56      0.00
   10    7   10      0.41      0.00
   10    8   10     -0.29      0.00
   -9    9   10      2.26      0.00
   10    9   10     -0.18      0.00
    9   10   10     -0.89      0.00
   10   10   10     -1.01      0.00
   -8   11   10     -0.22      0.00
    9   11   10     -1.24      0.00
    8   12   10     -0.92      0.00
    9   12   10      0.62      0.00
   -7   13   10     -0.46      0.00
    7   13   10      1.22      0.00
    8   13   10      1.66      0.00
    9   13   10     -0.57      0.00
    7   14   10      0.12      0.00
    8   14   10     -0.34      0.00
    6   15   10     -0.06      0.00
    7   15   10     -0.46      0.00
   -4   16   10     -0.12      0.00
    5   16   10     -1.87      0.00
    6   16   10     -1.53      0.00
   -3   17   10      0.07      0.00
    4   17   10     -3.91      0.00
    5   17   10      3.22      0.00
   -1   18   10      1.63      0.00
    0   18   10      0.94      0.00
    1   18   10      0.92      0.00
    2   18   10      0.50      0.00
    3   18   10     -1.24      0.00
    4   18   10      3.50      0.00
   -1  -15   11     -0.86      0.00
    0  -15   11      0.93      0.00
   -4  -14   11      0.53      0.00
    2  -14   11      0.46      0.00
    3  -14   11     -0.37      0.00
   -5  -13   11      0.76      0.00
    4  -13   11      0.57      0.00
   -6  -12   11     -1.43      0.00
    5  -12   11     -0.72      0.00
   -7  -11   11     -0.41      0.00
    6  -11   11      0.00      0.00
   -8  -10   11      0.53      0.00
   -7  -10   11     -0.99      0.00
    7  -10   11     -0.90      0.00
   -8   -9   11     -0.67      0.00
   -9   -8   11     -0.37      0.00
   -8   -8   11      0.62      0.00
    8   -8   11     -0.22      0.00
   -9   -7   11      0.18      0.00
   -9   -6   11      0.64      0.00
    9   -6   11     -1.06      0.00
  -10   -5   11     -0.32      0.00
   -9   -5   11     -0.41      0.00
  -10   -4   11      0.24      0.00
   -9   -4   11      0.06      0.00
  -10   -3   11      0.00      0.00
   -9   -3   11      0.72      0.00
   10   -3   11     -0.22      0.00
  -10   -2   11     -0.79      0.00
   -9   -2   11      0.01      0.00
   10   -2   11     -1.06      0.00
  -10   -1   11     -0.49      0.00
   -9   -1   11      1.92      0.00
  -10    0   11     -0.27      0.00
   -9    0   11     -2.50      0.00
  -10    1   11     -1.29      0.00
  -10    2   11     -2.04      0.00
  -10    3   11     -0.11      0.00
  -10    4   11     -0.52      0.00
  -10    5   11      0.54      0.00
   10    5   11      1.59      0.00
   10    6   11      0.44      0.00
   -9    7   11      1.97      0.00
   10    7   11      0.69      0.00
   -9    8   11      2.13      0.00
   10    8   11     -0.11      0.00
    9    9   11     -1.33      0.00
   10    9   11     -1.30      0.00
   -8   10   11     -0.44      0.00
    9   10   11     -0.43      0.00
   -8   11   11      0.55      0.00
    8   11   11      0.23      0.00
    9   11   11     -0.73      0.00
    8   12   11     -1.13      0.00
    9   12   11     -0.36      0.00
    7   13   11     -0.69      0.00
    8   13   11      0.79      0.00
   -6   14   11     -0.30      0.00
    6   14   11     -0.16      0.00
    7   14   11     -0.01      0.00
   -5   15   11     -0.70      0.00
    6   15   11     -0.56      0.00
    7   15   11     -0.54      0.00
   -4   16   11      0.67      0.00
    5   16   11      1.88      0.00
    6   16   11     -0.92      0.00
   -2   17   11      0.33      0.00
    3   17   11     -2.35      0.00
    4   17   11      2.61      0.00
    5   17   11     -1.14      0.00
    0   18   11      2.92      0.00
    1   18   11      0.75      0.00
    2   18   11     -0.63      0.00
   -2  -14   12      0.18      0.00
   -1  -14   12     -1.04      0.00
    0  -14   12      1.67      0.00
    1  -14   12     -1.65      0.00
   -4  -13   12     -0.37      0.00
    2  -13   12      0.00      0.00
    3  -13   12      0.19      0.00
   -5  -12   12     -0.53      0.00
    4  -12   12      1.03      0.00
   -6  -11   12      0.13      0.00
    5  -11   12     -0.10      0.00
   -7  -10   12     -1.71      0.00
    6  -10   12     -0.74      0.00
   -8   -9   12     -0.67      0.00
   -7   -9   12      0.60      0.00
    7   -9   12      0.59      0.00
   -8   -8   12     -0.59      0.00
   -8   -7   12      0.59      0.00
    8   -7   12      0.39      0.00
   -9   -6   12      0.44      0.00
   -8   -6   12      1.03      0.00
   -9   -5   12     -0.15      0.00
    9   -5   12      1.14      0.00
   -9   -4   12     -1.35      0.00
    9   -4   12     -0.73      0.00
   -9   -3   12      0.57      0.00
   -9   -2   12     -0.37      0.00
  -10   -1   12     -0.70      0.00
   -9   -1   12     -0.96      0.00
   10   -1   12      0.72      0.00
  -10    0   12      1.45      0.00
   -9    0   12     -0.69      0.00
   10    0   12      1.97      0.00
  -10    1   12     -1.00      0.00
   -9    1   12     -1.02      0.00
   10    1   12     -1.15      0.00
  -10    2   12     -0.55      0.00
   -9    2   12     -0.22      0.00
   10    2   12      1.96      0.00
   -9    3   12     -1.54      0.00
   10    3   12      0.69      0.00
   -9    4   12      0.16      0.00
   10    4   12      0.33      0.00
   -9    5   12      0.54      0.00
   10    5   12      0.14      0.00
   -9    6   12      1.05      0.00
   10    6   12      1.44      0.00
   -9    7   12      1.13      0.00
   10    7   12     -1.80      0.00
    9    8   12     -0.59      0.00
   -8    9   12      1.26      0.00
    9    9   12     -0.25      0.00
   -8   10   12      0.46      0.00
    8   10   12     -0.79      0.00
    9   10   12     -0.80      0.00
    8   11   12     -0.27      0.00
    9   11   12     -1.13      0.00
   -7   12   12     -0.07      0.00
    7   12   12     -0.49      0.00
    8   12   12     -0.18      0.00
   -6   13   12     -2.12      0.00
    7   13   12      0.41      0.00
    8   13   12     -0.36      0.00
   -5   14   12      1.39      0.00
    6   14   12      1.20      0.00
    7   14   12     -1.12      0.00
   -4   15   12      0.04      0.00
    5   15   12      2.66      0.00
    6   15   12     -1.72      0.00
   -3   16   12      1.08      0.00
    4   16   12      3.89      0.00
    5   16   12     -1.29      0.00
   -1   17   12      0.11      0.00
    0   17   12     -2.28      0.00
    1   17   12      0.37      0.00
    2   17   12      0.35      0.00
    3   17   12      1.16      0.00
   -2  -13   13     -0.78      0.00
   -1  -13   13      1.32      0.00
    0  -13   13      0.69      0.00
    1  -13   13     -0.60      0.00
   -4  -12   13      0.60      0.00
    3  -12   13     -0.37      0.00
   -5  -11   13     -1.00      0.00
    4  -11   13     -0.56      0.00
   -6  -10   13     -2.01      0.00
    5  -10   13      0.46      0.00
   -7   -9   13      1.11      0.00
    6   -9   13      0.73      0.00
   -7   -8   13     -1.72      0.00
   -8   -7   13      0.11      0.00
    7   -7   13      0.11      0.00
   -8   -6   13      0.29      0.00
    8   -6   13     -0.91      0.00
   -8   -5   13     -0.57      0.00
    8   -5   13      0.66      0.00
   -9   -4   13     -0.06      0.00
   -8   -4   13      1.29      0.00
   -9   -3   13      0.27      0.00
   -8   -3   13     -1.68      0.00
    9   -3   13     -0.63      0.00
   -9   -2   13      0.90      0.00
    9   -2   13      2.16      0.00
   -9   -1   13     -0.82      0.00
   -9    0   13     -0.09      0.00
   -9    1   13      0.10      0.00
   -9    2   13      0.19      0.00
   -9    3   13     -0.37      0.00
   -9    4   13      0.30      0.00
   -9    5   13      1.08      0.00
    9    6   13     -1.75      0.00
   -8    7   13     -0.38      0.00
    9    7   13      0.20      0.00
   -8    8   13      1.84      0.00
    9    8   13     -1.02      0.00
    8    9   13     -2.26      0.00
    9    9   13     -0.34      0.00
   -7   10   13      0.28      0.00
    8   10   13      1.06      0.00
   -7   11   13     -0.54      0.00
    8   11   13     -0.46      0.00
   -6   12   13     -0.81      0.00
    7   12   13     -0.83      0.00
    8   12   13     -0.03      0.00
    6   13   13     -2.11      0.00
    7   13   13      0.02      0.00
    5   14   13      0.92      0.00
    6   14   13      1.11      0.00
   -3   15   13     -0.44      0.00
    4   15   13      1.84      0.00
    5   15   13     -0.56      0.00
   -2   16   13      0.49      0.00
   -1   16   13     -0.99      0.00
    2   16   13      0.18      0.00
    3   16   13      0.85      0.00
    4   16   13     -0.25      0.00
    1   17   13      0.60      0.00
   -2  -12   14      0.52      0.00
   -1  -12   14     -0.49      0.00
    0  -12   14     -1.33      0.00
    1  -12   14     -2.49      0.00
   -4  -11   14     -0.05      0.00
    2  -11   14      0.87      0.00
    3  -11   14      0.88      0.00
   -5  -10   14     -0.44      0.00
    4  -10   14      0.87      0.00
   -6   -9   14     -0.63      0.00
    4   -9   14     -0.13      0.00
    5   -9   14      0.11      0.00
   -6   -8   14      0.65      0.00
    5   -8   14      0.19      0.00
    6   -8   14     -0.05      0.00
   -7   -7   14     -0.18      0.00
    6   -7   14      0.62      0.00
   -7   -6   14      1.22      0.00
    7   -6   14      0.35      0.00
   -8   -5   14      0.48      0.00
   -7   -5   14     -1.55      0.00
   -8   -4   14      0.70      0.00
    8   -4   14     -0.15      0.00
   -8   -3   14      0.08      0.00
    8   -3   14     -0.50      0.00
   -8   -2   14     -0.79      0.00
   -8   -1   14      0.17      0.00
   -8    0   14     -0.13      0.00
    9    0   14      1.16      0.00
   -8    1   14     -0.65      0.00
    9    1   14     -0.33      0.00
   -8    2   14      0.30      0.00
    9    2   14      0.33      0.00
   -8    3   14     -0.28      0.00
    9    3   14     -0.26      0.00
   -8    4   14      0.52      0.00
    9    4   14     -0.15      0.00
   -8    5   14     -0.31      0.00
    9    5   14      0.40      0.00
   -8    6   14      0.73      0.00
    9    6   14     -0.02      0.00
   -8    7   14      0.30      0.00
    9    7   14     -0.41      0.00
   -7    8   14     -0.02      0.00
   -7    9   14      0.50      0.00
    8    9   14     -0.73      0.00
    8   10   14      0.37      0.00
   -6   11   14     -0.25      0.00
    7   11   14     -1.08      0.00
    6   12   14     -0.31      0.00
    7   12   14      0.13      0.00
    5   13   14      1.68      0.00
    6   13   14     -1.84      0.00
   -4   14   14      0.03      0.00
    4   14   14      0.71      0.00
    5   14   14     -2.29      0.00
   -2   15   14      0.73      0.00
    2   15   14     -0.16      0.00
    3   15   14      0.74      0.00
    4   15   14     -1.75      0.00
    0   16   14     -1.10      0.00
    1   16   14     -1.52      0.00
    2   16   14     -0.91      0.00
   -1  -11   15      1.15      0.00
    0  -11   15      1.10      0.00
   -3  -10   15      2.20      0.00
    2  -10   15      0.00      0.00
   -5   -9   15      0.45      0.00
    3   -9   15     -0.97      0.00
    4   -9   15      0.37      0.00
   -5   -8   15     -1.16      0.00
    4   -8   15      0.13      0.00
    5   -8   15      1.44      0.00
   -6   -7   15     -1.50      0.00
    5   -7   15     -1.91      0.00
   -6   -6   15     -0.53      0.00
    6   -6   15     -0.08      0.00
   -7   -5   15     -0.35      0.00
   -7   -4   15      1.21      0.00
    7   -4   15      0.86      0.00
   -7   -3   15     -0.30      0.00
   -8   -2   15     -0.11      0.00
   -7   -2   15     -0.65      0.00
    8   -2   15     -0.55      0.00
   -8   -1   15     -0.65      0.00
    8   -1   15      0.19      0.00
   -8    0   15      0.29      0.00
    8    0   15     -0.44      0.00
   -8    1   15      0.10      0.00
   -8    2   15     -0.80      0.00
   -8    3   15      1.09      0.00
   -8    4   15     -0.62      0.00
   -7    4   15     -0.85      0.00
   -7    5   15     -0.54      0.00
   -7    6   15      0.52      0.00
   -7    7   15     -0.71      0.00
    8    7   15     -0.54      0.00
   -7    8   15      0.17      0.00
    8    8   15      1.05      0.00
   -6    9   15      0.07      0.00
   -6   10   15     -0.45      0.00
    7   10   15      0.51      0.00
   -5   11   15      0.36      0.00
    6   11   15      1.85      0.00
    7   11   15     -0.61      0.00
    5   12   15     -0.08      0.00
    6   12   15     -0.95      0.00
    4   13   15     -1.70      0.00
    5   13   15     -0.84      0.00
   -2   14   15     -0.11      0.00
    2   14   15     -0.53      0.00
    3   14   15     -0.84      0.00
    4   14   15     -0.98      0.00
   -1   15   15     -0.43      0.00
    0   15   15     -0.16      0.00
    1   15   15     -0.43      0.00
    2   15   15     -0.08      0.00
   -3   -9   16     -0.89      0.00
   -2   -9   16     -0.60      0.00
    1   -9   16      0.52      0.00
    2   -9   16     -0.89      0.00
   -4   -8   16      0.46      0.00
    3   -8   16      0.68      0.00
   -5   -7   16      0.49      0.00
    4   -7   16     -1.65      0.00
   -5   -6   16     -0.47      0.00
    4   -6   16      1.94      0.00
    5   -6   16     -0.88      0.00
   -6   -5   16      1.13      0.00
    5   -5   16      0.94      0.00
   -6   -4   16     -0.17      0.00
    6   -4   16     -0.87      0.00
   -7   -2   16      0.68      0.00
    7   -2   16     -0.39      0.00
   -7   -1   16     -0.52      0.00
    7   -1   16      0.91      0.00
   -7    0   16     -0.55      0.00
   -7    1   16      0.96      0.00
   -7    2   16     -0.27      0.00
   -7    3   16      0.25      0.00
   -7    4   16     -0.65      0.00
   -7    5   16      0.21      0.00
   -6    6   16      1.30      0.00
   -6    7   16     -2.19      0.00
    7    7   16     -0.29      0.00
   -6    8   16      1.31      0.00
    7    8   16      0.87      0.00
    7    9   16      0.07      0.00
   -5   10   16     -0.18      0.00
    6   10   16      0.60      0.00
   -4   11   16      0.57      0.00
    5   11   16      0.74      0.00
    6   11   16      0.53      0.00
   -3   12   16     -0.64      0.00
    4   12   16     -1.79      0.00
    5   12   16     -0.50      0.00
   -2   13   16     -0.11      0.00
    2   13   16     -1.67      0.00
    3   13   16     -1.78      0.00
    4   13   16     -0.98      0.00
    0   14   16      2.22      0.00
    1   14   16      0.33      0.00
    2   14   16     -0.04      0.00
   -1   -8   17     -0.03      0.00
    0   -8   17      0.48      0.00
   -3   -7   17      1.30      0.00
    2   -7   17      0.53      0.00
   -4   -6   17      0.32      0.00
    3   -6   17      1.27      0.00
   -5   -5   17     -0.61      0.00
    4   -5   17     -0.74      0.00
   -5   -4   17      1.65      0.00
    4   -4   17     -1.56      0.00
    5   -4   17      0.38      0.00
    5   -3   17     -0.89      0.00
   -6   -2   17     -0.42      0.00
    6   -2   17      0.15      0.00
   -6   -1   17     -0.26      0.00
    6   -1   17      0.61      0.00
   -6    0   17     -0.06      0.00
   -6    1   17     -0.08      0.00
   -6    2   17      0.49      0.00
    7    2   17      0.20      0.00
   -6    3   17     -0.06      0.00
    7    3   17      1.18      0.00
   -6    4   17     -0.10      0.00
    7    4   17     -0.05      0.00
   -6    5   17     -0.35      0.00
   -5    6   17      0.09      0.00
   -5    7   17     -0.96      0.00
    6    7   17     -0.38      0.00
   -5    8   17      0.62      0.00
    6    8   17      0.17      0.00
   -4    9   17      0.68      0.00
    5    9   17      1.44      0.00
   -4   10   17     -0.57      0.00
    5   10   17     -0.66      0.00
   -3   11   17     -0.05      0.00
    4   11   17     -1.91      0.00
   -2   12   17      0.32      0.00
   -1   12   17     -0.69      0.00
    0   12   17      0.54      0.00
    1   12   17      0.17      0.00
    2   12   17      0.06      0.00
    3   12   17     -0.53      0.00
    1   13   17     -0.22      0.00
   -1   -6   18     -0.52      0.00
    0   -6   18      0.65      0.00
    1   -6   18      0.58      0.00
   -3   -5   18     -0.46      0.00
   -2   -5   18      1.69      0.00
    1   -5   18     -0.89      0.00
    2   -5   18      0.68      0.00
   -3   -4   18      0.71      0.00
    2   -4   18      0.29      0.00
    3   -4   18     -0.32      0.00
   -4   -3   18      0.33      0.00
    3   -3   18     -0.43      0.00
    4   -3   18     -0.43      0.00
   -4   -2   18      1.31      0.00
    4   -2   18     -1.04      0.00
   -5   -1   18     -0.34      0.00
    5   -1   18     -0.67      0.00
   -5    0   18     -0.03      0.00
    5    0   18     -1.53      0.00
   -5    1   18      0.06      0.00
    5    1   18     -0.19      0.00
   -5    2   18     -0.32      0.00
   -5    3   18      0.93      0.00
   -5    4   18     -0.72      0.00
   -5    5   18      0.28      0.00
   -4    6   18      0.35      0.00
    5    6   18     -0.84      0.00
   -4    7   18     -0.19      0.00
    5    7   18     -0.54      0.00
   -3    8   18      0.39      0.00
    4    8   18      0.82      0.00
    5    8   18      0.74      0.00
   -3    9   18     -0.20      0.00
    4    9   18     -0.03      0.00
   -2   10   18      0.70      0.00
   -1   10   18     -0.27      0.00
    2   10   18     -1.44      0.00
    3   10   18     -1.01      0.00
    0   11   18      0.97      0.00
    1   11   18      0.90      0.00
    2   11   18     -0.55      0.00
   -2   -3   19      1.00      0.00
   -1   -3   19     -0.06      0.00
    0   -3   19      1.18      0.00
    1   -3   19     -0.07      0.00
   -2   -2   19      0.94      0.00
    1   -2   19     -0.53      0.00
    2   -2   19      0.16      0.00
   -3   -1   19     -0.14      0.00
    2   -1   19      0.03      0.00
    3   -1   19     -0.11      0.00
   -3    0   19      1.49      0.00
    3    0   19      0.46      0.00
   -3    1   19      0.09      0.00
    3    1   19      0.69      0.00
    4    1   19     -0.55      0.00
   -3    2   19      0.24      0.00
    4    2   19     -0.05      0.00
   -3    3   19      0.21      0.00
    4    3   19     -0.46      0.00
   -3    4   19     -0.32      0.00
    4    4   19     -0.26      0.00
   -3    5   19     -0.77      0.00
    4    5   19     -0.46      0.00
   -3    6   19     -0.48      0.00
   -2    6   19     -1.25      0.00
    3    6   19      0.71      0.00
    4    6   19      0.53      0.00
   -2    7   19     -0.17      0.00
   -1    7   19      0.25      0.00
    3    7   19      0.11      0.00
   -1    8   19     -1.41      0.00
    0    8   19      1.60      0.00
    1    8   19      0.76      0.00
    2    8   19     -1.63      0.00
    0    9   19      0.14      0.00
    1    9   19     -1.27      0.00
    0    0    0      0.00      0.00
# SQUEEZE RESULTS
# Note: Data are Listed for all Voids in the P1 Unit Cell
# i.e. Centre of Gravity, Solvent Accessible Volume,
# Recovered number of Electrons in the Void and
# Details about the Squeezed Material
loop_
  _platon_squeeze_void_nr
  _platon_squeeze_void_average_x
  _platon_squeeze_void_average_y
  _platon_squeeze_void_average_z
  _platon_squeeze_void_volume
  _platon_squeeze_void_count_electrons
  _platon_squeeze_void_content
   1  0.000  0.000  0.000       101        23 ' '
   2 -0.095  0.500  0.077       510       134 ' '
   3  0.500  0.000  0.500        20         5 ' '
_platon_squeeze_void_probe_radius                  1.20
_platon_squeeze_details
(replace by semicolon in column 1 when used as .sqf)
TITL SN568 in P-1
CELL    9.7098   15.2540   15.2580     81.81     88.66     84.56
SPGR P-1
# Solvent Accessible Volume =     633.7
# Electrons Found in S.A.V. =     159.9
# Note: Atoms in Void as Cxxx and Qxxx all others
Q101 0.247 0.205 0.280 !       4.99 eA-3
C102 0.742 0.549 0.244 !       4.28 eA-3
C103 0.934 0.515 0.033 !       4.21 eA-3
Q104 0.920 0.374 0.096 !       4.10 eA-3
C105 0.913 0.499 0.126 !       3.76 eA-3
C106 0.223 0.424 0.748 !       3.75 eA-3
Q107 0.727 0.376 0.100 !       3.57 eA-3
Q108 0.114 0.378 0.090 !       3.51 eA-3
Q109 0.977 0.800 0.726 !       3.46 eA-3
Q110 0.535 0.813 0.707 !       3.45 eA-3
C111 0.675 0.514 0.308 !       3.36 eA-3
C112 0.503 0.519 0.545 !       3.29 eA-3
C113 0.400 0.494 0.580 !       3.09 eA-3
C114 0.508 0.517 0.451 !       3.01 eA-3
C115 0.786 0.040 0.096 !       2.96 eA-3
C116 0.376 0.482 0.707 !       2.86 eA-3
Q117 0.914 0.810 0.752 !       2.85 eA-3
Q118 0.448 0.675 0.002 !       2.84 eA-3
C119 0.754 0.525 0.185 !       2.84 eA-3
Q120 0.634 0.675 0.000 !       2.83 eA-3
Q121 0.440 0.343 0.969 !       2.82 eA-3
Q122 0.197 0.247 0.326 !       2.81 eA-3
C123 0.073 0.495 0.924 !       2.76 eA-3
Q124 0.667 0.813 0.721 !       2.75 eA-3
C125 0.204 0.923 0.923 !       2.73 eA-3
Q126 0.745 0.615 0.910 !       2.72 eA-3
C127 0.924 0.012 0.052 !       2.71 eA-3
C128 0.031 0.531 0.905 !       2.70 eA-3
Q129 0.536 0.388 0.092 !       2.70 eA-3
C130 0.197 0.517 0.910 !       2.65 eA-3
Q131 0.553 0.626 0.905 !       2.57 eA-3
Q132 0.499 0.768 0.669 !       2.55 eA-3
C133 0.660 0.520 0.394 !       2.54 eA-3
Q134 0.043 0.844 0.688 !       2.53 eA-3
Q135 0.230 0.816 0.706 !       2.53 eA-3
C136 0.688 0.489 0.211 !       2.52 eA-3
Q137 0.597 0.800 0.672 !       2.52 eA-3
Q138 0.424 0.808 0.717 !       2.51 eA-3
C139 0.214 0.538 0.789 !       2.44 eA-3
C140 0.202 0.481 0.766 !       2.42 eA-3
C141 0.234 0.509 0.812 !       2.42 eA-3
Q142 0.055 0.107 0.315 !       2.42 eA-3
Q143 0.675 0.746 0.782 !       2.33 eA-3
Q144 0.468 0.765 0.753 !       2.31 eA-3
Q145 0.082 0.204 0.329 !       2.29 eA-3
C146 0.259 0.504 0.718 !       2.27 eA-3
C147 0.414 0.020 0.568 !       2.22 eA-3
C148 0.127 0.509 0.049 !       2.20 eA-3
Q149 0.622 0.660 0.173 !       2.19 eA-3
C150 0.492 0.440 0.425 !       2.19 eA-3
Q151 0.836 0.858 0.675 !       2.19 eA-3
Q152 0.844 0.648 0.185 !       2.19 eA-3
Q153 0.602 0.372 0.105 !       2.15 eA-3
Q154 0.301 0.235 0.324 !       2.14 eA-3
Q155 0.290 0.123 0.283 !       2.13 eA-3
Q156 0.351 0.108 0.311 !       2.13 eA-3
Q157 0.100 0.811 0.714 !       2.13 eA-3
Q158 0.036 0.901 0.907 !       2.12 eA-3
C159 0.722 0.434 0.437 !       2.09 eA-3
Q160 0.975 0.630 0.890 !       2.08 eA-3
Q161 0.259 0.360 0.954 !       2.07 eA-3
Q162 0.373 0.520 0.912 !       2.05 eA-3
Q163 0.922 0.765 0.657 !       2.05 eA-3
Q164 0.848 0.811 0.707 !       2.01 eA-3
C165 0.355 0.609 0.909 !       2.00 eA-3
C166 0.348 0.408 0.440 !       1.99 eA-3
C167 0.755 0.422 0.209 !       1.95 eA-3
Q168 0.404 0.526 0.818 !       1.94 eA-3
Q169 0.179 0.629 0.888 !       1.94 eA-3
Q170 0.463 0.317 0.032 !       1.92 eA-3
Q171 0.577 0.439 0.985 !       1.91 eA-3
Q172 0.404 0.425 0.744 !       1.91 eA-3
Q173 0.038 0.555 0.813 !       1.88 eA-3
Q174 0.591 0.217 0.327 !       1.87 eA-3
Q175 0.376 0.597 0.499 !       1.86 eA-3
Q176 0.563 0.579 0.499 !       1.85 eA-3
C177 0.367 0.485 0.760 !       1.83 eA-3
Q178 0.238 0.670 0.018 !       1.83 eA-3
Q179 0.993 0.471 0.200 !       1.83 eA-3
Q180 0.614 0.581 0.956 !       1.83 eA-3
Q181 0.775 0.909 0.751 !       1.82 eA-3
Q182 0.637 0.436 0.094 !       1.81 eA-3
Q183 0.599 0.010 0.581 !       1.80 eA-3
C184 0.648 0.314 0.025 !       1.79 eA-3
Q185 0.106 0.345 0.809 !       1.78 eA-3
Q186 0.407 0.186 0.233 !       1.78 eA-3
Q187 0.808 0.656 0.497 !       1.78 eA-3
Q188 0.744 0.749 0.623 !       1.77 eA-3
Q189 0.540 0.529 0.036 !       1.75 eA-3
C190 0.888 0.450 0.224 !       1.75 eA-3
Q191 0.332 0.389 0.049 !       1.74 eA-3
Q192 0.308 0.749 0.674 !       1.72 eA-3
Q193 0.916 0.109 0.983 !       1.71 eA-3
C194 0.274 0.454 0.703 !       1.70 eA-3
Q195 0.989 0.231 0.345 !       1.70 eA-3
Q196 0.025 0.434 0.986 !       1.70 eA-3
Q197 1.004 0.880-0.001 !       1.69 eA-3
C198 0.210 0.432 0.990 !       1.68 eA-3
Q199 0.207 0.875 0.010 !       1.68 eA-3
(replace by semicolon in column 1 when used as .sqf)
;
_shelx_fab_checksum              51619
loop_
_space_group_symop_operation_xyz
'x, y, z'
'-x, -y, -z'
loop_
_atom_site_label
_atom_site_type_symbol
_atom_site_fract_x
_atom_site_fract_y
_atom_site_fract_z
_atom_site_U_iso_or_equiv
_atom_site_adp_type
_atom_site_occupancy
_atom_site_site_symmetry_order
_atom_site_calc_flag
_atom_site_refinement_flags_posn
_atom_site_refinement_flags_adp
Zn1 Zn 0.40218(9) 0.18927(6) 0.28303(5) 0.0232(3) Uani 1 1 d . .
Zn2 Zn 0.09011(9) 0.19968(6) 0.28732(5) 0.0236(3) Uani 1 1 d . .
F1 F 0.4632(6) 0.1053(5) 1.0287(3) 0.069(2) Uani 1 1 d . .
F2 F 0.4599(7) 0.0915(5) 0.8552(3) 0.078(2) Uani 1 1 d . .
F3 F 0.0397(6) 0.2706(5) 0.8251(3) 0.064(2) Uani 1 1 d . .
F4 F 0.0324(6) 0.2797(4) 0.9991(3) 0.0624(19) Uani 1 1 d . .
F5 F 0.0564(6) 0.1008(4) 0.7503(3) 0.0530(15) Uani 1 1 d . .
F6 F 0.0499(6) 0.1005(4) 0.5752(3) 0.0511(15) Uani 1 1 d . .
F7 F 0.4515(7) 0.2559(6) 0.5430(3) 0.079(2) Uani 1 1 d . .
F8 F 0.4511(7) 0.2573(6) 0.7180(3) 0.080(2) Uani 1 1 d . .
F9 F 0.4067(6) 0.4711(4) 0.1665(4) 0.0523(15) Uani 1 1 d . .
F10 F 0.4139(7) 0.6463(4) 0.1675(3) 0.0554(15) Uani 1 1 d . .
F11 F 0.0414(6) 0.6412(3) 0.3745(3) 0.0441(13) Uani 1 1 d . .
F12 F 0.0396(6) 0.4653(3) 0.3778(4) 0.0511(15) Uani 1 1 d . .
F13 F 0.2218(7) 0.7850(4) 0.1200(3) 0.0542(16) Uani 1 1 d . .
F14 F 0.2420(6) 0.9583(3) 0.1302(3) 0.0453(14) Uani 1 1 d . .
F15 F 0.2747(5) 0.8905(3) 0.4426(3) 0.0405(13) Uani 1 1 d . .
F16 F 0.2577(6) 0.7169(3) 0.4333(3) 0.0420(13) Uani 1 1 d . .
O1 O 0.3597(6) 0.2164(4) 1.1496(3) 0.0330(14) Uani 1 1 d . .
O2 O 0.1373(6) 0.1858(4) 1.1568(3) 0.0325(14) Uani 1 1 d . .
O3 O 0.1130(6) 0.3335(4) 0.2598(3) 0.0372(15) Uani 1 1 d . .
O4 O 0.1311(5) 0.2069(4) 0.4168(3) 0.0275(13) Uani 1 1 d . .
O5 O 0.3420(6) 0.3200(4) 0.2924(4) 0.0358(14) Uani 1 1 d . .
O6 O 0.3593(5) 0.1613(4) 0.4165(3) 0.0285(13) Uani 1 1 d . .
O7 O 0.3781(6) 1.0585(4) 0.2735(3) 0.0328(14) Uani 1 1 d . .
O8 O 0.1513(6) 1.0639(4) 0.3149(3) 0.0325(14) Uani 1 1 d . .
C7 C 0.2496(8) 0.2020(6) 1.1165(4) 0.0284(19) Uani 1 1 d . .
C8 C 0.2512(8) 0.1950(6) 1.0192(5) 0.034(2) Uani 1 1 d . .
C9 C 0.3568(9) 0.1473(6) 0.9791(4) 0.037(2) Uani 1 1 d . .
C10 C 0.3561(9) 0.1415(7) 0.8901(5) 0.040(2) Uani 1 1 d . .
C11 C 0.2526(9) 0.1849(7) 0.8361(5) 0.044(3) Uani 1 1 d . .
C12 C 0.1463(9) 0.2303(7) 0.8756(5) 0.040(2) Uani 1 1 d . .
C13 C 0.1420(10) 0.2347(7) 0.9656(5) 0.044(3) Uani 1 1 d . .
C14 C 0.2540(9) 0.1807(7) 0.7381(5) 0.039(2) Uani 1 1 d . .
C15 C 0.1540(9) 0.1407(6) 0.6989(4) 0.033(2) Uani 1 1 d . .
C16 C 0.1521(8) 0.1398(5) 0.6090(4) 0.0264(18) Uani 1 1 d . .
C17 C 0.2479(8) 0.1804(6) 0.5520(4) 0.0283(19) Uani 1 1 d . .
C18 C 0.3489(11) 0.2174(8) 0.5921(5) 0.049(3) Uani 1 1 d . .
C19 C 0.3545(10) 0.2177(8) 0.6825(5) 0.052(3) Uani 1 1 d . .
C20 C 0.2458(8) 0.1819(6) 0.4534(4) 0.0267(18) Uani 1 1 d . .
C21 C 0.2249(9) 0.3648(6) 0.2744(5) 0.033(2) Uani 1 1 d . .
C22 C 0.2218(9) 0.4622(5) 0.2724(5) 0.0297(18) Uani 1 1 d . .
C23 C 0.3150(9) 0.5110(6) 0.2199(5) 0.037(2) Uani 1 1 d . .
C24 C 0.3190(11) 0.6008(6) 0.2195(5) 0.042(2) Uani 1 1 d . .
C25 C 0.2282(10) 0.6492(6) 0.2725(5) 0.039(2) Uani 1 1 d . .
C26 C 0.1361(9) 0.6006(6) 0.3249(5) 0.037(2) Uani 1 1 d . .
C27 C 0.1297(10) 0.5100(6) 0.3229(6) 0.039(2) Uani 1 1 d . .
C28 C 0.2368(10) 0.7447(6) 0.2762(5) 0.039(2) Uani 1 1 d . .
C29 C 0.2378(11) 0.8083(6) 0.2006(5) 0.044(3) Uani 1 1 d . .
C30 C 0.2491(10) 0.8977(6) 0.2062(5) 0.036(2) Uani 1 1 d . .
C31 C 0.2609(9) 0.9275(6) 0.2861(5) 0.0293(18) Uani 1 1 d . .
C32 C 0.2617(10) 0.8657(6) 0.3618(5) 0.038(2) Uani 1 1 d . .
C33 C 0.2477(9) 0.7768(6) 0.3571(5) 0.033(2) Uani 1 1 d . .
C34 C 0.2639(9) 1.0248(6) 0.2916(5) 0.030(2) Uani 1 1 d . .
N1 N 0.6140(6) 0.1931(4) 0.2850(3) 0.0162(13) Uani 1 1 d . .
N2 N 0.8782(7) 0.1991(4) 0.2857(3) 0.0225(14) Uani 1 1 d . .
C1 C 0.6835(11) 0.1015(8) 0.3004(11) 0.082(4) Uani 1 1 d . .
H1A H 0.6567 0.0679 0.2535 0.099 Uiso 1 1 calc R U
H1B H 0.6527 0.0709 0.3581 0.099 Uiso 1 1 calc R U
C2 C 0.8424(12) 0.1027(9) 0.2999(11) 0.083(4) Uani 1 1 d . .
H2A H 0.8803 0.0719 0.3570 0.100 Uiso 1 1 calc R U
H2B H 0.8839 0.0713 0.2519 0.100 Uiso 1 1 calc R U
C3 C 0.6659(10) 0.2384(9) 0.1992(6) 0.059(3) Uani 1 1 d . .
H3A H 0.6211 0.3000 0.1878 0.070 Uiso 1 1 calc R U
H3B H 0.6415 0.2065 0.1505 0.070 Uiso 1 1 calc R U
C4 C 0.8249(11) 0.2407(10) 0.2014(6) 0.068(4) Uani 1 1 d . .
H4A H 0.8685 0.2093 0.1539 0.081 Uiso 1 1 calc R U
H4B H 0.8481 0.3032 0.1904 0.081 Uiso 1 1 calc R U
C5 C 0.6546(10) 0.2397(8) 0.3568(7) 0.056(3) Uani 1 1 d . .
H5A H 0.6219 0.2096 0.4142 0.067 Uiso 1 1 calc R U
H5B H 0.6107 0.3015 0.3481 0.067 Uiso 1 1 calc R U
C6 C 0.8124(10) 0.2405(9) 0.3581(7) 0.060(3) Uani 1 1 d . .
H6A H 0.8362 0.3027 0.3534 0.072 Uiso 1 1 calc R U
H6B H 0.8481 0.2083 0.4152 0.072 Uiso 1 1 calc R U
loop_
_atom_site_aniso_label
_atom_site_aniso_U_11
_atom_site_aniso_U_22
_atom_site_aniso_U_33
_atom_site_aniso_U_23
_atom_site_aniso_U_13
_atom_site_aniso_U_12
Zn1 0.0235(6) 0.0304(6) 0.0157(4) -0.0080(3) -0.0051(3) 0.0057(4)
Zn2 0.0239(6) 0.0313(6) 0.0164(4) -0.0100(4) -0.0050(3) 0.0052(4)
F1 0.055(4) 0.117(6) 0.026(2) -0.017(3) -0.015(2) 0.050(4)
F2 0.084(5) 0.116(6) 0.023(2) -0.019(3) 0.000(3) 0.057(4)
F3 0.053(4) 0.106(5) 0.027(2) -0.016(3) -0.019(2) 0.038(3)
F4 0.056(4) 0.096(5) 0.029(2) -0.016(3) -0.008(2) 0.038(3)
F5 0.082(4) 0.057(4) 0.022(2) -0.008(2) 0.004(2) -0.014(3)
F6 0.063(4) 0.067(4) 0.031(2) -0.019(3) -0.002(2) -0.026(3)
F7 0.070(4) 0.150(7) 0.033(3) -0.036(4) 0.012(3) -0.057(5)
F8 0.065(4) 0.159(7) 0.033(3) -0.044(4) 0.001(3) -0.051(5)
F9 0.063(4) 0.035(3) 0.062(3) -0.021(3) 0.013(3) -0.007(3)
F10 0.078(4) 0.042(3) 0.050(3) -0.015(3) 0.009(3) -0.017(3)
F11 0.055(3) 0.027(3) 0.053(3) -0.019(2) 0.000(2) 0.002(2)
F12 0.059(4) 0.034(3) 0.062(3) -0.016(3) 0.020(3) -0.003(3)
F13 0.091(5) 0.046(3) 0.030(2) -0.015(2) -0.019(3) -0.008(3)
F14 0.077(4) 0.036(3) 0.022(2) -0.001(2) -0.012(2) -0.003(3)
F15 0.062(4) 0.035(3) 0.027(2) -0.012(2) -0.012(2) 0.002(3)
F16 0.073(4) 0.027(3) 0.023(2) 0.0025(19) -0.017(2) 0.004(3)
O1 0.027(3) 0.055(4) 0.017(2) -0.009(2) -0.002(2) 0.003(3)
O2 0.024(3) 0.055(4) 0.019(2) -0.015(2) 0.000(2) 0.007(3)
O3 0.041(4) 0.042(4) 0.029(3) -0.013(3) -0.013(2) 0.007(3)
O4 0.022(3) 0.046(4) 0.016(2) -0.011(2) -0.003(2) 0.000(3)
O5 0.034(3) 0.032(3) 0.043(3) -0.013(3) -0.010(3) 0.004(3)
O6 0.026(3) 0.051(4) 0.009(2) -0.009(2) 0.0008(19) -0.001(3)
O7 0.026(3) 0.036(4) 0.038(3) -0.013(3) -0.006(2) 0.007(3)
O8 0.028(3) 0.036(3) 0.033(3) -0.008(2) -0.003(2) 0.002(3)
C7 0.034(5) 0.041(5) 0.012(3) -0.008(3) -0.011(3) -0.001(4)
C8 0.019(4) 0.059(6) 0.025(4) -0.021(4) -0.006(3) 0.009(4)
C9 0.037(5) 0.055(6) 0.015(3) -0.007(3) -0.004(3) 0.015(4)
C10 0.031(5) 0.064(6) 0.022(4) -0.015(4) 0.003(3) 0.021(4)
C11 0.039(5) 0.074(7) 0.018(4) -0.018(4) -0.011(3) 0.019(5)
C12 0.037(5) 0.055(6) 0.027(4) -0.005(4) -0.012(4) 0.014(5)
C13 0.043(5) 0.062(7) 0.023(4) -0.012(4) -0.005(4) 0.019(5)
C14 0.038(5) 0.064(6) 0.017(3) -0.018(4) -0.009(3) 0.015(5)
C15 0.035(5) 0.047(5) 0.015(3) -0.003(3) 0.005(3) 0.008(4)
C16 0.035(5) 0.032(5) 0.015(3) -0.007(3) 0.000(3) -0.015(4)
C17 0.025(4) 0.044(5) 0.017(3) -0.010(3) -0.005(3) -0.001(4)
C18 0.049(6) 0.081(8) 0.022(4) -0.014(4) 0.014(4) -0.024(6)
C19 0.045(6) 0.095(9) 0.027(4) -0.031(5) 0.000(4) -0.025(6)
C20 0.028(4) 0.040(5) 0.014(3) -0.009(3) -0.007(3) -0.003(4)
C21 0.035(5) 0.029(5) 0.035(4) -0.013(3) -0.008(4) 0.008(4)
C22 0.033(5) 0.022(4) 0.036(4) -0.009(3) 0.007(3) -0.009(4)
C23 0.036(5) 0.038(5) 0.038(4) -0.015(4) -0.010(4) 0.005(4)
C24 0.057(6) 0.040(6) 0.033(4) -0.010(4) 0.002(4) -0.011(5)
C25 0.052(6) 0.037(5) 0.027(4) -0.007(4) -0.014(4) 0.007(5)
C26 0.043(5) 0.033(5) 0.033(4) -0.011(4) -0.008(4) 0.009(4)
C27 0.045(6) 0.030(5) 0.043(5) -0.006(4) 0.005(4) -0.007(4)
C28 0.063(7) 0.025(5) 0.031(4) -0.008(3) -0.011(4) 0.000(4)
C29 0.075(7) 0.038(6) 0.021(4) -0.009(4) -0.014(4) 0.000(5)
C30 0.052(6) 0.031(5) 0.029(4) -0.009(4) -0.013(4) -0.004(4)
C31 0.034(5) 0.028(5) 0.027(4) -0.010(3) -0.007(3) 0.001(4)
C32 0.058(6) 0.031(5) 0.024(4) -0.006(3) -0.013(4) 0.007(4)
C33 0.044(5) 0.029(5) 0.025(4) -0.004(3) -0.008(3) 0.001(4)
C34 0.034(5) 0.031(5) 0.026(4) -0.006(3) -0.013(3) 0.011(4)
N1 0.011(3) 0.025(3) 0.012(2) -0.002(2) -0.003(2) 0.006(2)
N2 0.036(4) 0.018(3) 0.014(2) -0.010(2) -0.010(2) 0.008(3)
C1 0.038(7) 0.046(7) 0.168(14) -0.035(8) -0.023(7) 0.008(6)
C2 0.036(7) 0.057(8) 0.159(13) -0.034(8) -0.014(7) 0.017(6)
C3 0.040(6) 0.097(9) 0.032(4) 0.013(5) -0.021(4) 0.001(6)
C4 0.040(6) 0.116(11) 0.039(5) 0.027(6) -0.005(4) -0.020(7)
C5 0.034(5) 0.088(9) 0.055(6) -0.052(6) -0.008(4) 0.012(5)
C6 0.042(6) 0.097(9) 0.056(6) -0.055(6) -0.003(5) -0.009(6)
loop_
_atom_type_symbol
_atom_type_description
_atom_type_scat_dispersion_real
_atom_type_scat_dispersion_imag
_atom_type_scat_source
C C 0.0070 0.0030 'International Tables Vol C Tables 4.2.6.8 and 6.1.1.4'
H H 0.0000 0.0000 'International Tables Vol C Tables 4.2.6.8 and 6.1.1.4'
N N 0.0130 0.0070 'International Tables Vol C Tables 4.2.6.8 and 6.1.1.4'
O O 0.0210 0.0120 'International Tables Vol C Tables 4.2.6.8 and 6.1.1.4'
F F 0.0330 0.0200 'International Tables Vol C Tables 4.2.6.8 and 6.1.1.4'
Zn Zn -0.2060 2.5020 'International Tables Vol C Tables 4.2.6.8 and 6.1.1.4'
loop_
_geom_angle_atom_site_label_1
_geom_angle_atom_site_label_2
_geom_angle_atom_site_label_3
_geom_angle
_geom_angle_site_symmetry_1
_geom_angle_site_symmetry_3
_geom_angle_publ_flag
O1 Zn1 Zn2 79.26(16) 1_554 . ?
O1 Zn1 O6 156.8(2) 1_554 . yes
O1 Zn1 N1 102.5(2) 1_554 . yes
O5 Zn1 Zn2 75.70(17) . . ?
O5 Zn1 O1 88.3(2) . 1_554 yes
O5 Zn1 O6 87.7(2) . . yes
O5 Zn1 O7 157.0(2) . 1_545 yes
O5 Zn1 N1 99.3(2) . . yes
O6 Zn1 Zn2 77.56(15) . . ?
O6 Zn1 N1 100.7(2) . . yes
O7 Zn1 Zn2 81.27(16) 1_545 . ?
O7 Zn1 O1 87.0(2) 1_545 1_554 yes
O7 Zn1 O6 87.8(2) 1_545 . yes
O7 Zn1 N1 103.8(2) 1_545 . yes
N1 Zn1 Zn2 174.67(16) . . ?
O2 Zn2 Zn1 77.14(15) 1_554 . ?
O2 Zn2 O8 85.7(2) 1_554 1_545 yes
O3 Zn2 Zn1 81.48(17) . . ?
O3 Zn2 O2 89.9(2) . 1_554 yes
O3 Zn2 O8 157.4(2) . 1_545 yes
O3 Zn2 N2 101.6(2) . 1_455 yes
O4 Zn2 Zn1 78.99(15) . . ?
O4 Zn2 O2 156.1(2) . 1_554 yes
O4 Zn2 O3 88.1(2) . . yes
O4 Zn2 O8 87.0(2) . 1_545 yes
O4 Zn2 N2 103.6(2) . 1_455 yes
O8 Zn2 Zn1 75.88(16) 1_545 . ?
N2 Zn2 Zn1 176.00(15) 1_455 . ?
N2 Zn2 O2 100.2(2) 1_455 1_554 yes
N2 Zn2 O8 101.1(2) 1_455 1_545 yes
C7 O1 Zn1 124.1(5) . 1_556 ?
C7 O2 Zn2 126.3(5) . 1_556 ?
C21 O3 Zn2 121.8(5) . . ?
C20 O4 Zn2 124.6(4) . . ?
C21 O5 Zn1 129.5(6) . . ?
C20 O6 Zn1 125.4(5) . . ?
C34 O7 Zn1 122.3(5) . 1_565 ?
C34 O8 Zn2 126.3(6) . 1_565 ?
O1 C7 O2 127.2(6) . . ?
O1 C7 C8 117.4(7) . . ?
O2 C7 C8 115.2(6) . . ?
C9 C8 C7 122.5(7) . . ?
C9 C8 C13 116.7(7) . . ?
C13 C8 C7 120.7(7) . . ?
F1 C9 C8 119.1(6) . . ?
F1 C9 C10 119.2(7) . . ?
C10 C9 C8 121.7(7) . . ?
F2 C10 C9 119.0(7) . . ?
F2 C10 C11 119.3(7) . . ?
C9 C10 C11 121.7(7) . . ?
C10 C11 C14 121.7(7) . . ?
C12 C11 C10 116.9(7) . . ?
C12 C11 C14 121.4(7) . . ?
F3 C12 C11 118.6(7) . . ?
F3 C12 C13 118.8(7) . . ?
C11 C12 C13 122.6(7) . . ?
F4 C13 C8 121.1(7) . . ?
F4 C13 C12 118.6(7) . . ?
C12 C13 C8 120.2(7) . . ?
C15 C14 C11 121.6(9) . . ?
C15 C14 C19 116.7(7) . . ?
C19 C14 C11 121.6(8) . . ?
F5 C15 C14 119.3(6) . . ?
F5 C15 C16 119.0(8) . . ?
C16 C15 C14 121.7(8) . . ?
F6 C16 C15 118.4(7) . . ?
F6 C16 C17 119.3(6) . . ?
C15 C16 C17 122.2(7) . . ?
C16 C17 C20 123.1(7) . . ?
C18 C17 C16 115.3(6) . . ?
C18 C17 C20 121.6(7) . . ?
F7 C18 C17 120.4(7) . . ?
F7 C18 C19 116.2(8) . . ?
C17 C18 C19 123.4(9) . . ?
F8 C19 C14 118.1(7) . . ?
F8 C19 C18 121.3(9) . . ?
C18 C19 C14 120.5(8) . . ?
O4 C20 C17 115.9(6) . . ?
O6 C20 O4 127.5(6) . . ?
O6 C20 C17 116.6(6) . . ?
O3 C21 O5 126.3(8) . . ?
O3 C21 C22 117.6(7) . . ?
O5 C21 C22 116.1(8) . . ?
C23 C22 C21 120.9(7) . . ?
C27 C22 C21 123.0(8) . . ?
C27 C22 C23 116.1(8) . . ?
F9 C23 C22 120.8(8) . . ?
F9 C23 C24 116.9(9) . . ?
C24 C23 C22 122.4(8) . . ?
F10 C24 C25 117.8(8) . . ?
C23 C24 F10 120.5(8) . . ?
C23 C24 C25 121.7(9) . . ?
C24 C25 C28 122.1(9) . . ?
C26 C25 C24 115.9(8) . . ?
C26 C25 C28 121.8(8) . . ?
F11 C26 C25 120.5(8) . . ?
F11 C26 C27 117.3(8) . . ?
C25 C26 C27 122.0(8) . . ?
F12 C27 C22 118.7(8) . . ?
F12 C27 C26 119.3(8) . . ?
C22 C27 C26 121.7(8) . . ?
C29 C28 C25 123.0(7) . . ?
C29 C28 C33 115.7(8) . . ?
C33 C28 C25 121.3(8) . . ?
F13 C29 C28 120.3(8) . . ?
F13 C29 C30 117.9(7) . . ?
C30 C29 C28 121.7(7) . . ?
F14 C30 C29 119.4(6) . . ?
C31 C30 F14 119.0(7) . . ?
C31 C30 C29 121.6(8) . . ?
C30 C31 C32 117.8(8) . . ?
C30 C31 C34 121.1(7) . . ?
C32 C31 C34 121.0(7) . . ?
F15 C32 C31 120.9(8) . . ?
F15 C32 C33 118.1(7) . . ?
C31 C32 C33 121.0(7) . . ?
F16 C33 C28 118.7(7) . . ?
F16 C33 C32 118.9(6) . . ?
C32 C33 C28 122.1(7) . . ?
O7 C34 C31 117.4(7) . . ?
O8 C34 O7 127.3(8) . . ?
O8 C34 C31 115.3(8) . . ?
C1 N1 Zn1 110.1(6) . . ?
C1 N1 C3 108.2(8) . . ?
C3 N1 Zn1 111.0(4) . . ?
C5 N1 Zn1 111.1(5) . . ?
C5 N1 C1 107.5(8) . . ?
C5 N1 C3 108.8(8) . . ?
C2 N2 Zn2 108.7(5) . 1_655 ?
C4 N2 Zn2 110.4(5) . 1_655 ?
C4 N2 C2 108.1(9) . . ?
C4 N2 C6 111.6(8) . . ?
C6 N2 Zn2 111.6(5) . 1_655 ?
C6 N2 C2 106.3(9) . . ?
N1 C1 H1A 109.4 . . ?
N1 C1 H1B 109.4 . . ?
N1 C1 C2 111.0(10) . . ?
H1A C1 H1B 108.0 . . ?
C2 C1 H1A 109.4 . . ?
C2 C1 H1B 109.4 . . ?
N2 C2 C1 109.1(8) . . ?
N2 C2 H2A 109.9 . . ?
N2 C2 H2B 109.9 . . ?
C1 C2 H2A 109.9 . . ?
C1 C2 H2B 109.9 . . ?
H2A C2 H2B 108.3 . . ?
N1 C3 H3A 109.5 . . ?
N1 C3 H3B 109.5 . . ?
N1 C3 C4 110.6(6) . . ?
H3A C3 H3B 108.1 . . ?
C4 C3 H3A 109.5 . . ?
C4 C3 H3B 109.5 . . ?
N2 C4 C3 110.5(7) . . ?
N2 C4 H4A 109.5 . . ?
N2 C4 H4B 109.5 . . ?
C3 C4 H4A 109.5 . . ?
C3 C4 H4B 109.5 . . ?
H4A C4 H4B 108.1 . . ?
N1 C5 H5A 109.6 . . ?
N1 C5 H5B 109.6 . . ?
N1 C5 C6 110.3(6) . . ?
H5A C5 H5B 108.1 . . ?
C6 C5 H5A 109.6 . . ?
C6 C5 H5B 109.6 . . ?
N2 C6 C5 111.4(7) . . ?
N2 C6 H6A 109.4 . . ?
N2 C6 H6B 109.4 . . ?
C5 C6 H6A 109.4 . . ?
C5 C6 H6B 109.4 . . ?
H6A C6 H6B 108.0 . . ?
loop_
_geom_bond_atom_site_label_1
_geom_bond_atom_site_label_2
_geom_bond_distance
_geom_bond_site_symmetry_2
_geom_bond_publ_flag
Zn1 Zn2 3.0189(14) . ?
Zn1 O1 2.061(5) 1_554 yes
Zn1 O5 2.048(6) . yes
Zn1 O6 2.062(4) . yes
Zn1 O7 2.056(6) 1_545 yes
Zn1 N1 2.064(6) . yes
Zn2 O2 2.069(5) 1_554 ?
Zn2 O3 2.056(6) . yes
Zn2 O4 2.044(4) . yes
Zn2 O8 2.085(6) 1_545 yes
Zn2 N2 2.059(6) 1_455 yes
F1 C9 1.351(9) . ?
F2 C10 1.351(9) . ?
F3 C12 1.351(9) . ?
F4 C13 1.342(9) . ?
F5 C15 1.349(10) . ?
F6 C16 1.355(9) . ?
F7 C18 1.359(11) . ?
F8 C19 1.328(11) . ?
F9 C23 1.354(9) . ?
F10 C24 1.375(11) . ?
F11 C26 1.340(9) . ?
F12 C27 1.359(10) . ?
F13 C29 1.344(8) . ?
F14 C30 1.375(9) . ?
F15 C32 1.351(8) . ?
F16 C33 1.372(9) . ?
O1 Zn1 2.062(5) 1_556 ?
O1 C7 1.244(9) . ?
O2 Zn2 2.069(5) 1_556 ?
O2 C7 1.266(10) . ?
O3 C21 1.265(10) . ?
O4 C20 1.259(9) . ?
O5 C21 1.284(9) . ?
O6 C20 1.259(9) . ?
O7 Zn1 2.056(6) 1_565 ?
O7 C34 1.274(11) . ?
O8 Zn2 2.085(6) 1_565 ?
O8 C34 1.264(9) . ?
C7 C8 1.502(9) . ?
C8 C9 1.383(10) . ?
C8 C13 1.393(11) . ?
C9 C10 1.373(10) . ?
C10 C11 1.374(11) . ?
C11 C12 1.364(11) . ?
C11 C14 1.505(10) . ?
C12 C13 1.384(11) . ?
C14 C15 1.385(12) . ?
C14 C19 1.386(14) . ?
C15 C16 1.374(9) . ?
C16 C17 1.387(11) . ?
C17 C18 1.374(12) . ?
C17 C20 1.502(9) . ?
C18 C19 1.382(11) . ?
C21 C22 1.479(12) . ?
C22 C23 1.392(12) . ?
C22 C27 1.389(11) . ?
C23 C24 1.373(13) . ?
C24 C25 1.410(12) . ?
C25 C26 1.382(13) . ?
C25 C28 1.477(13) . ?
C26 C27 1.395(13) . ?
C28 C29 1.398(12) . ?
C28 C33 1.399(11) . ?
C29 C30 1.393(12) . ?
C30 C31 1.371(10) . ?
C31 C32 1.383(11) . ?
C31 C34 1.501(12) . ?
C32 C33 1.389(12) . ?
N1 C1 1.482(13) . ?
N1 C3 1.491(11) . ?
N1 C5 1.467(10) . ?
N2 Zn2 2.059(6) 1_655 ?
N2 C2 1.527(15) . ?
N2 C4 1.436(10) . ?
N2 C6 1.455(10) . ?
C1 H1A 0.9900 . ?
C1 H1B 0.9900 . ?
C1 C2 1.545(16) . ?
C2 H2A 0.9900 . ?
C2 H2B 0.9900 . ?
C3 H3A 0.9900 . ?
C3 H3B 0.9900 . ?
C3 C4 1.548(14) . ?
C4 H4A 0.9900 . ?
C4 H4B 0.9900 . ?
C5 H5A 0.9900 . ?
C5 H5B 0.9900 . ?
C5 C6 1.534(13) . ?
C6 H6A 0.9900 . ?
C6 H6B 0.9900 . ?
loop_
_geom_torsion_atom_site_label_1
_geom_torsion_atom_site_label_2
_geom_torsion_atom_site_label_3
_geom_torsion_atom_site_label_4
_geom_torsion
_geom_torsion_site_symmetry_1
Zn1 O1 C7 O2 14.9(12) 1_556
Zn1 O1 C7 C8 -159.5(6) 1_556
Zn2 O2 C7 O1 11.5(12) 1_556
Zn2 O2 C7 C8 -174.1(5) 1_556
O1 C7 C8 C9 44.1(13) .
O2 C7 C8 C9 -130.9(10) .
O1 C7 C8 C13 -138.0(10) .
O2 C7 C8 C13 47.0(13) .
C13 C8 C9 F1 -178.1(9) .
C7 C8 C9 F1 -0.2(15) .
C13 C8 C9 C10 1.8(15) .
C7 C8 C9 C10 179.8(9) .
F1 C9 C10 F2 2.0(15) .
C8 C9 C10 F2 -177.9(10) .
F1 C9 C10 C11 -178.1(10) .
C8 C9 C10 C11 1.9(17) .
F2 C10 C11 C12 176.4(10) .
C9 C10 C11 C12 -3.4(17) .
F2 C10 C11 C14 -2.0(16) .
C9 C10 C11 C14 178.2(10) .
C10 C11 C12 F3 -177.2(10) .
C14 C11 C12 F3 1.2(16) .
C10 C11 C12 C13 1.2(17) .
C14 C11 C12 C13 179.6(10) .
F3 C12 C13 F4 -0.6(15) .
C11 C12 C13 F4 -178.9(10) .
F3 C12 C13 C8 -179.1(10) .
C11 C12 C13 C8 2.6(17) .
C9 C8 C13 F4 177.6(10) .
C7 C8 C13 F4 -0.4(15) .
C9 C8 C13 C12 -4.0(15) .
C7 C8 C13 C12 178.0(9) .
C12 C11 C14 C15 -63.1(14) .
C10 C11 C14 C15 115.2(11) .
C12 C11 C14 C19 116.0(12) .
C10 C11 C14 C19 -65.7(15) .
C19 C14 C15 F5 177.7(8) .
C11 C14 C15 F5 -3.2(12) .
C19 C14 C15 C16 -1.7(13) .
C11 C14 C15 C16 177.4(8) .
F5 C15 C16 F6 1.5(11) .
C14 C15 C16 F6 -179.1(8) .
F5 C15 C16 C17 179.2(7) .
C14 C15 C16 C17 -1.4(13) .
F6 C16 C17 C18 -179.1(8) .
C15 C16 C17 C18 3.2(12) .
F6 C16 C17 C20 -1.0(12) .
C15 C16 C17 C20 -178.7(8) .
C16 C17 C18 F7 177.4(9) .
C20 C17 C18 F7 -0.7(14) .
C16 C17 C18 C19 -2.1(15) .
C20 C17 C18 C19 179.8(9) .
F7 C18 C19 F8 3.2(16) .
C17 C18 C19 F8 -177.4(10) .
F7 C18 C19 C14 179.5(10) .
C17 C18 C19 C14 -1.0(17) .
C15 C14 C19 F8 179.4(10) .
C11 C14 C19 F8 0.2(15) .
C15 C14 C19 C18 2.9(15) .
C11 C14 C19 C18 -176.3(10) .
Zn1 O6 C20 O4 14.7(13) .
Zn1 O6 C20 C17 -162.3(5) .
Zn2 O4 C20 O6 11.7(13) .
Zn2 O4 C20 C17 -171.3(5) .
C18 C17 C20 O6 45.3(12) .
C16 C17 C20 O6 -132.6(9) .
C18 C17 C20 O4 -132.0(9) .
C16 C17 C20 O4 50.0(11) .
Zn2 O3 C21 O5 12.7(11) .
Zn2 O3 C21 C22 -166.1(5) .
Zn1 O5 C21 O3 12.1(12) .
Zn1 O5 C21 C22 -169.1(5) .
O3 C21 C22 C27 53.9(11) .
O5 C21 C22 C27 -125.0(9) .
O3 C21 C22 C23 -127.4(9) .
O5 C21 C22 C23 53.7(10) .
C27 C22 C23 F9 -178.3(8) .
C21 C22 C23 F9 2.9(12) .
C27 C22 C23 C24 1.8(12) .
C21 C22 C23 C24 -177.0(8) .
F9 C23 C24 F10 -0.8(12) .
C22 C23 C24 F10 179.1(8) .
F9 C23 C24 C25 179.9(8) .
C22 C23 C24 C25 -0.2(13) .
C23 C24 C25 C26 0.4(12) .
F10 C24 C25 C26 -178.9(7) .
C23 C24 C25 C28 176.5(8) .
F10 C24 C25 C28 -2.8(12) .
C24 C25 C26 F11 -177.0(7) .
C28 C25 C26 F11 6.9(12) .
C24 C25 C26 C27 -2.5(12) .
C28 C25 C26 C27 -178.6(8) .
C23 C22 C27 F12 -177.7(8) .
C21 C22 C27 F12 1.1(13) .
C23 C22 C27 C26 -3.8(13) .
C21 C22 C27 C26 175.0(8) .
F11 C26 C27 F12 -7.1(12) .
C25 C26 C27 F12 178.2(8) .
F11 C26 C27 C22 179.0(8) .
C25 C26 C27 C22 4.3(13) .
C26 C25 C28 C29 -132.0(10) .
C24 C25 C28 C29 52.1(14) .
C26 C25 C28 C33 49.5(13) .
C24 C25 C28 C33 -126.4(10) .
C33 C28 C29 F13 -177.1(9) .
C25 C28 C29 F13 4.3(16) .
C33 C28 C29 C30 0.1(15) .
C25 C28 C29 C30 -178.5(9) .
F13 C29 C30 C31 177.8(9) .
C28 C29 C30 C31 0.6(16) .
F13 C29 C30 F14 0.7(14) .
C28 C29 C30 F14 -176.5(9) .
F14 C30 C31 C32 177.2(8) .
C29 C30 C31 C32 0.2(14) .
F14 C30 C31 C34 1.0(13) .
C29 C30 C31 C34 -176.1(9) .
C30 C31 C32 F15 179.3(8) .
C34 C31 C32 F15 -4.5(13) .
C30 C31 C32 C33 -1.5(14) .
C34 C31 C32 C33 174.7(8) .
F15 C32 C33 F16 -4.7(13) .
C31 C32 C33 F16 176.0(8) .
F15 C32 C33 C28 -178.5(8) .
C31 C32 C33 C28 2.2(14) .
C29 C28 C33 F16 -175.2(9) .
C25 C28 C33 F16 3.4(14) .
C29 C28 C33 C32 -1.4(14) .
C25 C28 C33 C32 177.2(9) .
Zn2 O8 C34 O7 24.7(10) 1_565
Zn2 O8 C34 C31 -156.0(5) 1_565
Zn1 O7 C34 O8 1.9(10) 1_565
Zn1 O7 C34 C31 -177.3(4) 1_565
C30 C31 C34 O8 100.8(9) .
C32 C31 C34 O8 -75.3(10) .
C30 C31 C34 O7 -79.8(10) .
C32 C31 C34 O7 104.1(9) .
C5 N1 C1 C2 -60.2(13) .
C3 N1 C1 C2 57.2(13) .
Zn1 N1 C1 C2 178.7(9) .
C4 N2 C2 C1 -61.1(13) .
C6 N2 C2 C1 58.9(13) .
Zn2 N2 C2 C1 179.1(9) 1_655
N1 C1 C2 N2 1.3(16) .
C5 N1 C3 C4 57.6(11) .
C1 N1 C3 C4 -59.0(11) .
Zn1 N1 C3 C4 -179.8(8) .
C6 N2 C4 C3 -56.6(12) .
C2 N2 C4 C3 60.0(12) .
Zn2 N2 C4 C3 178.7(8) 1_655
N1 C3 C4 N2 -0.5(14) .
C1 N1 C5 C6 58.6(12) .
C3 N1 C5 C6 -58.4(11) .
Zn1 N1 C5 C6 179.1(8) .
C4 N2 C6 C5 56.1(12) .
C2 N2 C6 C5 -61.6(11) .
Zn2 N2 C6 C5 -179.9(8) 1_655
N1 C5 C6 N2 2.8(14) .
