#------------------------------------------------------------------------------
#$Date: 2019-11-17 12:25:21 +0200 (Sun, 17 Nov 2019) $
#$Revision: 229860 $
#$URL: file:///home/coder/svn-repositories/cod/cif/7/04/57/7045769.cif $
#------------------------------------------------------------------------------
#
# This file is available in the Crystallography Open Database (COD),
# http://www.crystallography.net/
#
# All data on this site have been placed in the public domain by the
# contributors.
#
data_7045769
loop_
_publ_author_name
'Liu, Min'
'Yang, Xu-Feng'
'Zhu, Hai-Bin'
'Di, Bao-Sheng'
'Zhao, Yue'
_publ_section_title
;
 A robust polyoxometalate-templated four-fold interpenetrating
 metal-organic framework showing efficient organic dye photodegradation in
 various pH aqueous solutions.
;
_journal_issue                   15
_journal_name_full
'Dalton transactions (Cambridge, England : 2003)'
_journal_page_first              5245
_journal_page_last               5251
_journal_paper_doi               10.1039/C8DT00366A
_journal_volume                  47
_journal_year                    2018
_chemical_formula_sum            'C156 H168 Cd4 Mo36 N48 O132 P3'
_chemical_formula_weight         8823.72
_space_group_crystal_system      cubic
_space_group_IT_number           220
_space_group_name_Hall           'I -4bd 2c 3'
_space_group_name_H-M_alt        'I -4 3 d'
_symmetry_space_group_name_Hall  'I -4bd 2c 3'
_symmetry_space_group_name_H-M   'I -4 3 d'
_atom_sites_solution_hydrogens   mixed
_audit_creation_method           SHELXL-2016/6
_audit_update_record
;
2018-02-26 deposited with the CCDC.
2018-03-05 downloaded from the CCDC.
;
_cell_angle_alpha                90
_cell_angle_beta                 90
_cell_angle_gamma                90
_cell_formula_units_Z            4
_cell_length_a                   30.1254(9)
_cell_length_b                   30.1254(9)
_cell_length_c                   30.1254(9)
_cell_measurement_reflns_used    9974
_cell_measurement_temperature    296(2)
_cell_measurement_theta_max      27.59
_cell_measurement_theta_min      2.36
_cell_volume                     27340.0(14)
_computing_structure_refinement  'SHELXL-2016/6 (Sheldrick, 2016)'
_diffrn_ambient_temperature      296(2)
_diffrn_measured_fraction_theta_full 0.995
_diffrn_measured_fraction_theta_max 0.995
_diffrn_measurement_device_type  'Bruker APEX-II CCD'
_diffrn_measurement_method       '\f and \w scans'
_diffrn_radiation_type           MoK\a
_diffrn_radiation_wavelength     0.71073
_diffrn_reflns_av_R_equivalents  0.0993
_diffrn_reflns_av_unetI/netI     0.0313
_diffrn_reflns_Laue_measured_fraction_full 0.995
_diffrn_reflns_Laue_measured_fraction_max 0.995
_diffrn_reflns_limit_h_max       35
_diffrn_reflns_limit_h_min       -35
_diffrn_reflns_limit_k_max       35
_diffrn_reflns_limit_k_min       -31
_diffrn_reflns_limit_l_max       35
_diffrn_reflns_limit_l_min       -35
_diffrn_reflns_number            97109
_diffrn_reflns_point_group_measured_fraction_full 0.997
_diffrn_reflns_point_group_measured_fraction_max 0.997
_diffrn_reflns_theta_full        25.005
_diffrn_reflns_theta_max         25.005
_diffrn_reflns_theta_min         1.656
_exptl_absorpt_coefficient_mu    2.006
_exptl_absorpt_correction_T_max  0.667
_exptl_absorpt_correction_T_min  0.604
_exptl_absorpt_correction_type   multi-scan
_exptl_absorpt_process_details   SADABS
_exptl_crystal_colour            'dark green'
_exptl_crystal_density_diffrn    2.144
_exptl_crystal_description       block
_exptl_crystal_F_000             16980
_exptl_crystal_size_max          0.280
_exptl_crystal_size_mid          0.260
_exptl_crystal_size_min          0.220
_refine_diff_density_max         1.040
_refine_diff_density_min         -0.532
_refine_diff_density_rms         0.118
_refine_ls_abs_structure_details
;
 Flack x determined using 1375 quotients [(I+)-(I-)]/[(I+)+(I-)]
 (Parsons, Flack and Wagner, Acta Cryst. B69 (2013) 249-259).
;
_refine_ls_abs_structure_Flack   0.05(3)
_refine_ls_extinction_method     none
_refine_ls_goodness_of_fit_ref   1.238
_refine_ls_hydrogen_treatment    constr
_refine_ls_matrix_type           full
_refine_ls_number_parameters     273
_refine_ls_number_reflns         4005
_refine_ls_number_restraints     66
_refine_ls_restrained_S_all      1.242
_refine_ls_R_factor_all          0.0703
_refine_ls_R_factor_gt           0.0508
_refine_ls_shift/su_max          0.001
_refine_ls_shift/su_mean         0.000
_refine_ls_structure_factor_coef Fsqd
_refine_ls_weighting_details
'w=1/[\s^2^(Fo^2^)+(0.0944P)^2^+51.9583P] where P=(Fo^2^+2Fc^2^)/3'
_refine_ls_weighting_scheme      calc
_refine_ls_wR_factor_gt          0.1440
_refine_ls_wR_factor_ref         0.1708
_reflns_Friedel_coverage         0.885
_reflns_Friedel_fraction_full    0.998
_reflns_Friedel_fraction_max     0.998
_reflns_number_gt                3284
_reflns_number_total             4005
_reflns_threshold_expression     'I > 2\s(I)'
_cod_data_source_file            c8dt00366a2.cif
_cod_data_source_block           1_sq
_cod_depositor_comments          'Adding full bibliography for 7045769.cif.'
_cod_original_cell_volume        27340(2)
_cod_database_code               7045769
_shelx_shelxl_version_number     2016/6
_shelx_space_group_comment
;
The symmetry employed for this shelxl refinement is uniquely defined
by the following loop, which should always be used as a source of
symmetry information in preference to the above space-group names.
They are only intended as comments.
;
_shelx_res_file
;
TITL 1 in I-43d
    1_sq.res
    created by SHELXL-2016/6 at 19:50:35 on 24-Feb-2018
CELL 0.71073  30.1254  30.1254  30.1254  90.000  90.000  90.000
ZERR  4.00   0.0009   0.0009   0.0009   0.000   0.000   0.000
LATT -2
SYMM 0.5-X, -Y, 0.5+Z
SYMM -X, 0.5+Y, 0.5-Z
SYMM 0.5+X, 0.5-Y, -Z
SYMM Z, X, Y
SYMM 0.5+Z, 0.5-X, -Y
SYMM 0.5-Z, -X, 0.5+Y
SYMM -Z, 0.5+X, 0.5-Y
SYMM Y, Z, X
SYMM -Y, 0.5+Z, 0.5-X
SYMM 0.5+Y, 0.5-Z, -X
SYMM 0.5-Y, -Z, 0.5+X
SYMM 0.25+Y, 0.25+X, 0.25+Z
SYMM 0.25-Y, 0.75-X, 0.75+Z
SYMM 0.75+Y, 0.25-X, 0.75-Z
SYMM 0.75-Y, 0.75+X, 0.25-Z
SYMM 0.25+X, 0.25+Z, 0.25+Y
SYMM 0.75-X, 0.75+Z, 0.25-Y
SYMM 0.25-X, 0.75-Z, 0.75+Y
SYMM 0.75+X, 0.25-Z, 0.75-Y
SYMM 0.25+Z, 0.25+Y, 0.25+X
SYMM 0.75+Z, 0.25-Y, 0.75-X
SYMM 0.75-Z, 0.75+Y, 0.25-X
SYMM 0.25-Z, 0.75-Y, 0.75+X
SFAC C  H  N  O  P  Mo Cd
UNIT 624 672 192 528 12 144 16
omit     0   0   8
omit     0   1   7
omit     0   0   4
omit     0   6  10
omit     0   8   8
omit    -1   4   5
omit     1   2   7
omit    0   2   2
omit     1   4   5
omit    -1   2   7
omit     2   4   8
omit    -2   4   8
omit     0   3   5
omit -3 50.02
L.S. 100
ACTA
BOND $H
FMAP 2
PLAN 20
dfix 2.1 .01 h12b h13b
dang 2.3 .01 c12 c13
dfix 1.40 .01 c13 n4
dfix 1.49 .01 c12 n4
flat .01 c11 c12 c13 n4 o1
simu .02 .03 3.8 c11 o1 n4 c12 c13
size .28 .26 .22
ABIN
TEMP 23.000
WGHT    0.094400   51.958302
FVAR       0.01614
C1    1    0.005271    0.141985    0.083090    11.00000    0.04598    0.07059 =
         0.06139    0.00201    0.00185   -0.00066
AFIX  43
H1    2    0.011147    0.156307    0.056381    11.00000   -1.20000
AFIX   0
C2    1   -0.016440    0.128193    0.148122    11.00000    0.07130    0.08629 =
         0.06068    0.01202    0.01946    0.01994
AFIX  43
H2    2   -0.029953    0.131108    0.175724    11.00000   -1.20000
AFIX   0
C3    1   -0.040043    0.202890    0.118455    11.00000    0.04530    0.04876 =
         0.05845   -0.01039   -0.00773    0.00241
C4    1   -0.043461    0.222699    0.158200    11.00000    0.10838    0.10514 =
         0.03920    0.00311   -0.01083    0.03745
AFIX  43
H4    2   -0.029163    0.210464    0.182672    11.00000   -1.20000
AFIX   0
C5    1   -0.067776    0.260709    0.163037    11.00000    0.12436    0.07794 =
         0.03395    0.00179    0.02889    0.03607
AFIX  43
H5    2   -0.072986    0.272394    0.191132    11.00000   -1.20000
AFIX   0
C6    1   -0.084611    0.281695    0.125658    11.00000    0.04867    0.05392 =
         0.05604    0.00444    0.00296    0.00352
C7    1   -0.079263    0.262198    0.084807    11.00000    0.08081    0.07119 =
         0.04881   -0.00306   -0.01749   -0.00181
AFIX  43
H7    2   -0.090485    0.275869    0.059506    11.00000   -1.20000
AFIX   0
C8    1   -0.056310    0.220693    0.081354    11.00000    0.06670    0.06115 =
         0.04028   -0.00993   -0.00957    0.00049
AFIX  43
H8    2   -0.052868    0.206617    0.054095    11.00000   -1.20000
AFIX   0
C9    1   -0.111679    0.323068    0.132480    11.00000    0.05000    0.05513 =
         0.05155    0.01664    0.00245   -0.00397
C10   1   -0.104138    0.351401    0.168406    11.00000    0.05125    0.05037 =
         0.06267   -0.00474    0.01101    0.00176
AFIX  43
H10   2   -0.080167    0.346076    0.187116    11.00000   -1.20000
AFIX   0
C11   1    0.067058   -0.036832   -0.009776    11.00000    0.23388    0.11280 =
         0.20406   -0.03471    0.06183   -0.00616
AFIX  43
H11   2    0.040348   -0.046826    0.002044    11.00000   -1.20000
AFIX   2
C12   1    0.130996   -0.060994   -0.051986    11.00000    0.24752    0.16745 =
         0.22799   -0.01773    0.03685   -0.01260
AFIX   3
H12A  2    0.127552   -0.062526   -0.083629    11.00000   -1.50000
H12B  2    0.149183   -0.085219   -0.042095    11.00000   -1.50000
H12C  2    0.144868   -0.033400   -0.044134    11.00000   -1.50000
AFIX   2
C13   1    0.075935   -0.111368   -0.036226    11.00000    0.27618    0.15942 =
         0.23391   -0.02060    0.07894   -0.02768
AFIX   3
H13A  2    0.077407   -0.127042   -0.008520    11.00000   -1.50000
H13B  2    0.094654   -0.125798   -0.057601    11.00000   -1.50000
H13C  2    0.045870   -0.111265   -0.046789    11.00000   -1.50000
AFIX   0
CD1   7    0.048676    0.048676    0.048676    10.33333    0.06141    0.06141 =
         0.06141    0.00006    0.00006    0.00006
MO1   6    0.828662    0.042508    0.970344    11.00000    0.08031    0.05103 =
         0.10583   -0.00836    0.00128    0.01466
MO2   6    0.855027    0.127797    1.053642    11.00000    0.07469    0.04994 =
         0.12497   -0.00125   -0.03050   -0.00569
MO3   6    0.829378    0.208478    0.977788    11.00000    0.09019    0.04672 =
         0.09194    0.00014    0.01110   -0.02056
N1    3    0.018402    0.101861    0.092201    11.00000    0.05716    0.07359 =
         0.05259   -0.00296   -0.00147    0.00975
N2    3    0.004966    0.093973    0.136078    11.00000    0.08234    0.06987 =
         0.06277    0.01283    0.00734    0.01268
N3    3   -0.017454    0.160209    0.116170    11.00000    0.04243    0.08429 =
         0.03799   -0.00094   -0.00323   -0.00741
N4    3    0.087548   -0.066970   -0.029766    11.00000    0.22322    0.07542 =
         0.18352   -0.04503    0.06513   -0.00416
O1    4    0.072721   -0.002017   -0.002837    11.00000    0.21795    0.08077 =
         0.16265   -0.04243    0.04125    0.00385
O2    4    0.869557    0.004854    0.968075    11.00000    0.06844    0.06902 =
         0.14726   -0.00650    0.00364    0.02223
O3    4    0.841452    0.076326    0.919268    11.00000    0.08537    0.05186 =
         0.11305    0.00103    0.03305    0.01774
O4    4    0.854522    0.087740    1.005045    11.00000    0.05860    0.05861 =
         0.10032    0.00600    0.00439   -0.00789
O5    4    0.904261    0.116761    1.077650    11.00000    0.07508    0.08312 =
         0.16046    0.01402   -0.04737   -0.00106
O6    4    0.871610    0.174325    1.012718    11.00000    0.06374    0.05530 =
         0.11479   -0.01120    0.00237   -0.00899
O7    4    0.863502    0.247704    0.955787    11.00000    0.10828    0.05609 =
         0.14624   -0.00895    0.01384   -0.02281
O8    4    0.812418    0.236071    1.033221    11.00000    0.08642    0.03645 =
         0.08988   -0.01357    0.00928   -0.00876
O9    4    0.775210    0.223645    0.951895    11.00000    0.09926    0.04651 =
         0.06725   -0.00054    0.02151   -0.00787
O10   4    0.787271    0.154571    1.019711    11.00000    0.08029    0.03908 =
         0.06133    0.00652   -0.00099    0.00309
O11   4    0.831057    0.163205    0.933553    11.00000    0.08595    0.04239 =
         0.09321   -0.00831    0.02339   -0.00050
P1    5    0.750000    0.125000    1.000000    10.25000    0.05215    0.02175 =
         0.05215    0.00000    0.00000    0.00000
HKLF 4




REM  1 in I-43d
REM R1 =  0.0508 for    3284 Fo > 4sig(Fo)  and  0.0703 for all    4005 data
REM    273 parameters refined using     66 restraints

END

WGHT      0.0789    179.2697

REM Highest difference peak  1.040,  deepest hole -0.532,  1-sigma level  0.118
Q1    1   0.8544  0.1990  0.9905  11.00000  0.05    0.78
Q2    1   0.8204  0.0313  1.0000  11.00000  0.05    0.66
Q3    1   0.8283  0.0429  1.0053  11.00000  0.05    0.65
Q4    1   0.8338  0.1430  1.0724  11.00000  0.05    0.65
Q5    1   0.7449  0.2249  0.9401  11.00000  0.05    0.62
Q6    1   0.2500 -0.0782  0.0000  10.50000  0.05    0.48
Q7    1   0.7718  0.1519  1.0243  11.00000  0.05    0.45
Q8    1   0.1034 -0.1107  0.0019  11.00000  0.05    0.43
Q9    1   0.8491  0.0216  0.9608  11.00000  0.05    0.42
Q10   1   0.0000  0.2500  0.2101  10.50000  0.05    0.41
Q11   1   0.8149  0.2010  0.9987  11.00000  0.05    0.41
Q12   1   0.0432  0.0808  0.0986  11.00000  0.05    0.40
Q13   1   0.7767  0.1464  1.0194  11.00000  0.05    0.40
Q14   1   0.0474 -0.1009 -0.0590  11.00000  0.05    0.40
Q15   1   0.8307  0.2082  1.0179  11.00000  0.05    0.40
Q16   1   0.8120  0.2275  1.0251  11.00000  0.05    0.39
Q17   1   0.8573  0.1295  1.0860  11.00000  0.05    0.38
Q18   1   0.8080  0.2065  0.9872  11.00000  0.05    0.38
Q19   1   0.8283  0.1708  0.9624  11.00000  0.05    0.37
Q20   1   0.8561  0.0800  1.0333  11.00000  0.05    0.37
;
_shelx_res_checksum              25590
_shelx_fab_file
;
    1    1    2    155.34    314.99
    0    1    3     -0.52   -211.61
    1    2    3    118.61    -67.06
    2    3    3   -109.03    -45.38
    0    2    4     89.24     -0.32
    1    3    4      2.11    -52.47
    2    2    4    -26.45     81.61
    0    4    4    130.53      0.29
    4    4    4     91.89    -23.54
    0    1    5     -0.02      3.65
    0    3    5      0.33    -63.68
    1    2    5    -11.69     61.45
    2    3    5    -20.96      1.27
    3    4    5      2.58     -8.44
    2    5    5     35.73     64.86
    0    2    6    -59.49     -0.35
    0    4    6      1.52     -0.22
    1    1    6     28.80     46.64
    1    3    6    -18.60     14.19
    1    5    6    -10.83     27.82
    2    4    6    -14.52     14.19
    3    3    6   -100.58      9.75
    3    5    6     -1.21    -18.59
    5    5    6    -13.33     16.14
    0    6    6     35.29     -0.57
    4    6    6     -2.26     17.07
    0    3    7      0.48     49.04
    0    5    7      0.02     36.65
    1    4    7     -2.16    -14.91
    1    6    7      5.18      1.70
    2    3    7      8.29    -15.66
    2    5    7     -2.20    -18.07
    3    4    7     23.24     11.91
    3    6    7      0.33    -25.74
    4    5    7     25.68      2.80
    5    6    7     -1.74     26.42
    2    7    7      3.33     -8.96
    6    7    7     -5.53    -23.57
    0    2    8    -18.38      0.10
    0    4    8     11.66      0.09
    0    6    8     -2.55      0.15
    1    3    8     -2.49     -2.68
    1    5    8     -3.30     -9.72
    1    7    8     17.19     27.29
    2    2    8    -37.14     22.06
    2    6    8    -17.76     -3.75
    3    5    8      4.19     -0.45
    3    7    8      4.54    -21.01
    4    4    8    -11.90      6.66
    4    6    8     -0.86      4.98
    5    7    8     11.91     -1.37
    6    6    8    -22.38      9.22
    4    8    8      0.74     -0.34
    8    8    8     29.47    -11.73
    0    1    9     -0.43     22.88
    0    3    9     -0.06    -14.53
    0    5    9      0.13     56.18
    0    7    9      0.23    -11.65
    1    2    9      3.08     25.02
    1    4    9     -7.20    -14.74
    1    6    9    -11.17    -11.11
    1    8    9      4.06     -9.15
    2    3    9      2.11      7.05
    2    5    9     -2.25      3.86
    2    7    9    -13.93      6.54
    3    4    9     23.42    -12.89
    3    6    9     16.93      0.37
    3    8    9     11.95      3.37
    4    5    9     -4.94     -0.03
    4    7    9     -1.79     -6.74
    5    6    9    -23.80      3.55
    5    8    9     -2.71     -7.31
    6    7    9      0.62     -8.76
    7    8    9      8.17     12.14
    2    9    9    -18.26      6.13
    6    9    9    -16.17     29.88
    0    2   10     -1.46      0.71
    0    4   10      5.09      0.19
    0    8   10     22.11     -0.03
    1    1   10     20.31     16.55
    1    3   10    -11.17     -3.84
    1    5   10     -4.48      2.19
    1    7   10     -6.68     -6.74
    1    9   10    -12.72     -6.24
    2    4   10     26.12     -3.24
    2    6   10    -12.15     14.79
    2    8   10      1.76      1.57
    3    3   10      1.72     -9.39
    3    5   10      8.47      9.67
    3    7   10     -7.02    -23.84
    3    9   10      7.29      8.49
    4    6   10     -0.52     -8.33
    4    8   10      6.74      5.71
    5    5   10      1.13      4.51
    5    7   10     12.05    -12.36
    5    9   10      2.17     15.03
    6    8   10    -10.92     -7.53
    7    7   10    -24.47    -22.44
    7    9   10     13.80    -11.10
    9    9   10     40.22     24.89
    0   10   10      2.78      0.14
    4   10   10     -1.34     18.66
    8   10   10     -1.28     10.50
    0    1   11     -0.32     20.91
    0    3   11      0.05    -23.11
    0    5   11      0.01      6.18
    0    7   11     -0.14    -13.13
    0    9   11     -0.22      0.59
    1    2   11     -6.74     12.52
    1    4   11     13.06      2.75
    1    6   11     -8.40     12.60
    1    8   11      5.22     -0.80
    1   10   11      7.62      3.58
    2    3   11     -4.70      8.73
    2    5   11      3.27      5.23
    2    7   11     -2.68    -17.33
    2    9   11      1.18    -14.03
    3    4   11     -5.00      1.73
    3    6   11    -19.48      4.23
    3    8   11     -6.55     -7.74
    3   10   11     -8.76      9.60
    4    5   11     13.19     21.64
    4    7   11    -25.35     -3.24
    4    9   11      1.60     -0.05
    5    6   11     -8.32     12.75
    5    8   11     10.31      5.26
    5   10   11     -1.87      5.95
    6    7   11    -12.46     10.83
    6    9   11     16.77    -18.22
    7    8   11     -9.85     -8.07
    7   10   11    -10.99     18.28
    8    9   11     -8.07     -9.91
    9   10   11     -1.46    -12.52
    2   11   11      1.75     -4.89
    6   11   11     11.39      4.50
   10   11   11      1.84     20.47
    0    0   12     10.79     -0.16
    0    2   12      9.41     -0.47
    0    4   12      8.17     -0.06
    0    6   12     -4.81      0.33
    0    8   12    -22.16     -0.23
    0   10   12      6.37     -0.58
    1    3   12     -7.39      4.12
    1    5   12     22.17      4.35
    1    7   12    -19.35      1.95
    1    9   12      2.04      4.41
    1   11   12     -1.75      4.59
    2    2   12    -46.98     -6.48
    2    4   12      1.22     -9.40
    2    6   12     -5.88      6.07
    2    8   12      7.37     -5.57
    2   10   12     -4.88     11.24
    3    5   12     -5.66     -3.21
    3    7   12     -4.16      3.11
    3    9   12     10.67     -2.94
    3   11   12     12.41      0.11
    4    4   12      8.94    -18.69
    4    6   12      6.10      7.98
    4    8   12    -14.11     -3.05
    4   10   12      6.18     -4.88
    5    7   12     -7.83     -5.12
    5    9   12      7.06      6.14
    5   11   12      5.25      7.09
    6    6   12     -2.68     35.01
    6    8   12    -11.81     -0.87
    6   10   12      6.44     -0.78
    7    9   12     13.40     -1.56
    7   11   12     18.72      6.77
    8    8   12      2.15    -24.77
    8   10   12     15.87    -19.80
    9   11   12     -6.30     -4.63
   10   10   12     13.19    -11.92
    0   12   12    -14.02     -0.14
    4   12   12     -5.30      2.21
    8   12   12      3.22    -21.78
   12   12   12      3.13    -23.22
    0    1   13      0.07      9.52
    0    3   13      0.57    -26.25
    0    5   13     -0.14    -26.04
    0    7   13      0.26     -7.06
    0    9   13      0.17    -20.99
    0   11   13      0.00      0.32
    1    2   13      0.30      5.10
    1    4   13      4.53    -21.38
    1    6   13      1.62      6.80
    1    8   13     -5.56     -6.55
    1   10   13     -7.03      5.56
    1   12   13     -7.53      1.55
    2    3   13      4.30      6.25
    2    5   13     -3.12     -4.63
    2    7   13     -7.00     20.23
    2    9   13      2.67     -1.72
    2   11   13      3.96     12.33
    3    4   13    -13.43    -17.95
    3    6   13      0.98      8.90
    3    8   13     -2.74     10.40
    3   10   13      5.06      3.67
    3   12   13     13.67      3.60
    4    5   13     16.44    -10.20
    4    7   13     -7.77     -2.67
    4    9   13      3.80    -11.10
    4   11   13      7.95      4.27
    5    6   13      1.67      3.25
    5    8   13    -10.10     -2.91
    5   10   13      6.37      0.68
    5   12   13     10.57      4.58
    6    7   13     -0.27      9.66
    6    9   13      9.12     -4.21
    6   11   13     10.91     -1.62
    7    8   13      5.89      9.63
    7   10   13      2.42      2.23
    7   12   13      0.68      3.63
    8    9   13      5.45     -5.09
    8   11   13      3.67    -15.20
    9   10   13      7.38    -12.78
    9   12   13      5.87     -1.73
   10   11   13      6.92     -1.82
   11   12   13    -10.49     -2.22
    2   13   13     -8.80      8.03
    6   13   13     13.48      7.90
   10   13   13     13.15     -9.32
    0    2   14     18.36     -0.31
    0    4   14    -12.70     -0.39
    0    6   14     18.29     -0.14
    0    8   14     -6.35     -0.10
    0   10   14      7.93     -0.14
    0   12   14     -1.27     -0.87
    1    1   14     15.45     27.25
    1    3   14      1.45     21.84
    1    5   14      6.34      1.31
    1    7   14      1.49     -2.21
    1    9   14     -7.08     -1.15
    1   11   14      1.38     -8.71
    1   13   14      4.56     -1.11
    2    4   14     -4.00     -7.03
    2    6   14      8.92      4.00
    2    8   14    -11.43     -0.22
    2   10   14      7.47     -6.34
    2   12   14     -3.65     -8.45
    3    3   14     -7.87     -7.93
    3    5   14     -2.89     -4.03
    3    7   14     -2.48     14.71
    3    9   14    -17.35      6.01
    3   11   14     -3.51     -6.75
    3   13   14      0.71     -6.04
    4    6   14     16.99      5.77
    4    8   14     -8.96      7.63
    4   10   14      7.11     12.16
    4   12   14      0.33     19.17
    5    5   14      8.65      3.80
    5    7   14     10.05     12.05
    5    9   14     10.47     -9.52
    5   11   14     -2.69      9.17
    5   13   14     16.68      0.88
    6    8   14     12.48     14.18
    6   10   14     -7.49      5.88
    6   12   14     -6.38     -3.72
    7    7   14      3.28      8.13
    7    9   14    -10.97      8.20
    7   11   14      7.82     -5.08
    7   13   14     -0.61      6.04
    8   10   14      6.23      2.63
    8   12   14      6.60      3.27
    9    9   14     29.40      0.37
    9   11   14      8.43      9.80
    9   13   14      9.63     -8.50
   10   12   14      1.35     -3.98
   11   11   14     -1.22      9.75
   11   13   14     -6.91     -7.08
   13   13   14      6.25     -0.28
    0   14   14     14.60      0.04
    4   14   14    -19.57      1.77
    8   14   14    -17.99     -8.17
   12   14   14     -0.54      5.21
    0    1   15      0.25     -4.22
    0    3   15      0.17     10.20
    0    5   15     -0.16     -3.50
    0    7   15      0.02      1.52
    0    9   15      0.33      3.67
    0   11   15     -0.11      6.28
    0   13   15      0.17     -0.68
    1    2   15     17.92    -10.11
    1    4   15      3.96      0.32
    1    6   15     18.64    -13.11
    1    8   15      4.21     15.80
    1   10   15      7.29     -1.33
    1   12   15     12.54      8.53
    1   14   15     -7.06      2.46
    2    3   15    -13.66     10.01
    2    5   15     -4.68     -7.62
    2    7   15      5.74     12.41
    2    9   15     -1.85    -16.67
    2   11   15      7.22     -0.90
    2   13   15      4.63     -7.19
    3    4   15     -1.52     -4.56
    3    6   15    -12.64     -0.02
    3    8   15     -8.49      6.32
    3   10   15     -1.26      6.43
    3   12   15     -4.81      1.99
    3   14   15     -2.90     -9.83
    4    5   15     -8.34      8.69
    4    7   15     -4.15      0.00
    4    9   15      1.64      5.21
    4   11   15      4.86     -2.97
    4   13   15      2.92    -12.25
    5    6   15     15.00     -1.62
    5    8   15     -6.13      8.99
    5   10   15    -17.00     -3.67
    5   12   15     -5.34     -8.92
    5   14   15    -11.34     -6.21
    6    7   15      3.77      7.47
    6    9   15      1.67    -10.50
    6   11   15      7.29      7.36
    6   13   15     -6.92     15.25
    7    8   15     -2.95     -5.23
    7   10   15     -0.11      1.20
    7   12   15    -10.46     -5.96
    7   14   15      5.92     13.86
    8    9   15     -1.38      5.26
    8   11   15      3.16      4.30
    8   13   15     -6.04      2.58
    9   10   15     -4.87     -4.00
    9   12   15     -8.18     -3.88
    9   14   15     -3.14     -6.77
   10   11   15      0.67     -2.43
   10   13   15      1.09     10.23
   11   12   15      1.31     -3.48
   11   14   15      3.73      1.14
   12   13   15    -12.70     -0.09
   13   14   15      6.61     -7.75
    2   15   15      0.00     -2.19
    6   15   15     -7.91      1.29
   10   15   15      4.91      0.11
   14   15   15      1.79     11.04
    0    0   16     44.77     -0.42
    0    2   16     16.86      0.01
    0    4   16      2.34     -0.05
    0    6   16      4.83     -0.05
    0    8   16     -5.69     -0.08
    0   10   16      1.16      0.39
    0   12   16      4.27     -0.09
    0   14   16     -4.42     -0.15
    1    3   16     -4.90    -13.77
    1    5   16    -14.35      6.41
    1    7   16      6.55      5.92
    1    9   16     -9.49      0.99
    1   11   16      1.92     -4.41
    1   13   16     -6.39      2.14
    1   15   16     -1.97      3.51
    2    2   16     -5.24     13.22
    2    4   16      0.44      6.65
    2    6   16     -0.55      2.91
    2    8   16      7.71      1.81
    2   10   16      6.90      0.33
    2   12   16     -3.50      1.67
    2   14   16     -1.36      5.34
    3    5   16    -14.60     -9.11
    3    7   16     -1.05      0.96
    3    9   16     -2.56      1.46
    3   11   16     13.72     -8.32
    3   13   16      2.55     -0.03
    3   15   16      4.24      5.02
    4    4   16     -6.42      2.38
    4    6   16      0.70    -12.91
    4    8   16     -8.14     -0.18
    4   10   16      2.82    -12.74
    4   12   16      5.01    -14.92
    4   14   16      9.92     -5.17
    5    7   16     -4.55     -4.96
    5    9   16    -11.29      3.69
    5   11   16     -5.30     -2.49
    5   13   16     -3.08     -3.58
    5   15   16     -6.30     -9.42
    6    6   16     11.22     14.19
    6    8   16      7.13      6.25
    6   10   16      9.96     -0.96
    6   12   16     -3.50      2.72
    6   14   16      1.16     -1.53
    7    9   16     -9.39     -8.59
    7   11   16    -10.98     -7.87
    7   13   16     -8.37     -1.53
    7   15   16     -8.23     -9.76
    8    8   16     -5.77      1.48
    8   10   16      2.96     -4.06
    8   12   16     -7.39     -4.41
    8   14   16    -10.43     -4.49
    9   11   16     -4.28     -4.46
    9   13   16      1.51     -3.74
    9   15   16     -2.17      5.78
   10   10   16     -3.82     11.70
   10   12   16      7.81      4.08
   10   14   16     -7.19     -1.88
   11   13   16     -3.72     -3.34
   11   15   16      2.04     -1.15
   12   12   16      7.58      6.11
   12   14   16      7.31     -3.36
   13   15   16     -7.01      0.57
   14   14   16     -6.25    -11.78
    0   16   16      7.42     -0.06
    4   16   16     16.50     -5.72
    8   16   16      7.58      1.47
   12   16   16      3.99     -1.28
   16   16   16     11.13      8.21
    0    1   17     -0.01     -8.06
    0    3   17     -0.50    -13.02
    0    5   17     -0.01      0.86
    0    7   17      0.01      1.07
    0    9   17      0.32      0.87
    0   11   17      0.33     -8.25
    0   13   17      0.24     -8.63
    0   15   17      0.12     -8.04
    1    2   17      2.19      5.35
    1    4   17     -7.28      4.69
    1    6   17      0.80    -10.28
    1    8   17      2.54      3.63
    1   10   17     -0.65     -1.92
    1   12   17     -5.84      6.23
    1   14   17     -1.42      2.12
    1   16   17      3.72     -6.13
    2    3   17      4.02      6.37
    2    5   17     -0.82      3.02
    2    7   17      1.05      2.91
    2    9   17      3.68      3.30
    2   11   17      2.01     -5.06
    2   13   17      2.75     -6.92
    2   15   17     -7.78    -15.46
    3    4   17      4.95     -2.62
    3    6   17      8.47     -4.67
    3    8   17     12.88      1.81
    3   10   17      7.12     -3.97
    3   12   17      1.35      1.70
    3   14   17     -2.44      1.63
    3   16   17    -12.91      4.71
    4    5   17     -0.68     -4.44
    4    7   17      3.71     -6.69
    4    9   17     -0.54     -1.09
    4   11   17     -4.03      8.61
    4   13   17      6.28     -4.47
    4   15   17     -7.19     -6.05
    5    6   17     -0.61     -8.28
    5    8   17      6.08      5.68
    5   10   17     -5.01     -9.31
    5   12   17      6.12     14.80
    5   14   17      2.32      6.22
    5   16   17      2.59      1.00
    6    7   17     -6.26     -3.96
    6    9   17     -2.22    -16.44
    6   11   17      2.04    -16.73
    6   13   17      4.81    -15.01
    6   15   17     13.19    -18.10
    7    8   17      5.34     -3.36
    7   10   17      2.19      3.44
    7   12   17     -7.51     -4.55
    7   14   17     -4.94     -0.40
    7   16   17     -7.39     -3.08
    8    9   17      8.91     -8.26
    8   11   17     -0.48     -2.56
    8   13   17      7.43      4.89
    8   15   17    -10.99      8.68
    9   10   17     -0.16     -6.75
    9   12   17     -5.55      0.92
    9   14   17     -4.52      1.58
    9   16   17     -5.64     -8.57
   10   11   17      2.83     -9.62
   10   13   17     -7.06     -4.86
   10   15   17     -1.51     -2.09
   11   12   17     -0.59     -0.36
   11   14   17      0.63      8.40
   11   16   17      0.18      0.37
   12   13   17     -0.63      4.90
   12   15   17      6.44      0.16
   13   14   17      4.05      2.39
   13   16   17      6.40      8.58
   14   15   17      2.67     -7.04
   15   16   17      4.06     -0.55
    2   17   17      2.12      7.45
    6   17   17     16.54     -2.19
   10   17   17     -4.48      9.51
   14   17   17    -15.35     -1.38
    0    2   18    -16.77      0.58
    0    4   18      0.48      0.22
    0    6   18      7.77      0.22
    0    8   18     11.51      0.40
    0   10   18      5.15      0.07
    0   12   18     -5.25      0.92
    0   14   18     -9.22     -0.89
    0   16   18      6.16     -0.04
    1    1   18      3.08      9.35
    1    3   18      5.20     -6.60
    1    5   18     -2.72      2.68
    1    7   18     -2.01     -9.29
    1    9   18     -1.42     -1.56
    1   11   18      7.80      8.34
    1   13   18      4.31     -1.93
    1   15   18     -0.25      8.79
    1   17   18      5.48      2.22
    2    4   18     -1.57      5.92
    2    6   18     -2.75      5.51
    2    8   18      7.72      2.18
    2   10   18      2.96      3.15
    2   12   18     -4.79     -5.53
    2   14   18      1.65     -4.29
    2   16   18    -11.52      6.64
    3    3   18     -0.07     15.34
    3    5   18     -9.32      0.32
    3    7   18      8.87      7.66
    3    9   18     -6.81      4.68
    3   11   18      0.28     -1.72
    3   13   18     -1.67     -5.91
    3   15   18     -3.66      1.10
    3   17   18     -1.54     -4.37
    4    6   18      3.12      4.02
    4    8   18      0.88      5.49
    4   10   18      6.25      3.00
    4   12   18      4.23      2.96
    4   14   18     -4.93      6.71
    4   16   18      1.65     -1.12
    5    5   18     13.02     -8.14
    5    7   18      3.13    -11.94
    5    9   18      3.53    -14.35
    5   11   18     14.06     -2.38
    5   13   18      7.10      3.73
    5   15   18     11.65     22.54
    5   17   18     11.19     -1.58
    6    8   18      2.71      1.08
    6   10   18     -1.06      5.65
    6   12   18      0.65     -1.77
    6   14   18     -2.47      4.14
    6   16   18     -1.63      5.75
    7    7   18      9.56      4.47
    7    9   18     -4.54     -0.83
    7   11   18      8.03      5.56
    7   13   18     -2.66      2.57
    7   15   18     -0.46      6.77
    7   17   18      8.48     -1.09
    8   10   18     -6.66     -0.78
    8   12   18     -0.41     -0.74
    8   14   18     13.33    -13.25
    8   16   18      8.65     -7.49
    9    9   18     10.09     -7.67
    9   11   18     -0.41     -3.90
    9   13   18      3.94     -8.99
    9   15   18     -0.05      5.45
    9   17   18     -1.58     -2.36
   10   12   18     -2.64      0.26
   10   14   18     -1.52      3.40
   10   16   18     -2.82      1.11
   11   11   18      8.77      3.27
   11   13   18      7.91     -6.99
   11   15   18     -0.39     -9.84
   11   17   18      1.79     -1.57
   12   14   18     -1.96     -0.18
   12   16   18     -0.83      9.07
   13   13   18     -1.21     13.49
   13   15   18     -2.93     -4.91
   13   17   18      6.52      5.17
   14   16   18    -11.36      1.44
   15   15   18     13.16    -13.17
   15   17   18      6.67     -9.68
   17   17   18      9.23     18.85
    0   18   18     -3.34      0.07
    4   18   18     -9.43      9.04
    8   18   18      7.63      0.07
   12   18   18      2.03      3.98
   16   18   18     -4.79     -8.56
    0    1   19     -0.33     -4.62
    0    3   19     -0.37      8.86
    0    5   19      0.09     11.93
    0    7   19     -0.07      1.98
    0    9   19     -0.18      3.49
    0   11   19     -0.57     14.55
    0   13   19     -0.06     -8.15
    0   15   19     -0.49     11.73
    0   17   19     -0.39     -1.46
    1    2   19      9.88     -9.79
    1    4   19     -8.04      2.46
    1    6   19     -1.03     -0.53
    1    8   19     -4.73      7.29
    1   10   19     -5.48     -6.12
    1   12   19     -0.55      1.60
    1   14   19      4.07     -8.04
    1   16   19     -7.15      4.35
    1   18   19      9.63      1.38
    2    3   19     -3.42     -6.64
    2    5   19      1.43      0.12
    2    7   19      4.30      1.19
    2    9   19     -3.56      3.00
    2   11   19     -2.20     -3.04
    2   13   19     -4.43      5.05
    2   15   19      3.46      1.71
    2   17   19     -3.43      1.86
    3    4   19     -0.51     -2.26
    3    6   19      0.42     -0.46
    3    8   19      4.62     -1.70
    3   10   19     10.47     -7.32
    3   12   19      5.89      5.42
    3   14   19      1.53     -3.19
    3   16   19     -3.53     -5.32
    3   18   19     -1.01     11.39
    4    5   19     -3.19      5.13
    4    7   19      3.16      9.26
    4    9   19      2.85      8.99
    4   11   19      3.23      9.23
    4   13   19     -4.75      3.41
    4   15   19      4.69     -1.62
    4   17   19     -6.51     -4.56
    5    6   19      5.88     -4.50
    5    8   19     -4.20      6.38
    5   10   19     -5.55     -2.91
    5   12   19    -16.75      4.89
    5   14   19     -5.39    -10.75
    5   16   19     -3.93     -4.83
    5   18   19      4.40     -3.23
    6    7   19      6.14     -2.39
    6    9   19     -4.49      2.80
    6   11   19     -6.70     -3.28
    6   13   19    -15.65      3.66
    6   15   19     -2.91     10.08
    6   17   19     -4.89      7.56
    7    8   19      3.87     -8.87
    7   10   19      3.80     -5.09
    7   12   19     12.76      3.59
    7   14   19     19.06      4.22
    7   16   19     -0.75      7.73
    7   18   19      5.54      2.35
    8    9   19     -3.64      4.22
    8   11   19     -0.23     -4.34
    8   13   19     -2.35      7.23
    8   15   19      1.21      0.12
    8   17   19     -6.11     -7.22
    9   10   19      2.31     -1.03
    9   12   19    -10.00     11.38
    9   14   19    -11.65      3.00
    9   16   19      4.13      3.37
    9   18   19      1.83      0.58
   10   11   19      6.79      6.52
   10   13   19     -1.01     -4.58
   10   15   19      7.36      1.17
   10   17   19     -3.00     -4.31
   11   12   19      5.31     -2.30
   11   14   19     -0.02     -5.39
   11   16   19     -8.27     -0.35
   11   18   19     -4.94     -5.30
   12   13   19      3.94      5.45
   12   15   19     -2.13      0.98
   12   17   19      7.68     -5.82
   13   14   19    -10.98      0.31
   13   16   19      2.64     10.40
   13   18   19     -8.49      5.17
   14   15   19     -5.45      2.35
   14   17   19      5.77     -1.23
   15   16   19      3.17     -9.50
   15   18   19     -7.98    -10.84
   16   17   19      3.32      1.18
   17   18   19      0.45     -2.37
    2   19   19      4.92      0.87
    6   19   19     16.70     -0.04
   10   19   19     -6.82      0.07
   14   19   19     -2.80      7.12
   18   19   19     -6.40      5.71
    0    0   20     15.17     -0.37
    0    2   20    -11.15     -0.41
    0    4   20     -1.29      0.13
    0    6   20    -11.99     -0.07
    0    8   20     -4.33     -0.02
    0   10   20     -2.44      0.72
    0   12   20      8.58     -0.31
    0   14   20     -9.14      0.07
    0   16   20     -0.94     -0.41
    0   18   20     -2.97     -0.27
    1    3   20      2.35     -5.69
    1    5   20     -2.81      4.64
    1    7   20     -1.25      4.64
    1    9   20    -10.98      4.99
    1   11   20     -1.72      0.79
    1   13   20    -18.90      3.63
    1   15   20      0.07     -2.62
    1   17   20     -4.47      3.77
    1   19   20      6.04      5.44
    2    2   20      5.77      1.56
    2    4   20      6.23      5.84
    2    6   20      0.03     -7.50
    2    8   20      4.08      1.54
    2   10   20      0.56      6.02
    2   12   20     -3.18      9.95
    2   14   20     -6.12      1.88
    2   16   20     -0.99      4.63
    2   18   20     -1.87     -2.05
    3    5   20     -2.25      2.88
    3    7   20      2.52      2.81
    3    9   20    -13.67      6.94
    3   11   20     -1.07     -0.42
    3   13   20    -10.59      1.56
    3   15   20      2.38      1.23
    3   17   20      2.63      2.33
    3   19   20      2.36     -6.45
    4    4   20     -6.41      0.48
    4    6   20     -7.82     -2.61
    4    8   20     -2.94      7.62
    4   10   20    -10.86      0.37
    4   12   20     18.82      3.03
    4   14   20      8.68     -8.14
    4   16   20      1.24      1.77
    4   18   20     -7.31    -10.64
    5    7   20     -4.12      2.84
    5    9   20     -1.46     -2.32
    5   11   20     -3.19     -6.41
    5   13   20     -7.57      4.94
    5   15   20     -1.26     -0.08
    5   17   20     -3.26      4.52
    5   19   20     -0.96      2.81
    6    6   20     13.10     -8.65
    6    8   20      5.22      3.93
    6   10   20      9.42      4.93
    6   12   20      9.25      8.81
    6   14   20     -7.03     12.10
    6   16   20      0.78      7.62
    6   18   20      0.95     -1.49
    7    9   20     -3.49      1.68
    7   11   20      5.22     -0.53
    7   13   20     -8.59     -8.94
    7   15   20     -1.69    -12.04
    7   17   20     -4.64      2.31
    7   19   20      0.27     -3.34
    8    8   20      2.88      0.17
    8   10   20     -7.56     -1.20
    8   12   20     -2.14      5.88
    8   14   20     -5.64     -2.91
    8   16   20      1.29     14.37
    8   18   20      5.23     -2.02
    9   11   20     -3.66     -6.43
    9   13   20      5.57      5.19
    9   15   20      8.85      5.52
    9   17   20      0.57      4.08
    9   19   20      8.88     -1.88
   10   10   20     -3.23     -1.77
   10   12   20      7.49     -9.38
   10   14   20     -6.33     -5.00
   10   16   20     -2.04     -8.06
   10   18   20      1.24      8.54
   11   13   20     -8.42      1.59
   11   15   20     11.44     -4.12
   11   17   20     -0.24     -2.99
   11   19   20      4.62      0.78
   12   12   20      6.70     -1.36
   12   14   20      3.92     10.12
   12   16   20      5.70     -4.88
   12   18   20      1.66      2.22
   13   15   20     -2.75      4.86
   13   17   20      0.84      3.96
   13   19   20     12.65      4.75
   14   14   20     -2.23      0.02
   14   16   20     -3.02    -14.82
   14   18   20     -4.71      3.33
   15   17   20     -7.70     -5.11
   15   19   20      9.14      0.25
   16   16   20     18.40    -11.18
   16   18   20     10.78      0.99
   17   19   20      5.27     -3.19
   18   18   20     -5.04     -1.15
    0   20   20      1.34     -0.31
    4   20   20     -6.31      2.12
    8   20   20     -5.20      4.40
   12   20   20     -6.64     -7.04
   16   20   20      2.26    -16.42
   20   20   20      5.72     -2.41
    0    1   21      0.23     -1.51
    0    3   21      0.17      0.20
    0    5   21     -0.27      8.27
    0    7   21     -0.02     -0.27
    0    9   21      0.86      3.15
    0   11   21      0.13    -10.16
    0   13   21      3.35     -7.43
    0   15   21      0.14     -3.46
    0   17   21      0.99      7.64
    0   19   21     -0.14     -1.45
    1    2   21      0.29      8.29
    1    4   21     -6.41     -1.32
    1    6   21     -1.15     -6.77
    1    8   21     -0.48     -3.07
    1   10   21     -8.84     -4.75
    1   12   21      1.81     -4.74
    1   14   21     -2.55     -1.80
    1   16   21     -4.57      0.58
    1   18   21     -1.88      2.91
    1   20   21     -0.26      0.13
    2    3   21      2.10     -5.23
    2    5   21     -4.06      0.93
    2    7   21     -4.22     -9.91
    2    9   21    -12.81     -4.98
    2   11   21     -6.18    -23.15
    2   13   21      2.46      8.29
    2   15   21     -6.50     -8.92
    2   17   21      3.50     11.05
    2   19   21      3.51      8.61
    3    4   21      6.84     -0.61
    3    6   21     -0.55     -0.55
    3    8   21      0.91     -5.02
    3   10   21     -2.40     -8.06
    3   12   21      3.27      8.27
    3   14   21     -4.40      0.14
    3   16   21      7.01     -0.62
    3   18   21      3.96      0.00
    3   20   21      5.66     -4.86
    4    5   21     -7.09     -1.96
    4    7   21     -1.10     -0.68
    4    9   21      5.24      4.28
    4   11   21     -4.04      3.28
    4   13   21     -3.59      8.88
    4   15   21      2.40     -6.34
    4   17   21     -3.05      2.27
    4   19   21      4.04      3.81
    5    6   21     -9.47     -3.50
    5    8   21     -1.41      2.84
    5   10   21    -10.68     11.42
    5   12   21    -12.90      4.79
    5   14   21      1.20     12.75
    5   16   21     10.72      0.64
    5   18   21     -1.45     -6.98
    5   20   21      5.97     -5.16
    6    7   21     -2.57     -0.33
    6    9   21     -6.69      3.35
    6   11   21     -1.57    -16.06
    6   13   21      8.45     -9.35
    6   15   21      3.27     -7.64
    6   17   21      6.07     -6.32
    6   19   21     -1.42      5.81
    7    8   21      1.21      6.48
    7   10   21     -0.61      2.33
    7   12   21      2.57     -7.44
    7   14   21     -8.28     -7.75
    7   16   21     -0.87     -0.87
    7   18   21      1.55      0.00
    7   20   21      0.07      4.26
    8    9   21      1.98     -0.39
    8   11   21      0.10      4.57
    8   13   21      3.14     20.90
    8   15   21     -1.75     -4.28
    8   17   21      4.43      4.31
    8   19   21     -0.16     -7.62
    9   10   21      7.72      0.82
    9   12   21     -2.07     -2.61
    9   14   21      0.84     -4.57
    9   16   21      2.53      1.79
    9   18   21      0.17     -0.42
    9   20   21      3.30      7.40
   10   11   21     -4.69    -12.82
   10   13   21     -1.34     -0.59
   10   15   21     -5.93     -5.08
   10   17   21     -6.99      0.95
   10   19   21     -3.04      8.87
   11   12   21     -1.91     -2.80
   11   14   21      9.19      6.58
   11   16   21     -2.73     -2.23
   11   18   21      4.83    -10.08
   11   20   21     -8.09      3.26
   12   13   21      8.17      2.37
   12   15   21     -3.79     -5.35
   12   17   21      7.04     -0.02
   12   19   21      1.03     -4.88
   13   14   21      3.47     -0.93
   13   16   21     -7.97      8.46
   13   18   21     10.32     -0.63
   13   20   21     -4.27      3.92
   14   15   21    -13.31    -10.92
   14   17   21     -5.08      9.30
   14   19   21     -9.33     -0.84
   15   16   21      1.25      3.87
   15   18   21      3.38      2.65
   15   20   21     -0.62      4.90
   16   17   21     10.33     -4.03
   16   19   21     -1.79    -12.17
   17   18   21      4.13      3.35
   17   20   21     -0.12      1.26
   18   19   21      0.96     -1.10
   19   20   21     -1.64      3.21
    2   21   21      1.53     16.88
    6   21   21      1.00      5.34
   10   21   21      3.67      5.10
   14   21   21      6.42     11.42
   18   21   21      1.66     -1.15
    0    2   22    -12.14     -0.26
    0    4   22      0.99     -0.26
    0    6   22      0.25     -0.17
    0    8   22      9.80      0.18
    0   10   22     -4.74      0.39
    0   12   22     18.17     -0.41
    0   14   22    -10.05      0.19
    0   16   22      3.93     -0.28
    0   18   22      7.84     -0.24
    0   20   22      5.66      0.31
    1    1   22      4.85      1.47
    1    3   22     -5.22     -3.80
    1    5   22      0.52      2.08
    1    7   22     -5.11     -2.43
    1    9   22      6.75     -6.17
    1   11   22      5.89      0.66
    1   13   22      9.03      1.53
    1   15   22     -8.09    -11.98
    1   17   22      4.83      7.27
    1   19   22     -5.45     -1.73
    1   21   22      1.72     -5.95
    2    4   22     -2.38      5.59
    2    6   22     -1.06     -1.23
    2    8   22     -1.56     -3.25
    2   10   22      5.09      4.77
    2   12   22     -5.85     -1.13
    2   14   22      4.29     -4.62
    2   16   22      0.51     -4.75
    2   18   22     -6.00     -1.71
    2   20   22      0.18      0.90
    3    3   22     -2.88      2.33
    3    5   22      2.13      4.68
    3    7   22      8.20     -2.41
    3    9   22      8.18      2.99
    3   11   22    -11.25     -2.48
    3   13   22      4.31    -15.09
    3   15   22     -3.78      3.92
    3   17   22     -6.72     -0.57
    3   19   22     -6.67      3.77
    3   21   22     -3.30      0.37
    4    6   22     -3.81      0.05
    4    8   22     -2.28     -0.15
    4   10   22    -13.30     -4.20
    4   12   22     -2.62     -5.80
    4   14   22     -7.65      9.50
    4   16   22     -1.12     -1.74
    4   18   22     11.40      0.07
    4   20   22      2.60      1.81
    5    5   22      3.74      0.54
    5    7   22      2.26     -6.86
    5    9   22      0.39     -4.08
    5   11   22      4.00     -0.33
    5   13   22      8.69      9.18
    5   15   22      1.68      7.87
    5   17   22      2.77     -2.86
    5   19   22     -5.47     -3.00
    5   21   22     -4.54     -0.41
    6    8   22     -3.97     -8.19
    6   10   22      3.93     -4.14
    6   12   22      0.56     -1.78
    6   14   22    -11.72     -3.94
    6   16   22     -0.68     -0.19
    6   18   22     -2.56      4.31
    6   20   22      0.14     -0.99
    7    7   22      1.17      5.05
    7    9   22     -1.20      0.24
    7   11   22     -5.34     14.10
    7   13   22      3.18      0.25
    7   15   22     -4.61      5.84
    7   17   22     -3.62      2.03
    7   19   22     -1.06     -2.22
    7   21   22     -4.54      3.37
    8   10   22      2.04     -0.58
    8   12   22      2.81      2.26
    8   14   22      8.66     -0.06
    8   16   22      3.04     -1.49
    8   18   22      3.91     -0.96
    8   20   22      0.81     -0.18
    9    9   22      3.23     -0.34
    9   11   22     -5.88      5.35
    9   13   22      1.65     -8.41
    9   15   22    -10.43      7.20
    9   17   22     -6.02     -2.37
    9   19   22      4.94      9.40
    9   21   22     -9.15    -13.73
   10   12   22      6.39      0.84
   10   14   22     -8.23      3.56
   10   16   22      3.02      0.99
   10   18   22     -3.40      3.13
   10   20   22      3.43      8.72
   11   11   22     -0.28     10.50
   11   13   22     14.61     -6.13
   11   15   22      8.10      2.25
   11   17   22      2.07     -1.06
   11   19   22     -3.32      0.97
   11   21   22     -9.62      3.83
   12   14   22      4.86     -2.21
   12   16   22      8.92      8.42
   12   18   22      1.05     -5.70
   12   20   22      5.02     -1.05
   13   13   22      3.74    -13.09
   13   15   22     -5.87     13.13
   13   17   22     -1.04     -9.47
   13   19   22     -1.69     11.33
   13   21   22      0.41     -8.36
   14   16   22      2.11      4.66
   14   18   22     -7.68      4.46
   14   20   22     -0.61      5.41
   15   15   22      1.47     -2.62
   15   17   22      5.54     -7.92
   15   19   22     -2.05      0.33
   15   21   22     -1.35     -1.37
   16   18   22     -6.77      4.97
   16   20   22      2.07     -2.66
   17   17   22      9.95      4.67
   17   19   22      1.57      4.09
   17   21   22      3.81     -1.36
   18   20   22      4.28     -4.85
   19   19   22      0.31      1.47
   19   21   22      4.80      3.46
   21   21   22     -6.26     11.15
    0   22   22     -4.40      0.11
    4   22   22      5.83     -4.56
    8   22   22     -5.11     -5.47
   12   22   22    -14.68      1.71
   16   22   22     -8.77      5.14
   20   22   22     -0.66     -3.25
    0    1   23      0.02    -11.28
    0    3   23      0.26      6.30
    0    5   23      0.11     -7.47
    0    7   23     -0.15      2.25
    0    9   23     -0.17      1.47
    0   11   23     -0.17     14.89
    0   13   23     -0.20     -3.41
    0   15   23     -0.23      9.96
    0   17   23      0.12      5.66
    0   19   23     -0.03     -0.51
    0   21   23     -0.26     -4.99
    1    2   23      0.26      0.82
    1    4   23     -6.11     -5.84
    1    6   23      0.22      2.48
    1    8   23     -1.61      5.20
    1   10   23      1.09      7.04
    1   12   23     -0.72      1.19
    1   14   23      9.77      8.66
    1   16   23     -3.55      3.04
    1   18   23      2.52      3.35
    1   20   23     12.14     -3.87
    1   22   23      3.47      4.74
    2    3   23     -4.97     -5.71
    2    5   23      2.38     -4.28
    2    7   23     -0.45      4.13
    2    9   23     -2.40      1.11
    2   11   23      5.30      3.79
    2   13   23     11.95     -1.26
    2   15   23      5.75      2.28
    2   17   23     -4.00     -9.90
    2   19   23     -1.28      1.98
    2   21   23     -0.53     -3.05
    3    4   23     -1.60     -2.79
    3    6   23     -6.44      1.59
    3    8   23     -0.28     -8.28
    3   10   23      6.61     -7.78
    3   12   23      7.28     -2.33
    3   14   23      3.65      1.20
    3   16   23      1.24     -0.80
    3   18   23     -0.52     -1.76
    3   20   23     -1.21      3.04
    3   22   23     -2.78      3.53
    4    5   23      0.35      3.24
    4    7   23      2.78      9.99
    4    9   23      8.97     -2.60
    4   11   23      6.52     14.82
    4   13   23      1.20      2.37
    4   15   23      9.37      1.80
    4   17   23      3.06     -0.80
    4   19   23     -1.43     -1.18
    4   21   23     -7.00     -7.53
    5    6   23     -0.37     -2.23
    5    8   23      6.06      4.43
    5   10   23      2.38     -4.05
    5   12   23     -6.84     -9.18
    5   14   23      5.93     -6.07
    5   16   23     -2.74     -2.06
    5   18   23      3.23     -1.65
    5   20   23      5.99      1.35
    5   22   23      7.85     -0.23
    6    7   23      4.04     -3.35
    6    9   23     -2.42     -0.63
    6   11   23      0.40     -3.27
    6   13   23    -16.37     -3.09
    6   15   23     -1.03     -0.67
    6   17   23     -3.87     -5.09
    6   19   23      7.58     -1.48
    6   21   23     -7.52     -6.53
    7    8   23      1.48     -1.18
    7   10   23      6.62     -5.22
    7   12   23      9.77     -2.56
    7   14   23     10.00      1.24
    7   16   23      0.08     -3.31
    7   18   23      4.46     -4.99
    7   20   23     -3.84      5.86
    7   22   23     -3.61      0.02
    8    9   23     -6.54     -1.34
    8   11   23      3.20      1.98
    8   13   23     -3.27     -6.28
    8   15   23      2.83     -6.77
    8   17   23     -0.08     -3.46
    8   19   23      0.06     -6.78
    8   21   23     -2.19     -0.39
    9   10   23      3.25     -1.87
    9   12   23     -9.77     -4.82
    9   14   23     -3.96     -1.78
    9   16   23     -7.18      4.12
    9   18   23      4.15      0.54
    9   20   23     11.26      0.53
    9   22   23      0.30      1.41
   10   11   23      6.90      6.58
   10   13   23     -9.12     -2.18
   10   15   23      3.01      0.14
   10   17   23    -19.10     -5.33
   10   19   23      5.04     -5.95
   10   21   23     -6.93      1.81
   11   12   23     -4.88     -6.46
   11   14   23      3.43      6.96
   11   16   23     -2.89     -7.74
   11   18   23      2.61     -3.61
   11   20   23    -10.35      3.68
   11   22   23     -0.40     -1.72
   12   13   23    -13.65      5.45
   12   15   23      4.66      1.88
   12   17   23     -1.08      1.31
   12   19   23      2.75     -8.17
   12   21   23     -6.83     -5.01
   13   14   23      2.49      6.28
   13   16   23     -0.22      5.88
   13   18   23     -2.71      7.36
   13   20   23      0.03     -0.11
   13   22   23      2.03     -1.77
   14   15   23      5.43     -1.69
   14   17   23     -3.73     -6.51
   14   19   23      1.18     -6.45
   14   21   23      0.23     -2.37
   15   16   23     -5.69     -8.34
   15   18   23     -4.70      4.28
   15   20   23    -13.64     -8.77
   15   22   23      2.99      4.26
   16   17   23     -4.85      0.16
   16   19   23     -0.39      1.40
   16   21   23     -1.70      4.57
   17   18   23     -1.41      2.60
   17   20   23     -5.86     -1.14
   17   22   23     -2.43     -2.23
   18   19   23     -7.85      4.09
   18   21   23      4.43      1.54
   19   20   23      6.52     -2.77
   19   22   23      3.95     -0.77
   20   21   23      3.62     -0.37
   21   22   23      1.79      3.78
    2   23   23      9.08     -6.84
    6   23   23      3.80     -0.99
   10   23   23      6.01    -17.15
   14   23   23     -2.60     -1.14
   18   23   23     -2.13     -3.02
    0    0   24     -1.64      0.18
    0    2   24      7.04     -0.09
    0    4   24      4.08     -0.11
    0    6   24      3.94      0.30
    0    8   24     -8.85      0.14
    0   10   24      0.66      0.34
    0   12   24     -6.23      0.67
    0   14   24     -2.72     -0.41
    0   16   24     -4.94      0.14
    0   18   24      2.25     -1.05
    0   20   24     -4.91     -0.28
    0   22   24     -7.10     -0.25
    1    3   24      0.80     -0.01
    1    5   24      0.02      6.72
    1    7   24      1.70     -0.99
    1    9   24     -9.35      0.03
    1   11   24      7.27      0.94
    1   13   24     -8.44     -0.13
    1   15   24      2.44      0.70
    1   17   24      0.26      3.20
    1   19   24      6.33      2.14
    1   21   24      6.03     -1.16
    1   23   24     -3.25     -4.76
    2    2   24      7.53     -1.28
    2    4   24    -10.86     -2.69
    2    6   24      1.27     -1.97
    2    8   24     -5.22     -4.84
    2   10   24      4.57      9.10
    2   12   24     -5.20     10.77
    2   14   24      3.72     -7.48
    2   16   24     -0.78      2.46
    2   18   24     -1.03      1.37
    2   20   24      2.45      3.96
    2   22   24     12.54     -4.20
    3    5   24     -4.74      1.30
    3    7   24      3.31      2.77
    3    9   24     -3.87      5.61
    3   11   24     -6.46      8.61
    3   13   24      1.84      5.26
    3   15   24      3.32      4.32
    3   17   24      2.28     -2.94
    3   19   24      5.96    -11.45
    3   21   24      0.80      3.36
    3   23   24      0.50     -1.15
    4    4   24     -1.10      1.83
    4    6   24      1.70     -2.25
    4    8   24     -0.65      8.02
    4   10   24     -0.44     -3.89
    4   12   24      3.69     -1.43
    4   14   24      8.70      0.07
    4   16   24      1.43      1.20
    4   18   24     -3.52     -0.92
    4   20   24     -3.12      1.01
    4   22   24      3.86     -0.79
    5    7   24      4.63      6.37
    5    9   24    -13.43      2.05
    5   11   24     11.50     -8.84
    5   13   24    -10.85      4.05
    5   15   24      1.62     -1.42
    5   17   24      1.91      5.83
    5   19   24      9.40     -0.35
    5   21   24      0.34      1.56
    5   23   24      6.02     -7.80
    6    6   24      4.23     14.10
    6    8   24      0.41      5.01
    6   10   24      8.51      2.35
    6   12   24      2.00      8.40
    6   14   24     -3.25     -3.95
    6   16   24      5.90     13.91
    6   18   24     -3.69     -7.61
    6   20   24      2.42     -0.10
    6   22   24      2.43     -3.35
    7    9   24      2.42      2.99
    7   11   24      5.70     -0.14
    7   13   24      6.85     -2.00
    7   15   24      4.58     -1.38
    7   17   24      0.46     -3.39
    7   19   24      4.77     -7.39
    7   21   24     -0.22      4.54
    7   23   24     -0.09     -4.38
    8    8   24     10.53     -1.39
    8   10   24      1.02     -4.56
    8   12   24      3.27      5.24
    8   14   24      0.02     -5.38
    8   16   24     -2.65      4.44
    8   18   24      3.38     -6.62
    8   20   24     -0.18      8.72
    8   22   24     -5.45     -3.55
    9   11   24      0.37     -3.65
    9   13   24      0.15      8.31
    9   15   24     -1.01     -3.00
    9   17   24      1.92      1.62
    9   19   24      5.95     -0.44
    9   21   24      7.89     -0.49
    9   23   24     -0.20     -8.20
   10   10   24      6.45     -8.33
   10   12   24      0.30      4.45
   10   14   24      7.16    -15.85
   10   16   24      4.27     -4.12
   10   18   24     -6.87     -4.47
   10   20   24      7.00      6.43
   10   22   24      2.59      0.65
   11   13   24     -6.24     -2.81
   11   15   24      1.39     -5.84
   11   17   24     -4.85     -0.62
   11   19   24      0.61     -9.67
   11   21   24      0.94      2.66
   11   23   24      2.49      1.69
   12   12   24     -5.15     11.79
   12   14   24     -1.58     -1.01
   12   16   24     -1.76     10.46
   12   18   24      1.01     -6.54
   12   20   24      2.12      2.64
   12   22   24     -4.01     -2.62
   13   15   24     -5.78     -2.92
   13   17   24      6.55      6.54
   13   19   24      4.49      2.01
   13   21   24      3.52     -4.92
   13   23   24     -0.06     -3.81
   14   14   24      4.19     -7.14
   14   16   24     -1.02     -1.46
   14   18   24      6.17     -4.50
   14   20   24     -4.45      0.29
   14   22   24     -0.12     -4.28
   15   17   24      0.73     -3.75
   15   19   24     -1.72      3.67
   15   21   24     -1.33     -4.40
   15   23   24      0.68      0.95
   16   16   24      0.33     -1.86
   16   18   24      6.56      1.11
   16   20   24     -4.61     -2.24
   16   22   24      2.19     -1.43
   17   19   24     -6.80     -6.43
   17   21   24     -1.65     -6.48
   17   23   24     -0.27      1.38
   18   18   24      4.38      6.70
   18   20   24      2.35     -4.52
   18   22   24     -0.95      1.51
   19   21   24      4.46     -0.92
   20   20   24     -4.89      2.57
   20   22   24      3.84     10.15
    0   24   24      2.24     -0.06
    4   24   24     -8.18     10.75
    8   24   24     -4.27      4.84
   12   24   24      2.94      3.50
   16   24   24      3.63     -0.03
    0    1   25     -0.04     -1.76
    0    3   25     -0.02      9.62
    0    5   25      0.00     -8.30
    0    7   25     -0.03      0.62
    0    9   25      0.49     -5.67
    0   11   25     -0.01      1.55
    0   13   25      0.52     -3.60
    0   15   25      0.58      3.78
    0   17   25      0.36      2.20
    0   19   25     -0.07     -4.40
    0   21   25     -0.05     -3.34
    0   23   25     -0.02     13.76
    1    2   25     -6.02     -5.52
    1    4   25      1.16      5.59
    1    6   25      0.68     -4.15
    1    8   25      1.43      8.15
    1   10   25     -1.63      2.07
    1   12   25     -5.36      5.11
    1   14   25      2.34     -5.09
    1   16   25     -5.28      3.06
    1   18   25      1.72      4.10
    1   20   25      1.76      2.62
    1   22   25     -2.61     -0.11
    1   24   25     -3.79     -5.51
    2    3   25     -3.30      3.96
    2    5   25     -2.05      4.32
    2    7   25     -0.46      2.05
    2    9   25     -6.12      9.85
    2   11   25     -2.62     -5.05
    2   13   25      5.55      3.33
    2   15   25     -0.19     -2.28
    2   17   25      0.95      4.98
    2   19   25      1.34      6.32
    2   21   25      3.77      4.32
    2   23   25      4.48      5.35
    3    4   25      2.30      3.18
    3    6   25      4.78     -6.58
    3    8   25      0.84      9.66
    3   10   25     -1.75    -16.62
    3   12   25      8.89     12.70
    3   14   25     -1.75      3.50
    3   16   25      6.31     -5.89
    3   18   25     -9.37     -0.04
    3   20   25      0.36      2.67
    3   22   25     -5.75      0.95
    3   24   25     11.07      5.36
    4    5   25      4.25     -8.45
    4    7   25      0.70     -2.79
    4    9   25      5.76     -2.81
    4   11   25      4.29     -0.76
    4   13   25     -8.16      3.57
    4   15   25      8.26     -1.26
    4   17   25     -0.25      7.38
    4   19   25     -1.24     -2.52
    4   21   25      3.14      5.07
    4   23   25      0.13     -1.18
    5    6   25     -7.35      0.16
    5    8   25     -5.22      3.77
    5   10   25      1.59      1.73
    5   12   25     -2.85      2.22
    5   14   25     -8.51      7.77
    5   16   25     -3.75      2.40
    5   18   25     -3.46     -2.01
    5   20   25      7.07     -1.49
    5   22   25     -5.01     -4.31
    5   24   25      6.90      0.57
    6    7   25      0.35      0.64
    6    9   25      1.65      6.32
    6   11   25     -1.38     -9.25
    6   13   25      7.35     -0.99
    6   15   25      3.75      2.83
    6   17   25      0.26      5.50
    6   19   25      2.11      7.13
    6   21   25     -0.50      4.64
    6   23   25      2.10     12.22
    7    8   25      1.88      8.42
    7   10   25     -2.36     -4.32
    7   12   25      5.29     -0.33
    7   14   25     -8.04     -7.36
    7   16   25      6.62     -3.78
    7   18   25     -4.95      1.31
    7   20   25      7.98     -3.97
    7   22   25     -3.07     -2.15
    7   24   25      3.92      8.42
    8    9   25      2.46      3.38
    8   11   25     -2.59     -3.68
    8   13   25     -2.20      7.18
    8   15   25      4.60      3.58
    8   17   25     -2.79     11.07
    8   19   25      5.59     -5.60
    8   21   25     -0.53      1.47
    8   23   25     -3.12     -1.59
    9   10   25     -2.72     -4.17
    9   12   25      6.36      2.48
    9   14   25      2.05      4.43
    9   16   25      6.95      1.88
    9   18   25     -4.75      3.67
    9   20   25      9.14     -2.25
    9   22   25     -7.78      2.48
    9   24   25      1.79     -0.90
   10   11   25      6.89      0.18
   10   13   25     -0.15     -3.21
   10   15   25      4.96     -6.45
   10   17   25     -2.36     -1.79
   10   19   25      1.59      1.84
   10   21   25     -0.43      8.19
   10   23   25     -0.59     -0.43
   11   12   25      1.07     -0.73
   11   14   25     -4.47     -2.31
   11   16   25      6.26     -6.15
   11   18   25      2.14     -7.41
   11   20   25      0.73      1.38
   11   22   25     -2.62      8.49
   11   24   25      2.07      1.67
   12   13   25     -0.60     -0.05
   12   15   25     -1.06     -1.15
   12   17   25      5.24      2.13
   12   19   25      4.10      0.53
   12   21   25     -3.85     -2.99
   12   23   25      1.50      1.19
   13   14   25     -9.09     -2.07
   13   16   25      1.36      0.77
   13   18   25     -5.84      1.33
   13   20   25      3.12      2.69
   13   22   25      0.48     -0.99
   13   24   25     -2.90      5.40
   14   15   25     -4.05     -0.70
   14   17   25     -2.86     -3.62
   14   19   25      1.31     -0.86
   14   21   25     -2.12      4.15
   14   23   25      3.90     -5.33
   15   16   25      0.89      1.23
   15   18   25      5.98      1.10
   15   20   25      1.63      6.62
   15   22   25      1.50     -1.79
   15   24   25     -0.48      1.90
   16   17   25      5.77     -5.85
   16   19   25      3.94      2.81
   16   21   25      4.21     -1.92
   16   23   25      3.53      3.69
   17   18   25      5.00     -3.33
   17   20   25     -8.30      1.84
   17   22   25     -3.86      3.02
   18   19   25      4.54     -0.46
   18   21   25      4.42    -10.23
   19   20   25     -6.02      2.13
    2   25   25     -1.44     -3.30
    6   25   25     -1.82     -6.68
   10   25   25      1.11     -3.60
   14   25   25      5.22      2.34
    0    2   26     -2.07      0.62
    0    4   26      4.91      0.30
    0    6   26     -0.26     -0.21
    0    8   26      0.08      0.07
    0   10   26     -8.72      0.09
    0   12   26     -3.77      0.48
    0   14   26      1.09     -0.10
    0   16   26     -1.34     -0.20
    0   18   26     -0.85      0.27
    0   20   26     -4.42      0.06
    0   22   26     -1.04     -0.37
    0   24   26     -2.48      0.06
    1    1   26     -9.51     -1.86
    1    3   26      4.46      4.36
    1    5   26     -9.25      6.80
    1    7   26      3.00     -3.46
    1    9   26     -0.52      0.75
    1   11   26      7.01     -3.42
    1   13   26     -1.40      2.81
    1   15   26     -6.28     -2.14
    1   17   26      3.01      1.77
    1   19   26     -0.23     -0.91
    1   21   26     -3.15     -3.06
    1   23   26     -1.53     -6.24
    1   25   26     -2.66      6.44
    2    4   26     -5.94      3.65
    2    6   26     -1.39     -2.16
    2    8   26      3.59     -0.29
    2   10   26     -0.93     -2.44
    2   12   26      6.35      5.35
    2   14   26     -0.40     -2.05
    2   16   26     -3.47     -1.05
    2   18   26     -4.57      0.08
    2   20   26     -1.35     -6.23
    2   22   26      1.28      2.08
    2   24   26     -3.67     -6.74
    3    3   26      1.99     -1.44
    3    5   26     -7.66     -2.25
    3    7   26      4.03     -0.59
    3    9   26     -3.26     -1.94
    3   11   26     -5.64      3.33
    3   13   26     -4.47     -0.78
    3   15   26      3.34     -3.64
    3   17   26      4.11      1.44
    3   19   26     -5.88      5.80
    3   21   26     -1.28      8.09
    3   23   26      2.56      0.20
    3   25   26      4.97      5.13
    4    6   26     -1.94     -0.10
    4    8   26      7.15      1.00
    4   10   26    -10.80      1.82
    4   12   26     -2.58     -4.41
    4   14   26     -2.82      1.18
    4   16   26     -1.19     -1.90
    4   18   26      5.77     -3.54
    4   20   26      3.53     -4.20
    4   22   26     -0.44     -2.95
    4   24   26     -4.86      1.55
    5    5   26     -3.96     -1.22
    5    7   26     10.73      3.89
    5    9   26     -1.50     -1.88
    5   11   26      3.66     -1.76
    5   13   26      4.64      4.10
    5   15   26     -5.44     -3.07
    5   17   26      0.79      8.30
    5   19   26    -11.69     -5.99
    5   21   26     -6.89      4.28
    5   23   26      0.12    -10.23
    5   25   26    -14.34     -0.40
    6    8   26      3.51      2.68
    6   10   26     -6.09     -1.25
    6   12   26      2.11     -4.90
    6   14   26      1.41     -5.18
    6   16   26     -5.20     -4.39
    6   18   26     -3.20      2.23
    6   20   26      1.00     -5.74
    6   22   26     -1.56      4.95
    6   24   26      3.89     -5.83
    7    7   26     -5.45     -0.89
    7    9   26     -5.88     -3.67
    7   11   26      3.52     -0.13
    7   13   26      0.49      1.18
    7   15   26     -9.79      1.02
    7   17   26     -2.41      5.51
    7   19   26     -3.00     -1.74
    7   21   26      2.80      7.15
    7   23   26     -4.52     -2.76
    7   25   26     -1.39      2.75
    8   10   26     -5.14      0.04
    8   12   26      3.74      1.81
    8   14   26     -3.64      0.78
    8   16   26      0.50      5.83
    8   18   26      1.72     -1.55
    8   20   26     -2.02     -3.75
    8   22   26      1.36      1.03
    8   24   26     -9.79      0.30
    9    9   26      4.15     -0.47
    9   11   26      0.42      5.42
    9   13   26      1.68      1.18
    9   15   26     -4.23     -3.42
    9   17   26     -3.98      8.56
    9   19   26     -4.82     -3.77
    9   21   26      1.30      2.97
    9   23   26     -0.51     -3.15
    9   25   26     -6.97      2.11
   10   12   26      0.71     -4.04
   10   14   26      1.41      5.60
   10   16   26      2.50     -3.74
   10   18   26     -0.96      2.76
   10   20   26     -1.24      1.14
   10   22   26      2.62      1.81
   10   24   26     -1.72     -1.38
   11   11   26      5.87     -0.56
   11   13   26      3.78      9.12
   11   15   26      4.58      7.41
   11   17   26      3.88      5.27
   11   19   26    -10.79     -2.81
   11   21   26      1.30      5.90
   11   23   26     -0.65     -0.81
   11   25   26      1.22      0.03
   12   14   26      2.58     -3.22
   12   16   26      4.61      0.61
   12   18   26      3.50     -4.05
   12   20   26      3.56     -2.19
   12   22   26     -9.35      1.10
   12   24   26     -3.94     -0.02
   13   13   26      0.41     -5.81
   13   15   26     -6.88     -3.70
   13   17   26     -5.50     -5.18
   13   19   26      3.50     -0.66
   13   21   26     -4.16      4.49
   13   23   26     -0.95      2.69
   14   16   26     -0.43     -2.92
   14   18   26     -1.79      4.40
   14   20   26      0.68      6.48
   14   22   26     -3.63     -1.48
   14   24   26      1.52      2.96
   15   15   26      4.04      6.45
   15   17   26     -0.20      1.70
   15   19   26      3.76      4.77
   15   21   26     -2.57      4.14
   15   23   26      1.05      0.91
   16   18   26     -1.12      1.75
   16   20   26     -3.08      5.29
   16   22   26     -2.99     -1.15
   17   17   26     -0.87     -1.84
   17   19   26      2.74      3.19
   17   21   26     -1.08      2.35
   18   20   26      4.03     -3.03
   19   19   26      5.49     14.11
    0   26   26     10.45      0.38
    4   26   26      3.34      9.60
    8   26   26     -5.76      7.00
    0    1   27     -0.46      3.94
    0    3   27      0.11      7.55
    0    5   27     -0.21      5.93
    0    7   27      0.05      0.40
    0    9   27     -0.36      9.49
    0   11   27      0.20      0.60
    0   13   27     -0.28      1.90
    0   15   27      0.00     -3.68
    0   17   27     -0.04    -10.59
    0   19   27      0.18     -2.12
    0   21   27     -0.15      2.65
    0   23   27     -0.06      0.19
    0   25   27     -0.93     -7.37
    1    2   27      0.80     -5.04
    1    4   27      0.23      7.98
    1    6   27     11.64      0.08
    1    8   27      4.20      3.99
    1   10   27      3.45      2.93
    1   12   27      2.58     -1.46
    1   14   27     -6.12     -4.81
    1   16   27      0.51     -0.83
    1   18   27      3.60      1.32
    1   20   27      2.82     -2.31
    1   22   27     -1.62     -3.92
    1   24   27      0.80     -1.60
    1   26   27      2.04      1.65
    2    3   27      0.03     -7.37
    2    5   27     -3.49      0.60
    2    7   27      6.44     -0.17
    2    9   27     -2.47     -3.12
    2   11   27     -5.85     -0.25
    2   13   27      2.82     -8.05
    2   15   27      0.85      0.65
    2   17   27     -1.25     -4.32
    2   19   27     -4.16      3.69
    2   21   27      0.41      2.03
    2   23   27     -0.33     -0.33
    2   25   27      5.17     -6.47
    3    4   27      1.70      3.73
    3    6   27     -0.49     -7.28
    3    8   27      4.42      3.00
    3   10   27     -1.22     -7.43
    3   12   27      1.15      4.12
    3   14   27     -3.38     -0.37
    3   16   27      2.73      1.80
    3   18   27     -0.12      3.64
    3   20   27      2.03      1.25
    3   22   27     -3.36     -2.28
    3   24   27      1.75      3.12
    3   26   27     -2.38     -9.68
    4    5   27      3.96      9.55
    4    7   27      3.89     -2.46
    4    9   27      0.83      4.17
    4   11   27      6.60     -6.11
    4   13   27     -1.44      0.89
    4   15   27      1.44      7.18
    4   17   27      3.23     -5.42
    4   19   27     -2.93     -5.62
    4   21   27      3.20     -4.92
    4   23   27     -5.93     -1.12
    4   25   27      3.65      3.19
    5    6   27      3.41      5.56
    5    8   27      5.03     -2.64
    5   10   27     -0.25      4.72
    5   12   27     -4.01     -5.22
    5   14   27     -1.16     -4.10
    5   16   27      3.09     -1.05
    5   18   27      0.76      1.50
    5   20   27      3.79     -2.81
    5   22   27      1.16      1.50
    5   24   27      3.83     -2.35
    5   26   27     -5.61      4.36
    6    7   27      6.90    -15.46
    6    9   27      2.56      4.06
    6   11   27      0.73     -6.03
    6   13   27     -2.26     -1.06
    6   15   27     -5.81     -0.61
    6   17   27      4.10     -8.61
    6   19   27     -3.51      1.73
    6   21   27      2.90     -4.16
    6   23   27      0.93     -0.03
    6   25   27      6.47     -1.95
    7    8   27     -6.09      2.49
    7   10   27      1.44     -1.55
    7   12   27      0.53     -3.44
    7   14   27     -2.83     -0.37
    7   16   27      6.42      2.16
    7   18   27     -4.45     -1.16
    7   20   27      2.18     -6.96
    7   22   27     -4.38     -4.05
    7   24   27      2.58      1.47
    7   26   27      2.24     -9.74
    8    9   27     -6.56      3.31
    8   11   27      2.45      0.84
    8   13   27      0.94     -3.87
    8   15   27      2.57     -0.04
    8   17   27      2.17     -1.52
    8   19   27     -4.11      3.37
    8   21   27      3.01     -4.28
    8   23   27    -10.46      2.82
    8   25   27      1.09      3.24
    9   10   27      1.81     -5.53
    9   12   27     -2.40     -1.75
    9   14   27     -1.56     -3.37
    9   16   27     -4.61     -3.17
    9   18   27     -0.78      0.44
    9   20   27      4.13      0.38
    9   22   27      0.48     -2.70
    9   24   27     -0.88      1.43
   10   11   27     -1.73      0.01
   10   13   27     -7.37      7.95
   10   15   27     -2.16      2.79
   10   17   27     -8.31     -2.00
   10   19   27     -8.58     -1.99
   10   21   27      5.16     -6.27
   10   23   27      1.00      3.03
   10   25   27     -1.97     -1.94
   11   12   27     -2.54      0.34
   11   14   27      3.66      6.93
   11   16   27      6.37      0.92
   11   18   27     -0.07     -1.52
   11   20   27      5.68     -2.07
   11   22   27      0.30      4.79
   11   24   27      2.32     -2.91
   12   13   27      3.41     -1.05
   12   15   27     -1.24      3.72
   12   17   27      5.72     -0.95
   12   19   27      1.13     -2.89
   12   21   27     -5.37      0.03
   12   23   27     -4.19     -1.54
   13   14   27      4.06     -2.27
   13   16   27     -7.28     -0.16
   13   18   27     -1.19      2.97
   13   20   27     -0.90     -2.10
   13   22   27     -2.85     -2.16
   14   15   27      2.09     -0.95
   14   17   27     -6.77      0.17
   14   19   27     -2.68     -3.08
   14   21   27     -0.55      0.22
   14   23   27     -3.91     -3.97
   15   16   27      3.43     -3.42
   15   18   27     -1.31     -5.47
   15   20   27      4.74      0.38
   15   22   27     -0.36     -0.80
   16   17   27     -5.04      3.13
   16   19   27     -4.46     -1.37
   16   21   27     -1.72      8.73
   17   18   27      4.29      0.83
   17   20   27     -4.92      0.71
   18   19   27      4.10      3.11
    0    0   28     -7.36      0.09
    0    2   28     -7.49     -0.19
    0    4   28      2.58     -0.24
    0    6   28     -3.65     -0.21
    0    8   28     -8.35     -0.09
    0   10   28      3.86     -0.38
    0   12   28      6.16      0.06
    0   14   28      0.36     -0.21
    0   16   28      2.43      0.09
    0   18   28     -0.10     -0.23
    0   20   28      2.51      0.03
    0   22   28     -0.44     -0.24
    0   24   28     -2.22     -0.12
    0   26   28      6.57     -0.12
    1    3   28      1.04      0.49
    1    5   28     -9.70      2.62
    1    7   28      4.19     -1.22
    1    9   28     -7.22     -2.39
    1   11   28      6.75     -3.41
    1   13   28     -1.27     -2.57
    1   15   28      6.38     -2.39
    1   17   28     -0.39      4.12
    1   19   28     -0.22     -4.38
    1   21   28      1.85      3.10
    1   23   28      3.33      0.08
    1   25   28     -3.66      2.10
    2    2   28     -2.91      3.69
    2    4   28      6.88      3.50
    2    6   28     -2.57      6.97
    2    8   28      4.60      1.58
    2   10   28      0.69      1.70
    2   12   28      1.09      6.07
    2   14   28     -0.18     -0.12
    2   16   28     -3.78     -5.33
    2   18   28      1.45      2.43
    2   20   28      4.34     -0.79
    2   22   28      1.31     -0.95
    2   24   28      4.50     -6.07
    3    5   28      0.85      2.53
    3    7   28     -2.37     -2.95
    3    9   28      8.47      3.22
    3   11   28      1.25     -1.20
    3   13   28     -3.78      2.13
    3   15   28      5.43      0.34
    3   17   28     -0.23     -6.02
    3   19   28      1.42     -2.13
    3   21   28      7.62     -3.39
    3   23   28      0.49     -2.77
    3   25   28      4.29     -0.35
    4    4   28     -2.65      8.05
    4    6   28     -6.00     -4.63
    4    8   28      5.87      0.86
    4   10   28      0.41      2.81
    4   12   28      1.83    -10.82
    4   14   28     -1.23      3.98
    4   16   28     -2.15     -0.46
    4   18   28      1.31      6.16
    4   20   28     -8.40     -0.18
    4   22   28     -0.54      4.61
    4   24   28     -4.28     -3.82
    5    7   28     10.24     -2.42
    5    9   28      0.61      3.35
    5   11   28      2.19     -1.80
    5   13   28     -3.07      1.84
    5   15   28      4.02     -6.57
    5   17   28      0.36      4.97
    5   19   28      3.83      5.67
    5   21   28      0.36      3.86
    5   23   28      0.66     -3.57
    5   25   28     -9.06     -3.36
    6    6   28     -5.69      3.38
    6    8   28      3.45      7.92
    6   10   28     -3.41     -7.15
    6   12   28      1.24      1.07
    6   14   28     -0.60      0.22
    6   16   28      3.10     -0.63
    6   18   28     -2.61     -0.24
    6   20   28      2.58     -9.91
    6   22   28      4.58      1.47
    6   24   28      6.05     -5.10
    7    9   28      4.47      0.24
    7   11   28     -4.71     -0.26
    7   13   28      0.44     -2.33
    7   15   28      6.14      1.97
    7   17   28     -0.11     -1.78
    7   19   28     -0.05      3.31
    7   21   28     -3.35     -2.12
    7   23   28      1.41     -3.05
    7   25   28     -0.34      2.75
    8    8   28      8.87     -5.01
    8   10   28     -1.12     -4.30
    8   12   28      4.24      4.37
    8   14   28     -1.12     -2.30
    8   16   28     -1.42     -2.66
    8   18   28      2.12      5.73
    8   20   28     -6.21     -5.14
    8   22   28      4.61      2.61
    8   24   28     -1.34      1.09
    9   11   28     -5.14     -4.98
    9   13   28     -2.10     -1.69
    9   15   28      0.09     -6.29
    9   17   28     -5.67     -0.21
    9   19   28      0.68     -2.51
    9   21   28     -0.99     -2.72
    9   23   28     -2.97      1.32
   10   10   28     -9.95     -2.96
   10   12   28     -0.26      2.14
   10   14   28      0.73      0.52
   10   16   28      2.53      0.31
   10   18   28      1.61      2.60
   10   20   28     -0.30      5.02
   10   22   28      0.08      5.42
   10   24   28     -2.90     -3.27
   11   13   28     -4.06      3.40
   11   15   28     -1.40      2.67
   11   17   28      4.03     -2.09
   11   19   28     -1.64      1.27
   11   21   28     -5.24      1.14
   11   23   28      3.97      4.17
   12   12   28     -4.24      8.75
   12   14   28     -8.55      0.24
   12   16   28     -4.16      9.24
   12   18   28     -5.16      0.89
   12   20   28      0.74     -7.73
   12   22   28      3.70      6.66
   13   15   28      0.64      2.35
   13   17   28     -3.07      1.50
   13   19   28      2.09     -4.32
   13   21   28      5.99     -1.10
   14   14   28     10.70     -0.66
   14   16   28      4.97     -3.39
   14   18   28      4.79      0.07
   14   20   28      6.44      1.08
   15   17   28      0.32     -5.20
   15   19   28     -4.70     -2.32
   15   21   28      2.65     -1.70
   16   16   28     -3.99      9.95
   16   18   28     -3.94      1.92
   16   20   28     -0.41      1.38
   17   19   28     -0.20     -4.59
   18   18   28      0.32      2.59
    0    1   29     -0.02      2.63
    0    3   29      1.14     -5.40
    0    5   29      0.27      6.71
    0    7   29     -0.11    -10.16
    0    9   29      0.16      4.70
    0   11   29      0.00     -3.89
    0   13   29      0.28      6.12
    0   15   29      0.02      0.51
    0   17   29     -0.31      1.17
    0   19   29      0.14     -1.40
    0   21   29      0.10     -2.19
    0   23   29      0.02     -3.31
    1    2   29     -0.97      2.03
    1    4   29     -7.15      3.71
    1    6   29     -4.78     -3.80
    1    8   29     -3.27      1.39
    1   10   29     -4.96     -5.32
    1   12   29     -2.48      3.96
    1   14   29      0.52     -2.77
    1   16   29      1.50      0.90
    1   18   29      4.87      5.49
    1   20   29     -1.96     -0.05
    1   22   29      3.82      5.05
    1   24   29      0.06      1.58
    2    3   29      0.54      0.01
    2    5   29      1.40      4.45
    2    7   29     -5.65     -1.29
    2    9   29      2.30     -5.04
    2   11   29     -6.70     -2.47
    2   13   29      3.76      6.84
    2   15   29     -0.85     -2.49
    2   17   29      5.56      2.16
    2   19   29      4.89      1.78
    2   21   29      4.61      2.61
    2   23   29     -2.14      5.08
    3    4   29      5.64     -0.13
    3    6   29      0.03     -3.08
    3    8   29      3.83      5.37
    3   10   29      3.79     -3.35
    3   12   29     -3.92     -4.40
    3   14   29      0.55     -0.04
    3   16   29      1.32     -0.63
    3   18   29     -1.61      0.91
    3   20   29     -4.21     -4.49
    3   22   29     -6.23      1.80
    3   24   29      0.64      4.37
    4    5   29      1.48     10.77
    4    7   29      4.48      0.12
    4    9   29     -0.47      6.94
    4   11   29     -0.43     -0.22
    4   13   29     -2.66      3.17
    4   15   29     -4.53     -2.81
    4   17   29      2.92      5.63
    4   19   29     -0.42      3.32
    4   21   29      5.31     -2.17
    4   23   29     -4.49     -1.45
    5    6   29     -8.22      1.66
    5    8   29     -2.61     -5.81
    5   10   29     -2.36      1.67
    5   12   29      2.37      3.27
    5   14   29      4.19      1.98
    5   16   29     -8.05      1.43
    5   18   29      5.92     -2.62
    5   20   29     -0.47     -2.83
    5   22   29      2.13     -0.74
    5   24   29     -0.19      0.77
    6    7   29     -4.35      0.34
    6    9   29      1.79     -2.16
    6   11   29     -3.35     -3.13
    6   13   29      0.41      2.74
    6   15   29      0.25     -4.46
    6   17   29      1.78      1.92
    6   19   29     -0.14      2.61
    6   21   29     -1.50     -2.61
    6   23   29     -3.11      2.34
    7    8   29      6.53     -2.89
    7   10   29      1.64      9.37
    7   12   29      0.79      0.38
    7   14   29     -3.01     -0.95
    7   16   29      3.02     -4.33
    7   18   29      4.66     -0.52
    7   20   29     -0.06      1.43
    7   22   29      3.97     -0.16
    8    9   29     -1.58      1.37
    8   11   29      2.58     -2.94
    8   13   29      4.43      0.06
    8   15   29      0.87     -3.84
    8   17   29      0.90      3.39
    8   19   29      2.13     -3.97
    8   21   29      2.81     -0.17
    8   23   29      0.79     -0.36
    9   10   29     -3.61      1.21
    9   12   29      2.54     -1.01
    9   14   29      0.48      0.96
    9   16   29     -2.70     -0.97
    9   18   29     -0.81      4.76
    9   20   29    -11.44     -2.17
    9   22   29      0.53     -6.96
   10   11   29      7.99     -1.15
   10   13   29     -1.00      0.60
   10   15   29      8.93     -9.06
   10   17   29     -1.28      0.66
   10   19   29     -1.87     -1.44
   10   21   29      1.81     -6.85
   11   12   29     -5.63    -10.91
   11   14   29     -5.90     -6.21
   11   16   29     -2.89     -4.15
   11   18   29     -3.97     -9.96
   11   20   29     -0.70      1.56
   11   22   29      3.30      4.35
   12   13   29     -3.00     -2.45
   12   15   29     -8.21      1.92
   12   17   29      0.70      4.68
   12   19   29      0.40      4.50
   12   21   29     -2.60      4.46
   13   14   29     -3.05      1.91
   13   16   29     -2.02     -1.73
   13   18   29      4.66      9.55
   13   20   29     -3.95     -2.19
   14   15   29      5.61     -3.26
   14   17   29     -3.18     -1.09
   14   19   29     -2.81     -3.92
   15   16   29     -1.82      3.13
   15   18   29     -2.71     -1.96
   16   17   29      3.97      1.63
   16   19   29      2.30      1.68
   17   18   29     -0.27     -1.98
    0    2   30     -7.58     -0.13
    0    4   30      3.36     -0.15
    0    6   30      1.63     -0.20
    0    8   30     -0.56     -0.20
    0   10   30      3.82      0.12
    0   12   30      2.79     -0.52
    0   14   30      1.42      0.15
    0   16   30      0.27     -0.13
    0   18   30      3.67      0.14
    0   20   30     -4.81      0.04
    0   22   30      5.72      0.07
    1    1   30      0.88     -6.06
    1    3   30     -0.72    -10.45
    1    5   30      4.35     -1.93
    1    7   30      5.08     -7.29
    1    9   30     -1.74     -7.07
    1   11   30      0.77      5.28
    1   13   30      1.28     -0.51
    1   15   30     -6.98      2.00
    1   17   30     -0.77      0.44
    1   19   30     -3.42      2.28
    1   21   30      6.71      1.21
    1   23   30      1.70     -1.92
    2    4   30     11.23     -3.17
    2    6   30     -5.90     -2.96
    2    8   30     12.17     -1.27
    2   10   30     -6.19     -2.89
    2   12   30      4.83     -1.13
    2   14   30     -0.34      2.36
    2   16   30      0.96      3.94
    2   18   30     -1.39     -2.80
    2   20   30     -6.63     -3.35
    2   22   30     -1.77     -2.14
    3    3   30     -6.46     15.83
    3    5   30     -0.95      8.32
    3    7   30     -2.03      2.64
    3    9   30      0.53     -4.40
    3   11   30     -0.63     -4.38
    3   13   30      0.06     -5.52
    3   15   30     -8.19      3.44
    3   17   30      3.37     -2.95
    3   19   30     -0.80      4.07
    3   21   30      2.56      1.54
    3   23   30      3.64      3.48
    4    6   30      3.89      1.29
    4    8   30     -2.71     -6.21
    4   10   30      6.04     -0.83
    4   12   30      2.61      4.45
    4   14   30     -3.70      1.34
    4   16   30     -1.65     -0.08
    4   18   30      8.78     -1.41
    4   20   30      4.34     -0.60
    4   22   30      2.55      1.07
    5    5   30     -2.60     -5.93
    5    7   30     -1.35     -4.67
    5    9   30     -1.02     -4.13
    5   11   30     -3.40      5.69
    5   13   30      0.21     -4.09
    5   15   30     -3.18     -1.85
    5   17   30      2.82     -3.68
    5   19   30     -6.69      0.40
    5   21   30     -1.46     -2.77
    5   23   30     -0.19     -3.44
    6    8   30      1.48      1.30
    6   10   30     -1.39      0.19
    6   12   30     -8.06      2.01
    6   14   30     -2.92     -1.51
    6   16   30      3.05      6.85
    6   18   30      1.91     -3.32
    6   20   30     -6.08      2.74
    6   22   30     -0.20     -0.77
    7    7   30     -3.91     -6.33
    7    9   30     -1.52     -0.98
    7   11   30      1.29     -3.70
    7   13   30      6.61      1.54
    7   15   30     -5.28      4.48
    7   17   30      5.07     -0.42
    7   19   30      1.19      1.06
    7   21   30     -1.78     -0.88
    8   10   30     -1.82      0.88
    8   12   30     -3.73      3.12
    8   14   30     -4.63      2.16
    8   16   30      1.38      2.97
    8   18   30     -2.80     -4.36
    8   20   30     -1.26      1.17
    8   22   30      1.33     -2.82
    9    9   30      4.74      6.72
    9   11   30     -2.89      4.48
    9   13   30      4.69      8.13
    9   15   30     -0.76     -0.06
    9   17   30      7.60     -0.57
    9   19   30      1.95     -2.65
    9   21   30      1.47      0.75
   10   12   30      7.23     -1.95
   10   14   30      5.18      0.04
   10   16   30      5.62     -4.26
   10   18   30      4.24     -7.27
   10   20   30      0.80      2.34
   11   11   30      3.32     -3.46
   11   13   30      5.77      2.04
   11   15   30      0.09      3.13
   11   17   30      4.84      1.22
   11   19   30     -9.47      6.74
   12   14   30     -3.91     -9.06
   12   16   30      2.07      4.09
   12   18   30     -0.78      0.66
   12   20   30     -5.25     -1.95
   13   13   30      4.60     -7.41
   13   15   30     -1.91     -7.05
   13   17   30     -3.73     -2.34
   13   19   30      1.29     -3.88
   14   16   30     -2.37     -5.30
   14   18   30     -0.89     -0.51
   15   15   30      0.76     10.72
   15   17   30      7.45      1.61
    0    1   31     -0.11     -0.94
    0    3   31      0.37     -1.01
    0    5   31     -0.18     16.57
    0    7   31     -0.19     -3.00
    0    9   31      0.17      6.72
    0   11   31      0.12     -1.10
    0   13   31      0.41     -1.52
    0   15   31      0.08      0.20
    0   17   31     -0.01     -6.51
    0   19   31      0.19      2.11
    0   21   31      0.20     -3.91
    1    2   31      3.30      4.12
    1    4   31     -1.96     -5.38
    1    6   31     -1.42      5.54
    1    8   31     -4.90      1.60
    1   10   31     -7.24      0.30
    1   12   31     -0.49      0.17
    1   14   31      2.67      6.99
    1   16   31     -2.21      0.56
    1   18   31      1.95      1.07
    1   20   31      2.71     -3.39
    1   22   31      5.36     -1.66
    2    3   31      0.63      2.26
    2    5   31     -1.95     -5.06
    2    7   31      2.06     -1.10
    2    9   31      1.42     -6.63
    2   11   31      5.56     -0.51
    2   13   31     -3.09     -3.13
    2   15   31      2.17      6.20
    2   17   31     -1.26     -4.55
    2   19   31     -1.29      7.43
    2   21   31     -0.84     -0.72
    3    4   31      5.78      2.13
    3    6   31      7.48      0.98
    3    8   31      4.66      0.58
    3   10   31      8.34     -0.37
    3   12   31     -0.68      0.88
    3   14   31     -2.80      0.59
    3   16   31      1.18      3.38
    3   18   31      0.94      3.08
    3   20   31      1.01      3.96
    3   22   31     -3.39     -2.23
    4    5   31     -1.87      2.66
    4    7   31     -1.80     -0.83
    4    9   31     -4.81      8.18
    4   11   31      4.53      0.37
    4   13   31      2.50     -8.27
    4   15   31     10.08      1.50
    4   17   31     -4.02     -0.47
    4   19   31      3.68      1.93
    4   21   31     -1.73     -4.00
    5    6   31     -7.60      3.52
    5    8   31     -6.07      4.35
    5   10   31     -5.23     -2.17
    5   12   31      0.82     -1.31
    5   14   31      1.94      4.49
    5   16   31     -0.28     -3.53
    5   18   31     -3.03      3.36
    5   20   31      1.85      4.03
    6    7   31     -0.18     -3.83
    6    9   31      2.23     -8.37
    6   11   31      6.86      0.83
    6   13   31     -2.68     -0.82
    6   15   31     -1.17      4.06
    6   17   31     -0.09     -9.10
    6   19   31      5.55      2.63
    6   21   31      2.87     -1.88
    7    8   31      2.52      0.70
    7   10   31      0.48     -5.58
    7   12   31      2.04     -2.97
    7   14   31     -5.27     -3.39
    7   16   31      3.29     -5.52
    7   18   31     -4.01      2.75
    7   20   31      4.62     -0.06
    8    9   31     -2.69      2.62
    8   11   31     -5.70      2.09
    8   13   31     -3.62     -1.44
    8   15   31      2.86      0.56
    8   17   31     -0.18      1.16
    8   19   31      5.09      9.94
    9   10   31     -2.50     -3.07
    9   12   31     -0.51      0.68
    9   14   31     -1.65      7.80
    9   16   31      0.29     -4.31
    9   18   31     -0.67      1.73
    9   20   31      1.54      2.86
   10   11   31     -4.21      7.08
   10   13   31     -4.50      4.67
   10   15   31     -1.95      4.71
   10   17   31     -3.57     -0.72
   10   19   31     -0.57     -0.53
   11   12   31     -1.24      2.17
   11   14   31      1.03      9.25
   11   16   31      6.00      0.35
   11   18   31      3.14      0.57
   12   13   31      7.00     -2.31
   12   15   31      3.10     -0.01
   12   17   31      0.70     -2.96
   13   14   31      6.82     -2.10
   13   16   31     -2.05     -7.52
   13   18   31     -0.72      2.58
   14   15   31      3.85      1.81
   14   17   31     -3.49      0.46
   15   16   31      4.77      3.05
    0    0   32    -16.50      0.42
    0    2   32     -2.82     -0.04
    0    4   32    -14.85     -0.19
    0    6   32      0.26      0.29
    0    8   32     -4.62      0.03
    0   10   32     -3.83     -0.06
    0   12   32     -8.99     -0.04
    0   14   32      4.62      0.02
    0   16   32     -6.79     -0.11
    0   18   32      3.79     -0.22
    0   20   32      5.25      0.24
    1    3   32     -5.25     -5.36
    1    5   32      1.91     -4.78
    1    7   32     -1.31      0.00
    1    9   32     -0.73      1.43
    1   11   32     -0.49      3.09
    1   13   32     -5.29      6.84
    1   15   32      4.56      3.40
    1   17   32     -0.32     -0.21
    1   19   32      0.62      0.35
    2    2   32      8.99     -1.45
    2    4   32     11.81      4.96
    2    6   32      4.35      0.50
    2    8   32      5.32      3.18
    2   10   32     -4.07     -5.07
    2   12   32     -8.23     -0.79
    2   14   32     -4.43     -1.36
    2   16   32     -3.09      3.05
    2   18   32      2.17     -2.54
    2   20   32     -2.42      0.18
    3    5   32      7.60     -0.24
    3    7   32      0.13     -0.96
    3    9   32     -7.80      1.37
    3   11   32      2.53     -4.47
    3   13   32      0.76      4.97
    3   15   32     -0.22      1.89
    3   17   32     -5.89      2.12
    3   19   32      2.07    -10.20
    4    4   32    -14.20     -1.73
    4    6   32     -5.53      3.80
    4    8   32     -5.84      1.41
    4   10   32      5.04     -0.54
    4   12   32     -0.59      6.67
    4   14   32      3.36      1.99
    4   16   32     -7.37     -1.06
    4   18   32     -0.79      1.22
    4   20   32     -3.55     -1.12
    5    7   32     -1.90     -5.29
    5    9   32     -3.49      1.23
    5   11   32      2.48      6.44
    5   13   32     -6.71     11.35
    5   15   32      5.07     -3.13
    5   17   32      1.34      4.17
    5   19   32      2.05     -2.11
    6    6   32     -2.64     -3.23
    6    8   32      7.74     -1.87
    6   10   32     -7.91      1.89
    6   12   32     -1.06     -2.56
    6   14   32      6.41      0.29
    6   16   32     -1.11      4.39
    6   18   32      0.06     -0.27
    6   20   32     -3.69     -4.09
    7    9   32     -3.30      1.70
    7   11   32      5.79     -4.71
    7   13   32      2.92      1.32
    7   15   32     -0.62     -0.08
    7   17   32     -1.78      3.06
    7   19   32      0.02     -0.19
    8    8   32      0.21      0.27
    8   10   32      2.70      1.33
    8   12   32      5.34     -0.16
    8   14   32      2.94      0.38
    8   16   32     -7.84     -4.94
    8   18   32      1.07     -0.71
    9   11   32     -2.36     -3.09
    9   13   32     -1.91     -4.02
    9   15   32     -5.40     -5.57
    9   17   32     -2.17      1.67
   10   10   32     -7.77      2.61
   10   12   32     -6.55     -5.86
   10   14   32     -0.78      0.71
   10   16   32     -3.59      0.65
   10   18   32      1.88      5.84
   11   13   32     -2.12      4.01
   11   15   32     -6.87      6.84
   11   17   32      4.31      2.20
   12   12   32     -0.69      7.90
   12   14   32     -2.07     -2.05
   12   16   32     -5.65      7.45
   13   15   32     -0.57     -2.18
   14   14   32      7.69      4.60
    0    1   33     -0.31     -2.08
    0    3   33     -0.18      0.51
    0    5   33      0.28      0.82
    0    7   33     -0.02      3.13
    0    9   33      0.15      4.59
    0   11   33     -0.41      1.06
    0   13   33     -0.56      3.79
    0   15   33     -0.02     -4.23
    0   17   33     -1.03      3.66
    0   19   33     -0.07     -1.89
    1    2   33      2.41     -2.14
    1    4   33      0.34     -4.35
    1    6   33     -8.79      2.10
    1    8   33      0.64      0.99
    1   10   33      0.08     -8.56
    1   12   33     -2.15     -1.70
    1   14   33      2.71     -7.22
    1   16   33      7.68      1.46
    1   18   33     -1.01      0.26
    2    3   33      5.11      4.17
    2    5   33      3.41    -12.03
    2    7   33     -0.77     -5.48
    2    9   33     -0.87     -9.44
    2   11   33     -0.48     -3.45
    2   13   33     -4.72     -3.67
    2   15   33     -7.41      6.89
    2   17   33      2.14      0.53
    2   19   33      1.15     -1.19
    3    4   33     -0.59      0.16
    3    6   33     -1.43      0.57
    3    8   33      3.13      0.85
    3   10   33      0.41      1.15
    3   12   33      1.69      5.94
    3   14   33     -3.60    -12.00
    3   16   33      0.89     -0.59
    3   18   33     -0.21      0.75
    4    5   33     -1.71     10.17
    4    7   33      2.86      0.59
    4    9   33      0.67      7.80
    4   11   33     -5.23     -3.04
    4   13   33      0.89     -0.37
    4   15   33      0.23     -4.18
    4   17   33     -2.21      0.45
    5    6   33      4.04     -6.13
    5    8   33     -4.89     -1.48
    5   10   33    -13.14     -6.76
    5   12   33      2.99      3.35
    5   14   33     -0.91      3.51
    5   16   33      1.11      4.11
    5   18   33     -4.88     -6.35
    6    7   33      0.35     -4.48
    6    9   33     -1.58     -6.37
    6   11   33     -3.82     -3.81
    6   13   33     -0.52      4.21
    6   15   33     -7.26      3.50
    6   17   33      4.40      0.97
    7    8   33     -1.83     -3.28
    7   10   33      4.86      0.93
    7   12   33     -3.28      6.51
    7   14   33      1.27     -2.46
    7   16   33      2.10     -0.40
    8    9   33      3.20     12.55
    8   11   33     -0.56     -0.72
    8   13   33      7.91     -1.14
    8   15   33      3.85      4.13
    8   17   33     -0.40     -3.59
    9   10   33      0.89     -3.26
    9   12   33      3.10     -1.76
    9   14   33      6.21      0.72
    9   16   33      0.36     -1.47
   10   11   33      0.91     -1.85
   10   13   33     -0.44     -4.34
   10   15   33      1.52      0.05
   11   12   33     -5.26     -5.08
   11   14   33     -3.78     -2.28
   12   13   33     -2.44     -7.09
   12   15   33     -4.26      0.06
   13   14   33     -1.41      2.99
    0    2   34      4.64      0.50
    0    4   34    -14.30      0.22
    0    6   34      2.03      0.17
    0    8   34      1.66     -0.02
    0   10   34      5.59      0.00
    0   12   34      7.10      0.69
    0   14   34     12.28     -0.43
    0   16   34      3.10      0.00
    1    1   34      0.00      0.39
    1    3   34      0.41     -7.31
    1    5   34      3.36     -6.14
    1    7   34      2.76     -0.66
    1    9   34     -2.16      1.89
    1   11   34      1.55     -5.85
    1   13   34     -6.44      1.92
    1   15   34      2.84     -0.55
    1   17   34      1.72     -3.19
    2    4   34      2.48     -6.35
    2    6   34      3.09     -1.61
    2    8   34     -0.69      2.05
    2   10   34     -4.60      3.30
    2   12   34      3.04     -4.16
    2   14   34     -6.35     -0.34
    2   16   34      7.17      3.21
    3    3   34     -1.50      5.13
    3    5   34      2.12      7.64
    3    7   34      1.56      3.25
    3    9   34     -2.36      3.05
    3   11   34      7.29     -4.52
    3   13   34      0.89     -7.33
    3   15   34      2.59     -5.18
    3   17   34      1.76      0.68
    4    6   34      3.05      3.89
    4    8   34     -2.40      0.11
    4   10   34      1.48      0.13
    4   12   34      5.29     -0.38
    4   14   34      0.72      1.77
    4   16   34      0.07     -7.37
    5    5   34     -1.69     -1.99
    5    7   34     -3.07     -2.40
    5    9   34      0.92     -0.10
    5   11   34      0.97      4.43
    5   13   34     -4.83     -2.45
    5   15   34      3.15     -2.84
    6    8   34      9.37     -2.59
    6   10   34     -6.92     -2.93
    6   12   34     -1.62     -5.33
    6   14   34     -4.60      0.40
    6   16   34     -0.13      0.91
    7    7   34      0.45      7.00
    7    9   34      2.39      2.41
    7   11   34     -1.43     -4.07
    7   13   34     -3.75     -3.03
    7   15   34     -3.55      3.28
    8   10   34      1.75      4.14
    8   12   34      2.52      3.53
    8   14   34      0.05      1.33
    9    9   34      1.95     -2.55
    9   11   34     -1.93      9.01
    9   13   34     -0.16      2.27
   10   12   34      1.11      0.61
   10   14   34      7.15     -0.70
   11   11   34      5.01     -2.62
   11   13   34      2.27     -1.27
    0    1   35     -0.18     -2.80
    0    3   35     -0.29      2.20
    0    5   35      0.20     -1.26
    0    7   35      0.17      7.75
    0    9   35     -0.03     -0.41
    0   11   35      0.19     -4.22
    0   13   35      0.19      8.31
    0   15   35      0.68     -9.81
    1    2   35      1.58     -2.87
    1    4   35      0.41     -1.83
    1    6   35     -4.71     -5.49
    1    8   35     -5.28      1.48
    1   10   35     -0.41      0.29
    1   12   35     -2.11      8.80
    1   14   35      1.74      6.43
    2    3   35     -0.31     12.41
    2    5   35     -1.19     -3.06
    2    7   35     -3.95      1.95
    2    9   35      5.04     -0.05
    2   11   35      5.63      0.12
    2   13   35      6.01      1.64
    2   15   35     -0.07      5.80
    3    4   35      7.36      0.42
    3    6   35      4.67     -3.46
    3    8   35      4.73      3.29
    3   10   35     -1.82     -2.25
    3   12   35      0.79      4.34
    3   14   35      0.45     -0.78
    4    5   35     -3.18     -4.03
    4    7   35     -6.17     -1.87
    4    9   35     -1.01     10.68
    4   11   35     -0.49     -1.36
    4   13   35      6.53      5.98
    5    6   35      1.24     -1.36
    5    8   35     -1.66     -0.05
    5   10   35     -4.34      1.47
    5   12   35      0.59      1.92
    5   14   35      5.51      1.09
    6    7   35      0.26      6.47
    6    9   35      1.08     -4.32
    6   11   35      1.25     -4.48
    6   13   35      2.34      1.93
    7    8   35      7.13      2.03
    7   10   35      7.43      0.79
    7   12   35     -2.73     -4.48
    8    9   35     -2.83      3.87
    8   11   35      0.24     -0.25
    8   13   35     -0.06     -2.37
    9   10   35     -5.77      1.18
    9   12   35     -1.63      2.36
   10   11   35      3.64      1.89
    0    0   36      0.90     -0.44
    0    2   36      9.57     -0.10
    0    4   36     -8.49      0.19
    0    6   36      3.13      0.09
    0    8   36      4.65     -0.08
    0   10   36     -3.63     -0.48
    0   12   36     -4.87     -0.04
    1    3   36     -0.07     -1.64
    1    5   36    -10.65     -8.41
    1    7   36      2.80      0.81
    1    9   36     -5.01      4.51
    1   11   36      0.36      4.62
    2    2   36      2.41      2.49
    2    4   36     -0.65     -1.29
    2    6   36      4.07      3.81
    2    8   36      3.00     -0.72
    2   10   36     -4.75      1.07
    2   12   36      0.44     -1.57
    3    5   36     -2.14     -4.15
    3    7   36     -0.44     -1.28
    3    9   36     -3.67     -0.61
    3   11   36     -0.26      1.09
    4    4   36     -5.63      5.68
    4    6   36      0.74      2.76
    4    8   36     -2.51     -2.04
    4   10   36     -1.27      4.39
    4   12   36      3.61     -1.35
    5    7   36     -1.11     -4.96
    5    9   36     -5.75     -2.54
    5   11   36     -3.70      5.98
    6    6   36     -3.57      5.82
    6    8   36      6.24     -0.65
    6   10   36     -4.78      5.10
    7    9   36      3.99      0.50
    8    8   36    -10.68      0.04
    8   10   36      1.86      1.29
    0    1   37      0.18     -4.43
    0    3   37      0.05     -2.20
    0    5   37     -0.13      1.02
    0    7   37      0.40      0.09
    0    9   37      0.37      3.92
    1    2   37      5.04     -4.14
    1    4   37      2.38      6.99
    1    6   37      0.58     -1.56
    1    8   37     -3.14      2.56
    2    3   37      4.97      2.24
    2    5   37      0.66     -2.41
    2    7   37      1.95     -4.22
    2    9   37      2.56      2.66
    3    4   37     -4.42      5.02
    3    6   37     -0.30     -3.55
    3    8   37     -1.09      1.23
    4    5   37      0.59      2.04
    4    7   37      0.19     -4.18
    5    6   37      3.99     -1.16
    5    8   37     -2.16     -2.98
    6    7   37     -1.46      0.71
    0    2   38     -5.92     -0.22
    0    4   38     -2.91     -0.04
    1    1   38     -1.16      8.01
    1    3   38      5.09      0.65
    0    2    2   -165.58      0.68
    0    0    4    290.06      0.20
    1    4    5     -3.17    -22.58
    0    1    7      0.15     -2.38
    1    2    7     45.47    -16.24
    0    0    8      9.55      0.35
    2    4    8     20.91      8.61
    0    8    8     12.19     -0.01
    0    6   10     20.79     -0.06
   22   23   23     -6.76     -2.73
   22   22   24      2.50      1.41
   19   23   24     -5.25      0.56
   21   23   24      3.47     -1.49
   20   21   25      6.87      5.55
   19   22   25      1.78     -3.06
   21   22   25     -1.07     -1.21
   18   23   25      0.89     -2.02
   17   24   25     -2.87     -1.70
   19   21   26      2.10     -0.30
   18   22   26      0.59     -1.63
   17   23   26      2.20      3.52
   16   24   26      1.20     -5.86
   13   25   26      2.99      2.06
   15   25   26      1.67     -1.13
   12   26   26     -4.57      2.06
   19   20   27      5.34      3.65
   18   21   27     -2.98     -0.74
   17   22   27     -3.58      2.42
   16   23   27     -0.10     -1.50
   13   24   27      0.74     -2.23
   15   24   27      0.14     -1.22
   12   25   27      2.61     -0.32
   14   25   27     -0.50      0.51
    9   26   27      0.52     -1.92
   11   26   27      1.74     -1.01
    2   27   27    -10.62      3.73
    6   27   27     -6.90     -0.42
   18   20   28      0.76      0.41
   17   21   28     -2.67     -1.96
   14   22   28      0.55      3.62
   16   22   28     -1.70      1.69
   13   23   28     -2.67     -2.03
   15   23   28     -2.24     -0.71
   12   24   28      3.14      5.46
    9   25   28     -6.64     -5.85
   11   25   28      0.08      0.66
    2   26   28      3.98     -1.10
    4   26   28      2.59      6.82
    6   26   28     -1.09     -2.74
    8   26   28      2.77      4.13
    1   27   28      3.68      0.55
    3   27   28      3.31      0.09
    5   27   28      0.79      5.50
   18   19   29      0.25     -1.84
   15   20   29      0.24     -2.45
   17   20   29     -2.72     -2.36
   14   21   29      6.28     -2.67
   16   21   29      3.43      2.77
   13   22   29     -0.73      2.42
   15   22   29      1.01      2.15
   10   23   29     -1.34     -2.37
   12   23   29     -0.77      0.80
    7   24   29      0.24      7.72
    9   24   29     -0.81     -0.65
   11   24   29     -3.36      3.03
    0   25   29     -0.01     -4.30
    2   25   29     -3.33     -0.66
    4   25   29      5.93      3.02
    6   25   29     -1.21     -0.96
    8   25   29      2.04      1.00
    1   26   29      1.42     -2.45
    3   26   29      0.70     -5.61
    5   26   29     -0.87      3.27
   17   17   30     -3.89     -0.34
   16   18   30      2.73     -2.25
   15   19   30      0.08      9.14
   17   19   30      0.46     -1.94
   14   20   30      2.26      3.78
   11   21   30     -4.97     -5.14
   13   21   30      3.58     -1.55
   10   22   30      0.49     -5.12
   12   22   30      0.94     -0.28
    7   23   30      1.95      4.37
    9   23   30     -0.94      1.73
   11   23   30      3.35     -0.34
    0   24   30     -0.32     -0.32
    2   24   30     -1.90     -6.00
    4   24   30     -1.75      0.05
    6   24   30     -0.83     -6.05
    8   24   30      2.26      3.09
    1   25   30     -1.31     -4.05
    3   25   30     -0.06      1.99
    5   25   30     -4.22      0.39
   16   17   31     -2.25     -0.30
   15   18   31      2.86     -1.30
   12   19   31      6.94      0.15
   14   19   31     -3.02      5.65
   11   20   31      6.58     -0.05
   13   20   31     -5.28      0.18
    8   21   31     -3.47      4.24
   10   21   31      1.81     -4.21
   12   21   31     -3.36     -0.67
    5   22   31      1.44      1.59
    7   22   31     -0.52     -0.71
    9   22   31     -1.04     -1.68
    0   23   31     -0.08     -0.61
    2   23   31     -3.34      5.24
    4   23   31     -2.54     -0.79
    6   23   31     -2.37      1.81
    1   24   31      4.16      0.29
    3   24   31     -2.66     -5.12
   14   16   32      2.68      1.10
   16   16   32     -3.66      4.51
   13   17   32     -3.65      2.68
   15   17   32      2.80     -0.64
   12   18   32     -1.45     -0.36
   14   18   32      3.02     -3.45
    9   19   32     -0.65     -4.17
   11   19   32      0.97      2.96
    8   20   32     -3.90     -3.24
   10   20   32      0.10      5.99
    1   21   32     -2.62      2.38
    3   21   32     -0.71     -6.90
    5   21   32     -1.57      3.72
    7   21   32     -4.38      0.49
    9   21   32     -6.26      5.07
    0   22   32      1.55      0.19
    2   22   32      5.63      0.86
    4   22   32     -0.17      1.33
    6   22   32     -2.24      1.91
   14   15   33      6.71      0.01
   11   16   33      0.70     -2.41
   13   16   33     -1.40     -1.37
   10   17   33     -2.07     -6.51
   12   17   33     -3.50     -0.01
    7   18   33      4.66     -2.59
    9   18   33     -0.17     -1.23
   11   18   33     -2.15     -4.84
    4   19   33      0.80      0.74
    6   19   33     -5.49     -1.52
    8   19   33     -2.45      0.32
   10   19   33     -1.83     -3.45
    1   20   33      2.42      3.84
    3   20   33     -1.98     -2.50
    5   20   33     -2.54      0.57
    7   20   33      3.43     -1.59
    0   21   33     -0.26     -8.21
    2   21   33      3.94      1.68
    4   21   33      5.26     -3.88
   13   13   34      0.79      2.52
   12   14   34      1.63     -3.21
    9   15   34      3.31      0.30
   11   15   34      2.43      0.71
   13   15   34      1.74     -4.48
    8   16   34     -2.51      2.46
   10   16   34     -0.18      3.08
    5   17   34      1.49     -2.97
    7   17   34     -4.76     -1.27
    9   17   34      0.88     -1.97
    0   18   34      4.38      0.08
    2   18   34      0.54      3.17
    4   18   34      2.71     -1.32
    6   18   34      0.99     -0.97
    8   18   34     -0.68      1.36
    1   19   34      0.54      1.12
    3   19   34     -0.47     -0.33
    5   19   34     -1.15     -0.22
   11   12   35      0.90      0.83
   10   13   35     -2.86      3.77
   12   13   35      2.48     -1.59
    7   14   35     -0.78     -4.51
    9   14   35     -0.61     -1.95
   11   14   35     -2.85     -1.47
    4   15   35      6.46     -2.33
    6   15   35      1.40     -2.67
    8   15   35      2.13     -0.90
   10   15   35      2.01      3.03
    1   16   35      5.21      6.06
    3   16   35     -2.45     -0.62
    5   16   35      4.03     -0.03
    7   16   35      1.81      1.56
    0   17   35     -0.20     -2.50
    2   17   35      2.26      1.83
    4   17   35      3.35      1.57
    6   17   35      0.81     -3.35
    1   18   35     -1.46      1.37
   10   10   36     -5.79      3.27
    7   11   36      0.13     -4.32
    9   11   36     -2.12      2.96
    6   12   36      1.62      2.09
    8   12   36      4.00     -0.30
   10   12   36     -0.90     -0.56
    1   13   36     -2.27      6.15
    3   13   36      0.68      0.96
    5   13   36      0.33      1.41
    7   13   36      0.66      0.12
    9   13   36     -2.70      0.01
    0   14   36     -4.20     -0.11
    2   14   36     -9.47     -1.30
    4   14   36     -1.08      2.25
    6   14   36     -0.42      1.38
    1   15   36      0.50      3.84
    3   15   36     -2.05      1.64
    5   15   36      1.71      4.81
    7    8   37     -2.10      0.89
    4    9   37      0.67      2.76
    6    9   37      4.58     -3.87
    8    9   37      2.98      4.46
    1   10   37      1.39     -4.58
    3   10   37      4.81      2.71
    5   10   37     -1.31      0.11
    7   10   37      5.34      2.78
    9   10   37     -0.21     -3.44
    0   11   37     -0.22     -4.64
    2   11   37     -4.23      0.35
    4   11   37     -0.29     -2.68
    6   11   37     -2.12     -1.70
    1   12   37     -0.98     -1.56
    3   12   37     -1.67     -1.95
    5   12   37     -3.11      1.11
    0   13   37     -0.04     -1.12
    2   13   37     -2.04      2.26
    3    3   38      6.26      2.23
    2    4   38     -0.58     -2.26
    1    5   38     -0.88      2.52
    3    5   38      0.90      0.14
    5    5   38     -0.90      1.93
    0    6   38     -7.43      0.01
    2    6   38     -3.22     -1.92
    4    6   38      0.36     -2.53
    1    7   38      0.39     -0.33
    3    7   38     -2.48      4.77
    5    7   38      1.66     -0.35
    7    7   38     -2.03      6.41
    0    8   38      2.42     -0.03
    2    8   38      1.47      1.89
    4    8   38      0.16      1.91
    6    8   38     -0.53     -0.34
    1    9   38     -2.11      1.22
    3    9   38      0.69     -2.99
    5    9   38      3.24     -5.45
    0   10   38      5.53     -0.02
    2   10   38     -3.38     -1.14
    0    0    0      0.00      0.00
# SQUEEZE RESULTS (Version = 150216)
# Note: Data are Listed for all Voids in the P1 Unit Cell
# i.e. Centre of Gravity, Solvent Accessible Volume,
# Recovered number of Electrons in the Void and
# Details about the Squeezed Material
loop_
  _platon_squeeze_void_nr
  _platon_squeeze_void_average_x
  _platon_squeeze_void_average_y
  _platon_squeeze_void_average_z
  _platon_squeeze_void_volume
  _platon_squeeze_void_count_electrons
  _platon_squeeze_void_content
   1  0.250 -0.125  0.000       300        83 ' '
   2  0.875  0.000  0.250       300        83 ' '
   3  0.250  0.125  0.500       300        83 ' '
   4  0.625  0.000  0.750       300        83 ' '
   5  0.548  0.048  0.452        21         5 ' '
   6  0.952  0.048  0.548        21         5 ' '
   7  0.500  0.250  0.125       300        83 ' '
   8  0.000  0.250  0.875       300        83 ' '
   9  0.202  0.202  0.202        21         5 ' '
  10  0.298  0.202  0.798        21         5 ' '
  11  0.750  0.375  0.500       300        83 ' '
  12  0.798  0.298  0.202        21         5 ' '
  13  0.702  0.298  0.798        21         5 ' '
  14  0.125  0.500  0.250       300        83 ' '
  15  0.375  0.500  0.750       300        83 ' '
  16  0.452  0.452  0.452        21         5 ' '
  17  0.048  0.452  0.548        21         5 ' '
  18  0.750  0.625  0.000       300        83 ' '
  19  0.452  0.548  0.048        21         5 ' '
  20  0.048  0.548  0.952        21         5 ' '
  21  0.500  0.750  0.375       300        83 ' '
  22  1.000  0.750  0.625       300        83 ' '
  23  0.798  0.702  0.298        21         5 ' '
  24  0.702  0.702  0.702        21         5 ' '
  25  0.202  0.798  0.298        21         5 ' '
  26  0.298  0.798  0.702        21         5 ' '
  27  0.548  0.952  0.048        21         5 ' '
  28  0.952  0.952  0.952        21         5 ' '
# Missing Reflections Below sin(th)/lambda = 0.25
loop_
  _platon_missing_refln_index_h
  _platon_missing_refln_index_k
  _platon_missing_refln_index_l
  _platon_missing_refln_theta
    0    2    2     1.912
    0    0    4     2.704
    1    4    5     4.384
    0    1    7     4.785
    1    2    7     4.973
    0    0    8     5.415
    2    4    8     6.207
    0    8    8     7.670
    0    6   10     7.907
_platon_squeeze_void_probe_radius                  1.20
_platon_squeeze_details
"
In order to subtract the contribution from the disordered solvent molecules,
the SQUEEZE command was applied.
SQUEEZE removed six disordered DMF and four disordered water molecules per formula unit. This valueis calculated based upon volume/count_electrons analysis.
See ref. Bi, Y. F.; Wang, X. T.; Liao, W. P.; Wang, X. F.; Wang, X. W.;
Zhang, H. J.; Gao, S. J. Am. Chem. Soc. 2009, 131, 11650.
"

)
TITL 1 in I-43d
CELL   30.1254   30.1254   30.1254     90.00     90.00     90.00
SPGR I-43d
# Solvent Accessible Volume =      3954
# Electrons Found in S.A.V. =      1065
# Note: Atoms in Void as Cxxx and Qxxx all others
C101 0.516 0.296 0.014 !       1.54 eA-3
C102 0.154 0.502 0.217 !       1.51 eA-3
Q103 0.939 0.994 0.187 !       1.40 eA-3
C104 0.006 0.305 0.831 !       1.32 eA-3
C105 0.506 0.805 0.331 !       1.32 eA-3
C106 0.256 0.081 0.555 !       1.32 eA-3
C107 0.014 0.984 0.297 !       1.32 eA-3
C108 0.259 0.139 0.483 !       1.28 eA-3
Q109 0.709 0.476 0.329 !       1.27 eA-3
C110 0.051 0.248 0.941 !       1.25 eA-3
Q111 0.176 0.176 0.176 !       1.17 eA-3
Q112 0.859 0.385 0.491 !       1.15 eA-3
C113 0.482 0.332 0.139 !       1.14 eA-3
Q114 0.937 0.069 0.150 !       1.14 eA-3
Q115 0.411 0.451 0.454 !       1.08 eA-3
C116 0.182 0.470 0.260 !       1.05 eA-3
Q117 0.079 0.216 0.297 !       1.03 eA-3
Q118 0.985 0.998 0.179 !       0.98 eA-3
Q119 0.447 0.204 0.005 !       0.95 eA-3
C120 0.483 0.267-0.002 !       0.92 eA-3
C121 0.017 0.264 0.998 !       0.92 eA-3
C122 0.498 0.514 0.767 !       0.92 eA-3
Q123 0.546 0.689 0.312 !       0.91 eA-3
C124 0.533 0.255 0.156 !       0.90 eA-3
C125 0.560 0.760 0.336 !       0.90 eA-3
Q126 0.773 0.737 0.312 !       0.89 eA-3
Q127 0.146 0.625 0.447 !       0.89 eA-3
Q128 0.788 0.050 0.328 !       0.87 eA-3
C129 0.303 0.149 0.444 !       0.86 eA-3
C130 0.188 0.141 0.497 !       0.86 eA-3
C131 0.532 0.307 0.162 !       0.85 eA-3
C132 0.697 0.648 0.032 !       0.85 eA-3
C133 0.804 0.712 0.032 !       0.83 eA-3
Q134 0.172 0.548 0.174 !       0.83 eA-3
C135 0.804 0.618 0.038 !       0.83 eA-3
C136 0.869 0.118 0.299 !       0.82 eA-3
Q137 0.757 0.014 0.706 !       0.81 eA-3
Q138 0.257 0.514 0.206 !       0.81 eA-3
Q139 0.007 0.956 0.264 !       0.81 eA-3
Q140 0.507 0.456 0.764 !       0.81 eA-3
Q141 0.743 0.543 0.078 !       0.81 eA-3
Q142 0.555 0.264 0.998 !       0.80 eA-3
Q143 0.335 0.166 0.373 !       0.80 eA-3
Q144 0.814 0.259 0.221 !       0.80 eA-3
Q145 0.925 0.687 0.533 !       0.79 eA-3
C146 0.500 0.254 0.180 !       0.77 eA-3
Q147 0.921 0.758 0.206 !       0.77 eA-3
Q148 0.757 0.487 0.419 !       0.76 eA-3
C149 0.283 0.069 0.468 !       0.75 eA-3
Q150 0.111 0.891 0.054 !       0.75 eA-3
Q151 0.889 0.903 0.186 !       0.75 eA-3
C152 0.812 0.029 0.283 !       0.73 eA-3
Q153 0.576 0.232 0.196 !       0.72 eA-3
Q154 0.888 0.983 0.400 !       0.72 eA-3
Q155 0.367 0.722 0.329 !       0.72 eA-3
Q156 0.718 0.034 0.239 !       0.71 eA-3
Q157 0.112 0.634 0.223 !       0.70 eA-3
Q158 0.379 0.861 0.979 !       0.70 eA-3
C159 0.281 0.158 0.466 !       0.70 eA-3
Q160 0.577 0.797 0.283 !       0.69 eA-3
C161 0.792 0.286 0.214 !       0.68 eA-3
Q162 0.743 0.604 0.090 !       0.67 eA-3
Q163 0.058 0.482 0.142 !       0.67 eA-3
Q164 0.177 0.225 0.482 !       0.66 eA-3
Q165 0.015 0.361 0.306 !       0.64 eA-3
Q166 0.403 0.195 0.110 !       0.64 eA-3
C167 0.996 0.518 0.259 !       0.63 eA-3
Q168 0.549 0.610 0.351 !       0.63 eA-3
Q169 0.172 0.237 0.470 !       0.62 eA-3
Q170 0.678 0.204 0.074 !       0.60 eA-3
Q171 0.822 0.951 0.433 !       0.60 eA-3
Q172 0.087 0.607 0.345 !       0.60 eA-3
C173 0.201 0.435 0.289 !       0.59 eA-3
Q174 0.569 0.510 0.188 !       0.59 eA-3
Q175 0.205 0.432 0.212 !       0.58 eA-3
Q176 0.697 0.287 0.108 !       0.57 eA-3
Q177 0.300 0.298 0.063 !       0.57 eA-3
C178 0.450 0.845 0.399 !       0.56 eA-3
C179 0.950 0.345 0.899 !       0.56 eA-3
Q180 0.388 0.954 0.475 !       0.56 eA-3
Q181 0.416 0.938 0.494 !       0.56 eA-3
Q182 0.754 0.766 0.403 !       0.55 eA-3
Q183 0.250 0.211-0.001 !       0.55 eA-3
C184 0.218 0.858 0.035 !       0.55 eA-3
Q185 0.531 0.807 0.487 !       0.54 eA-3
Q186 0.148 0.165 0.458 !       0.54 eA-3
Q187 0.828 0.208 0.014 !       0.53 eA-3
C188 0.962 0.343 0.915 !       0.53 eA-3
Q189 0.727 0.947 0.139 !       0.53 eA-3
Q190 0.059 0.645 0.372 !       0.51 eA-3
Q191 0.314 0.515 0.494 !       0.51 eA-3
Q192 0.671 0.404 0.228 !       0.50 eA-3
Q193 0.057 0.868 0.218 !       0.50 eA-3
)
;
_shelx_fab_checksum              77825
loop_
_space_group_symop_operation_xyz
'x, y, z'
'-x+1/2, -y, z+1/2'
'-x, y+1/2, -z+1/2'
'x+1/2, -y+1/2, -z'
'z, x, y'
'z+1/2, -x+1/2, -y'
'-z+1/2, -x, y+1/2'
'-z, x+1/2, -y+1/2'
'y, z, x'
'-y, z+1/2, -x+1/2'
'y+1/2, -z+1/2, -x'
'-y+1/2, -z, x+1/2'
'y+1/4, x+1/4, z+1/4'
'-y+1/4, -x+3/4, z+3/4'
'y+3/4, -x+1/4, -z+3/4'
'-y+3/4, x+3/4, -z+1/4'
'x+1/4, z+1/4, y+1/4'
'-x+3/4, z+3/4, -y+1/4'
'-x+1/4, -z+3/4, y+3/4'
'x+3/4, -z+1/4, -y+3/4'
'z+1/4, y+1/4, x+1/4'
'z+3/4, -y+1/4, -x+3/4'
'-z+3/4, y+3/4, -x+1/4'
'-z+1/4, -y+3/4, x+3/4'
'x+1/2, y+1/2, z+1/2'
'-x+1, -y+1/2, z+1'
'-x+1/2, y+1, -z+1'
'x+1, -y+1, -z+1/2'
'z+1/2, x+1/2, y+1/2'
'z+1, -x+1, -y+1/2'
'-z+1, -x+1/2, y+1'
'-z+1/2, x+1, -y+1'
'y+1/2, z+1/2, x+1/2'
'-y+1/2, z+1, -x+1'
'y+1, -z+1, -x+1/2'
'-y+1, -z+1/2, x+1'
'y+3/4, x+3/4, z+3/4'
'-y+3/4, -x+5/4, z+5/4'
'y+5/4, -x+3/4, -z+5/4'
'-y+5/4, x+5/4, -z+3/4'
'x+3/4, z+3/4, y+3/4'
'-x+5/4, z+5/4, -y+3/4'
'-x+3/4, -z+5/4, y+5/4'
'x+5/4, -z+3/4, -y+5/4'
'z+3/4, y+3/4, x+3/4'
'z+5/4, -y+3/4, -x+5/4'
'-z+5/4, y+5/4, -x+3/4'
'-z+3/4, -y+5/4, x+5/4'
loop_
_atom_site_label
_atom_site_type_symbol
_atom_site_fract_x
_atom_site_fract_y
_atom_site_fract_z
_atom_site_U_iso_or_equiv
_atom_site_adp_type
_atom_site_occupancy
_atom_site_site_symmetry_order
_atom_site_calc_flag
_atom_site_refinement_flags_posn
_atom_site_refinement_flags_adp
_atom_site_refinement_flags_occupancy
C1 C 0.0053(5) 0.1420(5) 0.0831(5) 0.059(4) Uani 1 1 d . . .
H1 H 0.011147 0.156307 0.056381 0.071 Uiso 1 1 calc R U .
C2 C -0.0164(6) 0.1282(6) 0.1481(6) 0.073(4) Uani 1 1 d . . .
H2 H -0.029953 0.131108 0.175724 0.087 Uiso 1 1 calc R U .
C3 C -0.0400(4) 0.2029(5) 0.1185(5) 0.051(3) Uani 1 1 d . . .
C4 C -0.0435(7) 0.2227(7) 0.1582(5) 0.084(6) Uani 1 1 d . . .
H4 H -0.029163 0.210464 0.182672 0.101 Uiso 1 1 calc R U .
C5 C -0.0678(7) 0.2607(6) 0.1630(5) 0.079(5) Uani 1 1 d . . .
H5 H -0.072986 0.272394 0.191132 0.095 Uiso 1 1 calc R U .
C6 C -0.0846(5) 0.2817(5) 0.1257(5) 0.053(3) Uani 1 1 d . . .
C7 C -0.0793(6) 0.2622(6) 0.0848(5) 0.067(4) Uani 1 1 d . . .
H7 H -0.090485 0.275869 0.059506 0.080 Uiso 1 1 calc R U .
C8 C -0.0563(5) 0.2207(5) 0.0814(5) 0.056(3) Uani 1 1 d . . .
H8 H -0.052868 0.206617 0.054095 0.067 Uiso 1 1 calc R U .
C9 C -0.1117(5) 0.3231(5) 0.1325(5) 0.052(3) Uani 1 1 d . . .
C10 C -0.1041(5) 0.3514(5) 0.1684(5) 0.055(3) Uani 1 1 d . . .
H10 H -0.080167 0.346076 0.187116 0.066 Uiso 1 1 calc R U .
C11 C 0.0671(13) -0.0368(12) -0.0098(9) 0.184(9) Uani 1 1 d . U .
H11 H 0.040348 -0.046826 0.002044 0.220 Uiso 1 1 calc R U .
C12 C 0.1310(11) -0.0610(13) -0.0520(12) 0.214 Uani 1 1 d D U .
H12A H 0.127552 -0.062526 -0.083629 0.321 Uiso 1 1 d R U .
H12B H 0.149183 -0.085219 -0.042095 0.321 Uiso 1 1 d DR U .
H12C H 0.144868 -0.033400 -0.044134 0.321 Uiso 1 1 d R U .
C13 C 0.0759(14) -0.1114(9) -0.0362(12) 0.223 Uani 1 1 d D U .
H13A H 0.077407 -0.127042 -0.008520 0.335 Uiso 1 1 d R U .
H13B H 0.094654 -0.125798 -0.057601 0.335 Uiso 1 1 d DR U .
H13C H 0.045870 -0.111265 -0.046789 0.335 Uiso 1 1 d R U .
Cd1 Cd 0.04868(4) 0.04868(4) 0.04868(4) 0.0614(5) Uani 1 3 d S T P
Mo1 Mo 0.82866(6) 0.04251(5) 0.97034(6) 0.0791(5) Uani 1 1 d . . .
Mo2 Mo 0.85503(6) 0.12780(5) 1.05364(7) 0.0832(6) Uani 1 1 d . . .
Mo3 Mo 0.82938(6) 0.20848(5) 0.97779(6) 0.0763(5) Uani 1 1 d . . .
N1 N 0.0184(4) 0.1019(5) 0.0922(4) 0.061(3) Uani 1 1 d . . .
N2 N 0.0050(5) 0.0940(5) 0.1361(4) 0.072(4) Uani 1 1 d . . .
N3 N -0.0175(4) 0.1602(4) 0.1162(4) 0.055(3) Uani 1 1 d . . .
N4 N 0.0875(9) -0.0670(7) -0.0298(7) 0.161(7) Uani 1 1 d D U .
O1 O 0.0727(8) -0.0020(7) -0.0028(8) 0.154(6) Uani 1 1 d . U .
O2 O 0.8696(4) 0.0049(4) 0.9681(6) 0.095(4) Uani 1 1 d . . .
O3 O 0.8415(4) 0.0763(4) 0.9193(5) 0.083(4) Uani 1 1 d . . .
O4 O 0.8545(4) 0.0877(4) 1.0050(4) 0.073(3) Uani 1 1 d . . .
O5 O 0.9043(5) 0.1168(5) 1.0776(6) 0.106(5) Uani 1 1 d . . .
O6 O 0.8716(4) 0.1743(4) 1.0127(5) 0.078(3) Uani 1 1 d . . .
O7 O 0.8635(5) 0.2477(4) 0.9558(6) 0.104(5) Uani 1 1 d . . .
O8 O 0.8124(4) 0.2361(3) 1.0332(4) 0.071(3) Uani 1 1 d . . .
O9 O 0.7752(4) 0.2236(3) 0.9519(4) 0.071(3) Uani 1 1 d . . .
O10 O 0.7873(4) 0.1546(3) 1.0197(3) 0.060(3) Uani 1 1 d . . .
O11 O 0.8311(4) 0.1632(3) 0.9336(4) 0.074(3) Uani 1 1 d . . .
P1 P 0.750000 0.125000 1.000000 0.0420(13) Uani 1 4 d S T P
loop_
_atom_site_aniso_label
_atom_site_aniso_U_11
_atom_site_aniso_U_22
_atom_site_aniso_U_33
_atom_site_aniso_U_23
_atom_site_aniso_U_13
_atom_site_aniso_U_12
C1 0.046(8) 0.071(10) 0.061(9) 0.002(7) 0.002(7) -0.001(7)
C2 0.071(10) 0.086(11) 0.061(9) 0.012(9) 0.019(8) 0.020(9)
C3 0.045(7) 0.049(7) 0.058(8) -0.010(6) -0.008(6) 0.002(6)
C4 0.108(14) 0.105(14) 0.039(7) 0.003(8) -0.011(8) 0.037(12)
C5 0.124(15) 0.078(11) 0.034(7) 0.002(7) 0.029(8) 0.036(11)
C6 0.049(7) 0.054(8) 0.056(8) 0.004(6) 0.003(6) 0.004(6)
C7 0.081(10) 0.071(10) 0.049(8) -0.003(7) -0.017(7) -0.002(8)
C8 0.067(9) 0.061(8) 0.040(7) -0.010(6) -0.010(6) 0.000(7)
C9 0.050(7) 0.055(8) 0.052(8) 0.017(6) 0.002(6) -0.004(6)
C10 0.051(8) 0.050(8) 0.063(9) -0.005(7) 0.011(7) 0.002(6)
C11 0.234(18) 0.113(14) 0.204(17) -0.035(15) 0.062(16) -0.006(16)
C12 0.248 0.167 0.228 -0.018 0.037 -0.013
C13 0.276 0.159 0.234 -0.021 0.079 -0.028
Cd1 0.0614(5) 0.0614(5) 0.0614(5) 0.0001(5) 0.0001(5) 0.0001(5)
Mo1 0.0803(10) 0.0510(8) 0.1058(13) -0.0084(7) 0.0013(9) 0.0147(7)
Mo2 0.0747(10) 0.0499(8) 0.1250(14) -0.0012(8) -0.0305(10) -0.0057(7)
Mo3 0.0902(11) 0.0467(7) 0.0919(11) 0.0001(7) 0.0111(8) -0.0206(7)
N1 0.057(7) 0.074(8) 0.053(7) -0.003(6) -0.001(5) 0.010(6)
N2 0.082(9) 0.070(8) 0.063(8) 0.013(6) 0.007(7) 0.013(7)
N3 0.042(6) 0.084(9) 0.038(6) -0.001(5) -0.003(4) -0.007(6)
N4 0.223(16) 0.075(10) 0.184(15) -0.045(11) 0.065(14) -0.004(12)
O1 0.218(15) 0.081(9) 0.163(13) -0.042(10) 0.041(12) 0.004(11)
O2 0.068(8) 0.069(7) 0.147(13) -0.007(8) 0.004(8) 0.022(6)
O3 0.085(8) 0.052(6) 0.113(10) 0.001(6) 0.033(7) 0.018(6)
O4 0.059(6) 0.059(6) 0.100(9) 0.006(6) 0.004(6) -0.008(5)
O5 0.075(8) 0.083(9) 0.160(15) 0.014(9) -0.047(9) -0.001(7)
O6 0.064(6) 0.055(6) 0.115(10) -0.011(6) 0.002(7) -0.009(5)
O7 0.108(11) 0.056(7) 0.146(13) -0.009(8) 0.014(10) -0.023(7)
O8 0.086(8) 0.036(5) 0.090(8) -0.014(5) 0.009(6) -0.009(5)
O9 0.099(8) 0.047(5) 0.067(6) -0.001(5) 0.022(6) -0.008(5)
O10 0.080(7) 0.039(5) 0.061(6) 0.007(4) -0.001(5) 0.003(5)
O11 0.086(8) 0.042(5) 0.093(8) -0.008(5) 0.023(6) -0.001(5)
P1 0.052(2) 0.022(3) 0.052(2) 0.000 0.000 0.000
loop_
_atom_type_symbol
_atom_type_description
_atom_type_scat_dispersion_real
_atom_type_scat_dispersion_imag
_atom_type_scat_source
C C 0.0033 0.0016 'International Tables Vol C Tables 4.2.6.8 and 6.1.1.4'
H H 0.0000 0.0000 'International Tables Vol C Tables 4.2.6.8 and 6.1.1.4'
N N 0.0061 0.0033 'International Tables Vol C Tables 4.2.6.8 and 6.1.1.4'
O O 0.0106 0.0060 'International Tables Vol C Tables 4.2.6.8 and 6.1.1.4'
P P 0.1023 0.0942 'International Tables Vol C Tables 4.2.6.8 and 6.1.1.4'
Mo Mo -1.6832 0.6857 'International Tables Vol C Tables 4.2.6.8 and 6.1.1.4'
Cd Cd -0.8075 1.2024 'International Tables Vol C Tables 4.2.6.8 and 6.1.1.4'
loop_
_geom_angle_atom_site_label_1
_geom_angle_atom_site_label_2
_geom_angle_atom_site_label_3
_geom_angle
_geom_angle_site_symmetry_1
_geom_angle_site_symmetry_3
N1 C1 N3 112.5(14) . .
N1 C1 H1 123.8 . .
N3 C1 H1 123.8 . .
N2 C2 N3 112.6(15) . .
N2 C2 H2 123.7 . .
N3 C2 H2 123.7 . .
C8 C3 C4 122.8(14) . .
C8 C3 N3 119.2(12) . .
C4 C3 N3 118.1(13) . .
C5 C4 C3 120.6(15) . .
C5 C4 H4 119.7 . .
C3 C4 H4 119.7 . .
C4 C5 C6 119.4(14) . .
C4 C5 H5 120.3 . .
C6 C5 H5 120.3 . .
C5 C6 C7 119.3(13) . .
C5 C6 C9 117.7(13) . .
C7 C6 C9 122.7(13) . .
C6 C7 C8 119.7(14) . .
C6 C7 H7 120.2 . .
C8 C7 H7 120.2 . .
C3 C8 C7 117.9(13) . .
C3 C8 H8 121.1 . .
C7 C8 H8 121.1 . .
C10 C9 C10 118.7(15) . 11_455
C10 C9 C6 121.6(13) . .
C10 C9 C6 119.4(13) 11_455 .
C9 C10 C9 121.3(15) . 8
C9 C10 H10 119.4 . .
C9 C10 H10 119.4 8 .
O1 C11 N4 136(4) . .
O1 C11 H11 112.1 . .
N4 C11 H11 112.1 . .
N4 C12 H12A 110.3 . .
N4 C12 H12B 105.8 . .
H12A C12 H12B 109.5 . .
N4 C12 H12C 112.2 . .
H12A C12 H12C 109.5 . .
H12B C12 H12C 109.5 . .
N4 C13 H13A 109.8 . .
N4 C13 H13B 112.3 . .
H13A C13 H13B 109.5 . .
N4 C13 H13C 106.2 . .
H13A C13 H13C 109.5 . .
H13B C13 H13C 109.5 . .
N1 Cd1 N1 96.2(4) . 9
N1 Cd1 N1 96.2(4) . 5
N1 Cd1 N1 96.2(4) 9 5
N1 Cd1 O1 172.1(7) . .
N1 Cd1 O1 83.7(7) 9 .
N1 Cd1 O1 91.6(7) 5 .
N1 Cd1 O1 91.6(7) . 9
N1 Cd1 O1 172.1(7) 9 9
N1 Cd1 O1 83.7(7) 5 9
O1 Cd1 O1 88.5(9) . 9
N1 Cd1 O1 83.7(7) . 5
N1 Cd1 O1 91.6(7) 9 5
N1 Cd1 O1 172.1(7) 5 5
O1 Cd1 O1 88.5(9) . 5
O1 Cd1 O1 88.5(9) 9 5
O2 Mo1 O8 101.7(6) . 22_456
O2 Mo1 O3 100.5(7) . .
O8 Mo1 O3 88.2(6) 22_456 .
O2 Mo1 O4 102.0(6) . .
O8 Mo1 O4 156.3(5) 22_456 .
O3 Mo1 O4 88.7(6) . .
O2 Mo1 O9 102.3(7) . 48_644
O8 Mo1 O9 89.3(5) 22_456 48_644
O3 Mo1 O9 157.1(5) . 48_644
O4 Mo1 O9 84.6(5) . 48_644
O2 Mo1 O10 172.1(7) . 22_456
O8 Mo1 O10 73.6(4) 22_456 22_456
O3 Mo1 O10 73.4(4) . 22_456
O4 Mo1 O10 83.0(4) . 22_456
O9 Mo1 O10 84.1(4) 48_644 22_456
O5 Mo2 O4 102.3(7) . .
O5 Mo2 O11 103.0(7) . 48_644
O4 Mo2 O11 85.2(5) . 48_644
O5 Mo2 O3 102.8(8) . 48_644
O4 Mo2 O3 154.9(5) . 48_644
O11 Mo2 O3 88.7(6) 48_644 48_644
O5 Mo2 O6 100.9(7) . .
O4 Mo2 O6 88.3(5) . .
O11 Mo2 O6 156.0(5) 48_644 .
O3 Mo2 O6 87.4(6) 48_644 .
O5 Mo2 O10 171.9(6) . .
O4 Mo2 O10 83.1(4) . .
O11 Mo2 O10 83.3(4) 48_644 .
O3 Mo2 O10 72.0(4) 48_644 .
O6 Mo2 O10 73.0(4) . .
O7 Mo3 O9 101.3(6) . .
O7 Mo3 O11 102.0(6) . .
O9 Mo3 O11 84.6(5) . .
O7 Mo3 O6 100.5(7) . .
O9 Mo3 O6 158.1(5) . .
O11 Mo3 O6 89.0(5) . .
O7 Mo3 O8 101.4(6) . .
O9 Mo3 O8 91.4(5) . .
O11 Mo3 O8 156.6(5) . .
O6 Mo3 O8 86.2(6) . .
O7 Mo3 O10 171.0(7) . .
O9 Mo3 O10 85.6(4) . .
O11 Mo3 O10 84.2(4) . .
O6 Mo3 O10 72.9(4) . .
O8 Mo3 O10 72.5(4) . .
C1 N1 N2 105.6(13) . .
C1 N1 Cd1 131.2(11) . .
N2 N1 Cd1 122.9(10) . .
C2 N2 N1 106.2(13) . .
C1 N3 C2 103.1(14) . .
C1 N3 C3 129.9(13) . .
C2 N3 C3 127.0(12) . .
C11 N4 C13 130(3) . .
C11 N4 C12 124(3) . .
C13 N4 C12 106.0(13) . .
C11 O1 Cd1 136(3) . .
Mo1 O3 Mo2 125.1(6) . 22_456
Mo2 O4 Mo1 152.9(7) . .
Mo3 O6 Mo2 124.0(6) . .
Mo1 O8 Mo3 124.5(5) 48_644 .
Mo3 O9 Mo1 151.2(6) . 22_456
P1 O10 Mo1 126.6(6) . 48_644
P1 O10 Mo3 124.4(5) . .
Mo1 O10 Mo3 89.5(3) 48_644 .
P1 O10 Mo2 125.5(5) . .
Mo1 O10 Mo2 89.4(4) 48_644 .
Mo3 O10 Mo2 90.1(4) . .
Mo3 O11 Mo2 152.5(7) . 22_456
O10 P1 O10 109.2(3) . 22_456
O10 P1 O10 109.9(7) . 27_646
O10 P1 O10 109.2(3) 22_456 27_646
O10 P1 O10 109.3(3) . 48_644
O10 P1 O10 109.9(7) 22_456 48_644
O10 P1 O10 109.2(3) 27_646 48_644
loop_
_geom_bond_atom_site_label_1
_geom_bond_atom_site_label_2
_geom_bond_distance
_geom_bond_site_symmetry_2
C1 N1 1.30(2) .
C1 N3 1.33(2) .
C1 H1 0.9300 .
C2 N2 1.27(2) .
C2 N3 1.36(2) .
C2 H2 0.9300 .
C3 C8 1.33(2) .
C3 C4 1.34(2) .
C3 N3 1.456(19) .
C4 C5 1.37(2) .
C4 H4 0.9300 .
C5 C6 1.39(2) .
C5 H5 0.9300 .
C6 C7 1.37(2) .
C6 C9 1.50(2) .
C7 C8 1.43(2) .
C7 H7 0.9300 .
C8 H8 0.9300 .
C9 C10 1.40(2) .
C9 C10 1.43(2) 11_455
C10 H10 0.9300 .
C11 O1 1.08(4) .
C11 N4 1.25(4) .
C11 H11 0.9300 .
C12 N4 1.481(14) .
C12 H12A 0.9600 .
C12 H12B 0.9600 .
C12 H12C 0.9600 .
C13 N4 1.396(14) .
C13 H13A 0.9600 .
C13 H13B 0.9600 .
C13 H13C 0.9600 .
Cd1 N1 2.262(13) .
Cd1 N1 2.262(13) 9
Cd1 N1 2.262(13) 5
Cd1 O1 2.295(18) .
Cd1 O1 2.295(18) 9
Cd1 O1 2.295(18) 5
Mo1 O2 1.676(12) .
Mo1 O8 1.895(12) 22_456
Mo1 O3 1.885(14) .
Mo1 O4 1.886(12) .
Mo1 O9 1.953(13) 48_644
Mo1 O10 2.398(10) 22_456
Mo2 O5 1.683(13) .
Mo2 O4 1.897(13) .
Mo2 O11 1.886(12) 48_644
Mo2 O3 1.935(13) 48_644
Mo2 O6 1.932(13) .
Mo2 O10 2.421(11) .
Mo3 O7 1.701(14) .
Mo3 O9 1.866(14) .
Mo3 O11 1.907(11) .
Mo3 O6 1.945(13) .
Mo3 O8 1.934(11) .
Mo3 O10 2.417(10) .
N1 N2 1.403(19) .
O10 P1 1.551(11) .
