#------------------------------------------------------------------------------
#$Date: 2019-11-17 11:00:18 +0200 (Sun, 17 Nov 2019) $
#$Revision: 229474 $
#$URL: file:///home/coder/svn-repositories/cod/cif/7/04/51/7045168.cif $
#------------------------------------------------------------------------------
#
# This file is available in the Crystallography Open Database (COD),
# http://www.crystallography.net/
#
# All data on this site have been placed in the public domain by the
# contributors.
#
data_7045168
loop_
_publ_author_name
'Yan, Yang-Tian'
'Zhang, Wen-Yan'
'Zhang, Fang'
'Cao, Feng'
'Yang, Rui-Feng'
'Wang, Yao-Yu'
'Hou, Lei'
_publ_section_title
;
 Four new metal-organic frameworks based on diverse secondary building
 units: sensing and magnetic properties.
;
_journal_issue                   5
_journal_name_full
'Dalton transactions (Cambridge, England : 2003)'
_journal_page_first              1682
_journal_page_last               1692
_journal_paper_doi               10.1039/c7dt04696k
_journal_volume                  47
_journal_year                    2018
_chemical_formula_moiety         'C23 H11 O11 Zn2, C2 H8 N'
_chemical_formula_sum            'C25 H19 N O11 Zn2'
_chemical_formula_weight         640.15
_space_group_crystal_system      triclinic
_space_group_IT_number           2
_space_group_name_Hall           '-P 1'
_space_group_name_H-M_alt        'P -1'
_symmetry_space_group_name_Hall  '-P 1'
_symmetry_space_group_name_H-M   'P -1'
_atom_sites_solution_hydrogens   mixed
_audit_creation_date             2016-12-10
_audit_creation_method
;
Olex2 1.2-beta
(compiled 2016.11.30 svn.r3356 for OlexSys, GUI svn.r5269)
;
_cell_angle_alpha                65.009(7)
_cell_angle_beta                 79.056(7)
_cell_angle_gamma                79.551(7)
_cell_formula_units_Z            2
_cell_length_a                   12.252(5)
_cell_length_b                   12.820(5)
_cell_length_c                   13.635(6)
_cell_measurement_reflns_used    4146
_cell_measurement_temperature    173
_cell_measurement_theta_max      28.253
_cell_measurement_theta_min      2.526
_cell_volume                     1893.5(14)
_computing_cell_refinement       'SAINT V8.18C (?, 2016)'
_computing_data_reduction        'SAINT V8.18C (?, 2016)'
_computing_molecular_graphics    'Olex2 (Dolomanov et al., 2009)'
_computing_publication_material  'Olex2 (Dolomanov et al., 2009)'
_computing_structure_refinement  'ShelXL (Sheldrick, 2015)'
_diffrn_ambient_temperature      173
_diffrn_measured_fraction_theta_full 0.957
_diffrn_measured_fraction_theta_max 0.954
_diffrn_measurement_device_type  'Bruker APEX-II CCD'
_diffrn_measurement_method       '\f and \w scans'
_diffrn_radiation_monochromator  graphite
_diffrn_radiation_type           MoK\a
_diffrn_radiation_wavelength     0.71073
_diffrn_reflns_av_R_equivalents  0.0332
_diffrn_reflns_av_unetI/netI     0.0736
_diffrn_reflns_Laue_measured_fraction_full 0.957
_diffrn_reflns_Laue_measured_fraction_max 0.954
_diffrn_reflns_limit_h_max       15
_diffrn_reflns_limit_h_min       -11
_diffrn_reflns_limit_k_max       16
_diffrn_reflns_limit_k_min       -14
_diffrn_reflns_limit_l_max       17
_diffrn_reflns_limit_l_min       -10
_diffrn_reflns_number            10198
_diffrn_reflns_point_group_measured_fraction_full 0.957
_diffrn_reflns_point_group_measured_fraction_max 0.954
_diffrn_reflns_theta_full        25.242
_diffrn_reflns_theta_max         26.370
_diffrn_reflns_theta_min         6.822
_diffrn_standards_number         0
_exptl_absorpt_coefficient_mu    1.309
_exptl_absorpt_correction_T_max  0.7457
_exptl_absorpt_correction_T_min  0.5966
_exptl_absorpt_correction_type   multi-scan
_exptl_absorpt_process_details
;
SADABS-2008/1 (Bruker,2008) was used for absorption correction.
wR2(int) was 0.0662 before and 0.0476 after correction.
The Ratio of minimum to maximum transmission is 0.8001.
The \l/2 correction factor is 0.0015.
;
_exptl_crystal_colour            colourless
_exptl_crystal_colour_primary    colourless
_exptl_crystal_density_diffrn    1.123
_exptl_crystal_description       block
_exptl_crystal_F_000             648
_platon_squeeze_details
;
TITL 1_sq      P -1         R = 0.11
CELL   12.2520   12.8200   13.6350     65.01     79.06     79.55
SPGR P-1
# Solvent Accessible Volume =       836
# Electrons Found in S.A.V. =       233
# Note: Atoms in Void as Cxxx and Qxxx all others
C101 0.466 0.324 0.348 !       3.83 eA-3
Q102 0.607 0.533 0.372 !       3.71 eA-3
C103 0.144 0.879 0.411 !       3.57 eA-3
C104 0.415 0.669 0.328 !       3.57 eA-3
C105 0.486 0.671 0.406 !       3.52 eA-3
C106 0.160 0.963 0.217 !       3.40 eA-3
C107 0.100 0.967 0.325 !       3.37 eA-3
C108 0.383 0.421 0.278 !       3.18 eA-3
C109 0.467 0.318 0.438 !       3.14 eA-3
C110 0.285 0.817 0.317 !       2.95 eA-3
C111 0.455 0.753 0.454 !       2.94 eA-3
Q112 0.667 0.625 0.013 !       2.94 eA-3
C113 0.525 0.237 0.506 !       2.79 eA-3
C114 0.578 0.590 0.425 !       2.50 eA-3
C115 0.551 0.284 0.283 !       2.42 eA-3
C116 0.192 0.894 0.313 !       2.38 eA-3
Q117 0.690 0.471 0.377 !       2.29 eA-3
Q118 0.097 0.372 0.012 !       2.15 eA-3
C119 0.984 0.424 0.113 !       2.13 eA-3
C120 0.019 0.402 0.185 !       2.04 eA-3
C121 0.328 0.746 0.406 !       2.03 eA-3
C122 0.401 0.784 0.308 !       1.99 eA-3
C123 0.996 0.323 0.232 !       1.99 eA-3
Q124 0.671 0.476 0.298 !       1.93 eA-3
Q125 0.748 0.520 0.328 !       1.91 eA-3
Q126 0.469 0.134 0.112 !       1.87 eA-3
C127 0.965 0.386 0.041 !       1.83 eA-3
C128 0.186 0.830 0.474 !       1.79 eA-3
C129 0.953 0.543 0.063 !       1.67 eA-3
Q130 0.437 0.084 0.079 !       1.56 eA-3
Q131 0.934 0.499 0.472 !       1.55 eA-3
C132 0.535 0.294 0.368 !       1.54 eA-3
C133 0.971 0.371 0.140 !       1.53 eA-3
Q134 0.455 0.058 0.198 !       1.50 eA-3
C135 0.952 0.365 0.107 !       1.47 eA-3
C136 0.437 0.394 0.215 !       1.43 eA-3
C137 0.391 0.448 0.351 !       1.42 eA-3
C138 0.027 0.494 0.093 !       1.35 eA-3
C139 1.001 0.220 0.220 !       1.35 eA-3
C140 0.530 0.466 0.393 !       1.33 eA-3
C141 0.061 0.140 0.233 !       1.31 eA-3
Q142 0.621 0.609 0.487 !       1.30 eA-3
C143 0.855 0.203 0.268 !       1.30 eA-3
C144 0.416 0.355 0.482 !       1.29 eA-3
C145 0.030 0.553 0.009 !       1.28 eA-3
C146 0.935 0.304 0.184 !       1.26 eA-3
C147 0.799 0.274 0.305 !       1.25 eA-3
C148 0.980 0.197 0.280 !       1.24 eA-3
Q149 0.896 0.466 0.430 !       1.23 eA-3
C150 0.913 0.321 0.097 !       1.22 eA-3
Q151 0.432 0.996 0.280 !       1.21 eA-3
Q152 0.454 0.823 0.043 !       1.19 eA-3
Q153 0.500 1.000 0.000 !       1.19 eA-3
Q154 0.512 0.939 0.058 !       1.19 eA-3
Q155 0.876 0.406 0.486 !       1.17 eA-3
C156 0.033 0.071 0.301 !       1.16 eA-3
C157 0.487 0.522 0.373 !       1.16 eA-3
C158 0.513 0.360 0.237 !       1.16 eA-3
C159 0.059 0.262 0.225 !       1.16 eA-3
C160 0.943 0.062 0.405 !       1.15 eA-3
C161 1.002 0.030 0.344 !       1.14 eA-3
C162 0.975 0.082 0.422 !       1.12 eA-3
Q163 0.112 0.627 0.402 !       1.12 eA-3
C164 0.707 0.249 0.270 !       1.12 eA-3
Q165 0.968 0.455 0.245 !       1.10 eA-3
Q166 0.465 0.765 0.297 !       1.10 eA-3
Q167 0.143 0.668 0.378 !       1.10 eA-3
Q168 0.331 0.301 0.471 !       1.09 eA-3
C169 0.098 0.369 0.112 !       1.08 eA-3
C170 0.606 0.208 0.334 !       1.08 eA-3
Q171 0.752 0.608 0.039 !       1.07 eA-3
Q172 0.327 0.908 0.227 !       1.07 eA-3
Q173 0.861 0.222 0.467 !       1.05 eA-3
Q174 0.575 0.927 0.096 !       1.05 eA-3
Q175 0.311 0.089 0.416 !       1.05 eA-3
Q176 0.108 0.554 0.442 !       1.05 eA-3
Q177 0.985 0.345 0.377 !       1.05 eA-3
Q178 0.705 0.217 0.068 !       1.05 eA-3
Q179 0.099 0.563 0.482 !       1.04 eA-3
Q180 0.659 0.571 0.081 !       1.03 eA-3
C181 0.834 0.314 0.135 !       1.01 eA-3
Q182 0.358 0.083 0.155 !       1.00 eA-3
Q183 0.891 0.831 0.222 !       0.99 eA-3
C184 0.909 0.099 0.470 !       0.99 eA-3
Q185 0.908 0.811 0.262 !       0.98 eA-3
C186 0.061 0.251 0.167 !       0.98 eA-3
Q187 0.135 0.335 0.156 !       0.97 eA-3
Q188 0.514 0.578 0.062 !       0.97 eA-3
Q189 0.715 0.883 0.168 !       0.96 eA-3
C190 0.123 0.897 0.484 !       0.96 eA-3
C191 0.541 0.329 0.465 !       0.96 eA-3
Q192 0.278 0.107 0.346 !       0.95 eA-3
Q193 0.189 0.083 0.297 !       0.95 eA-3
C194 0.886 0.175 0.453 !       0.95 eA-3
Q195 0.473 0.703 0.060 !       0.94 eA-3
C196 0.920 0.061 0.328 !       0.94 eA-3
Q197 0.732 0.455 0.431 !       0.93 eA-3
Q198 0.441 0.295 0.256 !       0.93 eA-3
Q199 0.788 0.220 0.407 !       0.93 eA-3

;
_refine_diff_density_max         1.629
_refine_diff_density_min         -1.560
_refine_diff_density_rms         0.234
_refine_ls_extinction_method     none
_refine_ls_goodness_of_fit_ref   1.226
_refine_ls_hydrogen_treatment    constr
_refine_ls_matrix_type           full
_refine_ls_number_parameters     354
_refine_ls_number_reflns         7377
_refine_ls_number_restraints     51
_refine_ls_restrained_S_all      1.232
_refine_ls_R_factor_all          0.1015
_refine_ls_R_factor_gt           0.0791
_refine_ls_shift/su_max          0.000
_refine_ls_shift/su_mean         0.000
_refine_ls_structure_factor_coef Fsqd
_refine_ls_weighting_details
'w=1/[\s^2^(Fo^2^)+(0.2000P)^2^] where P=(Fo^2^+2Fc^2^)/3'
_refine_ls_weighting_scheme      calc
_refine_ls_wR_factor_gt          0.2428
_refine_ls_wR_factor_ref         0.3037
_reflns_Friedel_coverage         0.000
_reflns_number_gt                5713
_reflns_number_total             7377
_reflns_threshold_expression     'I > 2\s(I)'
_iucr_refine_instructions_details
;

    1_sq.res created by SHELXL-2014/7

TITL 1_sq in P-1
CELL 0.71073 12.2523 12.8199 13.6354 65.009 79.056 79.551
ZERR 2 0.0051 0.0053 0.0058 0.007 0.007 0.007
LATT 1
SFAC C H N O Zn
UNIT 50 38 2 22 4
RIGU N1 C24 C25
ISOR 0.01 0.02 C25 N1 C24
ISOR 0.001 0.002 O5 C18 C19 C5
 
L.S. 5 0 131
PLAN  30
TEMP -100.15
FREE Zn1 C23
BOND
MORE -1
BOND $H
CONF
ABIN
fmap 2
acta
SHEL 3 0.8
REM <olex2.extras>
REM <HklSrc "%.\\1_sq.hkl">
REM </olex2.extras>
 
WGHT    0.200000
FVAR       0.12325
ZN1   5    1.541161    0.925455   -0.113697    11.00000    0.00905    0.02881 =
         0.01046   -0.01234   -0.00063    0.00267
ZN2   5    1.088885    0.533966    0.539348    11.00000    0.01047    0.01715 =
         0.01357   -0.00760   -0.00527    0.00279
O1    4    1.404227    0.855606   -0.081276    11.00000    0.01225    0.03791 =
         0.01283   -0.00787    0.00050   -0.00613
O2    4    1.441726    0.688022    0.058121    11.00000    0.01229    0.03681 =
         0.05047   -0.00437   -0.00359    0.00710
O3    4    1.121455    0.619004    0.374046    11.00000    0.02374    0.03911 =
         0.00852   -0.00822    0.00017   -0.00134
O4    4    0.988807    0.571333    0.315148    11.00000    0.01825    0.02590 =
         0.01614   -0.00299    0.00707   -0.00494
O5    4    0.648847    0.878444   -0.012325    11.00000    0.01941    0.02208 =
         0.01541   -0.00937   -0.00206    0.00207
O6    4    0.522710    0.916690    0.112654    11.00000    0.01485    0.02084 =
         0.01424   -0.00623   -0.00124    0.00344
O7    4    0.589043    0.975324    0.727453    11.00000    0.02472    0.04022 =
         0.01340   -0.01849    0.00548   -0.00202
O8    4    0.670326    0.799934    0.805699    11.00000    0.06589    0.05682 =
         0.01810   -0.02282   -0.01182    0.02581
O9    4    0.833696    0.613125    0.477474    11.00000    0.03589    0.03686 =
         0.02837   -0.02208   -0.01146    0.02245
O10   4    0.964893    0.664821    0.536588    11.00000    0.02669    0.02555 =
         0.02891   -0.01009   -0.01292    0.01708
O11   4    1.208115    0.579343    0.585517    11.00000    0.04695    0.04705 =
         0.05234   -0.00067   -0.03413   -0.02317
AFIX   3
H11A  2    1.226515    0.623573    0.516657    11.00000   -1.50000
H11B  2    1.229565    0.505453    0.613707    11.00000   -1.50000
AFIX   0
C1    1    1.377694    0.771024    0.002213    11.00000    0.01052    0.03538 =
         0.02983   -0.01807   -0.00430   -0.00037
C2    1    1.253445    0.770970    0.043040    11.00000    0.01069    0.01943 =
         0.01850   -0.01189    0.00203    0.00165
C3    1    1.179810    0.856052   -0.027085    11.00000    0.01794    0.02407 =
         0.01106   -0.01022    0.00275    0.00324
AFIX  43
H3    2    1.206004    0.906833   -0.098843    11.00000   -1.20000
AFIX   0
C4    1    1.065780    0.861366    0.015192    11.00000    0.01328    0.02644 =
         0.01456   -0.01035   -0.00506    0.00836
AFIX  43
H4    2    1.013262    0.912978   -0.031510    11.00000   -1.20000
AFIX   0
C5    1    1.027338    0.794547    0.121791    11.00000    0.01036    0.01041 =
         0.00932   -0.00543   -0.00054    0.00045
C6    1    1.102853    0.708779    0.187861    11.00000    0.01202    0.01933 =
         0.01489   -0.01017    0.00039    0.00423
C7    1    1.214918    0.699311    0.146160    11.00000    0.01299    0.02124 =
         0.01531   -0.00308   -0.00072    0.00301
AFIX  43
H7    2    1.265976    0.641553    0.190500    11.00000   -1.20000
AFIX   0
C8    1    1.066621    0.626778    0.302305    11.00000    0.01090    0.01909 =
         0.02443   -0.00956   -0.00473    0.01157
C9    1    0.908225    0.817771    0.166960    11.00000    0.01730    0.01469 =
         0.01343   -0.00906   -0.00446    0.00715
C10   1    0.822631    0.837685    0.104458    11.00000    0.01637    0.01807 =
         0.01391   -0.00850   -0.00491    0.00688
AFIX  43
H10   2    0.838474    0.831362    0.036099    11.00000   -1.20000
AFIX   0
C11   1    0.714580    0.866734    0.144081    11.00000    0.01438    0.01792 =
         0.00787   -0.00659   -0.00011    0.00373
C12   1    0.690089    0.874272    0.244049    11.00000    0.01491    0.02373 =
         0.01958   -0.01796   -0.00467    0.00748
AFIX  43
H12   2    0.614830    0.893431    0.269909    11.00000   -1.20000
AFIX   0
C13   1    0.774311    0.854143    0.307235    11.00000    0.01569    0.01407 =
         0.00930   -0.00349   -0.00345    0.00672
C14   1    0.883205    0.828713    0.264759    11.00000    0.01565    0.02011 =
         0.01187   -0.01032   -0.00246    0.00865
AFIX  43
H14   2    0.942525    0.818531    0.304980    11.00000   -1.20000
AFIX   0
C15   1    0.620739    0.890174    0.079791    11.00000    0.01430    0.02540 =
         0.00952   -0.01367   -0.00070    0.00421
C16   1    0.748683    0.865933    0.412470    11.00000    0.01538    0.01990 =
         0.00736   -0.00310   -0.00283    0.00191
C17   1    0.674690    0.956474    0.420615    11.00000    0.01800    0.03098 =
         0.01082   -0.01199   -0.00552    0.00822
AFIX  43
H17   2    0.644209    1.013375    0.357647    11.00000   -1.20000
AFIX   0
C18   1    0.643420    0.965997    0.521286    11.00000    0.01666    0.01710 =
         0.01581   -0.00828   -0.00023    0.00058
AFIX  43
H18   2    0.591425    1.028843    0.526177    11.00000   -1.20000
AFIX   0
C19   1    0.688031    0.884172    0.613540    11.00000    0.02326    0.02264 =
         0.02066   -0.01065   -0.00170   -0.00047
C20   1    0.766767    0.794683    0.604149    11.00000    0.04089    0.02957 =
         0.00945   -0.00842   -0.00545    0.01433
AFIX  43
H20   2    0.800734    0.740606    0.666165    11.00000   -1.20000
AFIX   0
C21   1    0.796174    0.783519    0.505589    11.00000    0.02666    0.03137 =
         0.00696   -0.00777   -0.00690    0.01188
C22   1    0.869999    0.678908    0.505930    11.00000    0.03668    0.02107 =
         0.00686   -0.00270   -0.00217    0.00805
C23   1    0.647494    0.887230    0.724914    11.00000    0.03083    0.02726 =
         0.00528   -0.00631    0.00337   -0.00474
 
N1    3    1.662504    0.614818    0.020816    11.00000    0.13483    0.14844 =
         0.16948   -0.08142   -0.03345    0.00119
AFIX  23
H1A   2    1.706233    0.667146   -0.031639    11.00000   -1.20000
H1B   2    1.591348    0.649877    0.025878    11.00000   -1.20000
AFIX   0
C24   1    1.706349    0.567637    0.126420    11.00000    0.25727    0.22373 =
         0.19767   -0.10406   -0.08783    0.01228
AFIX 137
H24A  2    1.732127    0.485027    0.147313    11.00000   -1.50000
H24B  2    1.647047    0.577635    0.182135    11.00000   -1.50000
H24C  2    1.769055    0.608844    0.120102    11.00000   -1.50000
AFIX   0
C25   1    1.665417    0.511951   -0.004348    11.00000    0.12513    0.13939 =
         0.16733   -0.08290   -0.03947    0.01018
AFIX 137
H25A  2    1.670535    0.536580   -0.083437    11.00000   -1.50000
H25B  2    1.596995    0.474770    0.031212    11.00000   -1.50000
H25C  2    1.730636    0.456824    0.022626    11.00000   -1.50000
AFIX   0
HKLF 4
 
REM  1_sq in P-1
REM R1 =  0.0791 for    5713 Fo > 4sig(Fo)  and  0.1015 for all    7377 data
REM    354 parameters refined using     51 restraints
 
END  
     
WGHT      0.2000      0.0000 

REM Highest difference peak  1.629,  deepest hole -1.560,  1-sigma level  0.234
Q1    1   1.2587  0.4862  0.6679  11.00000  0.05    1.55
Q2    1   1.2971  0.5174  0.6302  11.00000  0.05    1.50
Q3    1   1.3205  0.5384  0.6122  11.00000  0.05    1.41
Q4    1   1.6756  0.4838  0.2863  11.00000  0.05    1.31
Q5    1   1.6654  0.5120  0.2902  11.00000  0.05    1.28
Q6    1   1.0661  0.4887  0.5340  11.00000  0.05    1.20
Q7    1   1.6385  0.5540  0.0910  11.00000  0.05    1.19
Q8    1   0.5479  0.9437  0.8003  11.00000  0.05    1.18
Q9    1   0.6575  0.8435  0.6315  11.00000  0.05    1.17
Q10   1   1.1367  0.6191  0.6519  11.00000  0.05    1.11
Q11   1   1.4573  0.8264  0.0449  11.00000  0.05    1.10
Q12   1   0.6732  0.9225 -0.0301  11.00000  0.05    1.10
Q13   1   0.8619  0.5781  0.5430  11.00000  0.05    1.06
Q14   1   0.5114  0.9348  0.0738  11.00000  0.05    1.01
Q15   1   0.8567  0.6076  0.5223  11.00000  0.05    1.00
Q16   1   1.6732  0.5418 -0.0417  11.00000  0.05    0.97
Q17   1   0.5000  1.0000  0.0000  10.50000  0.05    0.94
Q18   1   0.6912  0.9170  0.5929  11.00000  0.05    0.93
Q19   1   0.6304  0.8426  0.0009  11.00000  0.05    0.93
Q20   1   1.0351  0.6569  0.6088  11.00000  0.05    0.91
Q21   1   1.1272  0.5952  0.5177  11.00000  0.05    0.89
Q22   1   1.0986  0.5528  0.4510  11.00000  0.05    0.89
Q23   1   0.6280  0.9247  0.5404  11.00000  0.05    0.89
Q24   1   0.7988  0.5209  0.4817  11.00000  0.05    0.87
Q25   1   1.0274  0.7623  0.1390  11.00000  0.05    0.86
Q26   1   0.7396  1.0003  0.0209  11.00000  0.05    0.85
Q27   1   0.9747  0.5408  0.5872  11.00000  0.05    0.83
Q28   1   0.5731  0.7853  0.8480  11.00000  0.05    0.79
Q29   1   1.3005  0.7672 -0.0604  11.00000  0.05    0.79
Q30   1   1.7004  0.7449 -0.0950  11.00000  0.05    0.79

  REM The information below was added by Olex2.
  REM
  REM R1 = 0.0791 for 5713 Fo > 4sig(Fo) and 0.1015 for all 11769 data
  REM n/a parameters refined using n/a restraints
  REM Highest difference peak 1.63, deepest hole -1.56
  REM Mean Shift 0, Max Shift 0.000.

  REM +++ Tabular Listing of Refinement Information +++
  REM R1_all = 0.1015
  REM R1_gt = 0.0791
  REM wR_ref = 0.3037
  REM GOOF = 1.226
  REM Shift_max = 0.000
  REM Shift_mean = 0
  REM Reflections_all = 11769
  REM Reflections_gt = 5713
  REM Parameters = n/a
  REM Hole = -1.56
  REM Peak = 1.63
  REM Flack = n/a

  
;
_cod_data_source_file            c7dt04696k1.cif
_cod_data_source_block           2
_cod_depositor_comments
'Adding full bibliography for 7045167--7045170.cif.'
_cod_original_cell_volume        1893.6(14)
_cod_database_code               7045168
_shelx_space_group_comment
;
The symmetry employed for this shelxl refinement is uniquely defined
by the following loop, which should always be used as a source of
symmetry information in preference to the above space-group names.
They are only intended as comments.
;
_olex2_refinement_description
;
1. Fixed Uiso
 At 1.2 times of:
  All C(H) groups, All N(H,H) groups
 At 1.5 times of:
  All C(H,H,H) groups, All O(H,H) groups
2. Uiso/Uaniso restraints and constraints
Uanis(C25) \\sim Ueq, Uanis(N1) \\sim Ueq, Uanis(C24) \\sim Ueq: with sigma of
0.01 and sigma for terminal atoms of 0.02
Uanis(O5) \\sim Ueq, Uanis(C18) \\sim Ueq, Uanis(C19) \\sim Ueq, Uanis(C5)
\\sim Ueq: with sigma of 0.001 and sigma for terminal atoms of 0.002
3. Rigid body (RIGU) restrains
 N1, C24, C25
 with sigma for 1-2 distances of 0.004 and sigma for 1-3 distances of 0.004
4.a Riding coordinates:
 O11(H11A,H11B)
4.b Secondary CH2 refined with riding coordinates:
 N1(H1A,H1B)
4.c Aromatic/amide H refined with riding coordinates:
 C3(H3), C4(H4), C7(H7), C10(H10), C12(H12), C14(H14), C17(H17), C18(H18),
 C20(H20)
4.d Idealised Me refined as rotating group:
 C24(H24A,H24B,H24C), C25(H25A,H25B,H25C)
;
_shelx_fab_checksum              49078
_shelx_fab_file
;
    1    0    0      6.09      0.00
    2    0    0     72.19      0.00
    3    0    0     -7.01      0.00
    4    0    0     -3.64      0.00
    5    0    0      6.44      0.00
    6    0    0     -0.08      0.00
    7    0    0      4.26      0.00
    8    0    0     -0.27      0.00
    9    0    0     -1.63      0.00
   10    0    0      2.87      0.00
   11    0    0      0.91      0.00
   12    0    0     -1.42      0.00
   13    0    0      1.19      0.00
   14    0    0     -2.17      0.00
  -15    1    0     -1.87      0.00
  -14    1    0      2.59      0.00
  -13    1    0     -2.11      0.00
  -12    1    0      2.39      0.00
  -11    1    0     -0.28      0.00
  -10    1    0     -0.88      0.00
   -9    1    0      0.83      0.00
   -8    1    0     -5.37      0.00
   -7    1    0     -6.41      0.00
   -6    1    0      3.92      0.00
   -5    1    0    -13.44      0.00
   -4    1    0      6.55      0.00
   -3    1    0    -15.06      0.00
   -1    1    0     -0.10      0.00
    0    1    0    -34.00      0.00
    1    1    0     87.87      0.00
    2    1    0    -38.64      0.00
    3    1    0    -15.38      0.00
    4    1    0     -3.39      0.00
    5    1    0     -7.51      0.00
    6    1    0      0.11      0.00
    7    1    0      2.41      0.00
    8    1    0     -0.07      0.00
    9    1    0      2.01      0.00
   10    1    0     -1.68      0.00
   11    1    0      1.41      0.00
   12    1    0      0.34      0.00
   13    1    0      0.41      0.00
   14    1    0      0.51      0.00
  -15    2    0     -1.17      0.00
  -14    2    0     -2.22      0.00
  -13    2    0      1.11      0.00
  -12    2    0      0.15      0.00
  -11    2    0     -1.70      0.00
  -10    2    0      1.87      0.00
   -9    2    0     -4.10      0.00
   -8    2    0      5.26      0.00
   -7    2    0      0.80      0.00
   -6    2    0     -0.41      0.00
   -5    2    0      9.15      0.00
   -4    2    0     -8.46      0.00
   -3    2    0      9.54      0.00
   -2    2    0    -12.78      0.00
   -1    2    0      3.28      0.00
    1    2    0     68.88      0.00
    2    2    0     -3.35      0.00
    3    2    0     19.67      0.00
    4    2    0    -18.52      0.00
    5    2    0      3.80      0.00
    6    2    0     -5.86      0.00
    7    2    0     -2.42      0.00
    8    2    0      3.25      0.00
    9    2    0     -3.76      0.00
   10    2    0      0.89      0.00
   11    2    0      1.92      0.00
   12    2    0      1.10      0.00
   13    2    0     -0.07      0.00
   14    2    0      0.40      0.00
   15    2    0     -3.45      0.00
  -15    3    0      1.14      0.00
  -14    3    0      0.65      0.00
  -13    3    0     -0.14      0.00
  -12    3    0     -0.38      0.00
  -11    3    0      2.92      0.00
  -10    3    0     -2.10      0.00
   -9    3    0      4.06      0.00
   -8    3    0     -2.37      0.00
   -7    3    0     -0.96      0.00
   -6    3    0     -1.98      0.00
   -5    3    0     -1.93      0.00
   -4    3    0     -3.18      0.00
   -3    3    0      1.35      0.00
   -2    3    0      3.20      0.00
   -1    3    0      4.98      0.00
    0    3    0     20.65      0.00
    1    3    0    -16.15      0.00
    2    3    0     57.48      0.00
    3    3    0    -23.53      0.00
    5    3    0    -10.97      0.00
    6    3    0      0.96      0.00
    7    3    0      3.46      0.00
    8    3    0     -2.08      0.00
    9    3    0      5.59      0.00
   10    3    0      0.96      0.00
   11    3    0      0.95      0.00
   12    3    0      2.82      0.00
   13    3    0     -0.85      0.00
   14    3    0     -0.62      0.00
   15    3    0      1.07      0.00
   16    3    0     -0.48      0.00
  -15    4    0      0.01      0.00
  -14    4    0     -0.35      0.00
  -13    4    0      0.83      0.00
  -12    4    0      0.85      0.00
  -11    4    0      0.86      0.00
  -10    4    0      0.97      0.00
   -9    4    0      0.27      0.00
   -8    4    0     -1.04      0.00
   -7    4    0      5.98      0.00
   -6    4    0     -2.96      0.00
   -5    4    0     -0.13      0.00
   -4    4    0      1.56      0.00
   -3    4    0     -9.55      0.00
   -2    4    0      8.28      0.00
   -1    4    0    -10.92      0.00
    0    4    0      3.40      0.00
    1    4    0     -9.52      0.00
    2    4    0     -0.10      0.00
    3    4    0     14.06      0.00
    4    4    0     -0.14      0.00
    5    4    0     -3.38      0.00
    6    4    0      1.98      0.00
    7    4    0     -1.92      0.00
    8    4    0      2.98      0.00
    9    4    0     -3.58      0.00
   10    4    0      0.92      0.00
   11    4    0      0.18      0.00
   12    4    0     -0.52      0.00
   13    4    0      2.47      0.00
   14    4    0     -0.82      0.00
   15    4    0      2.21      0.00
  -14    5    0      0.20      0.00
  -13    5    0      0.14      0.00
  -12    5    0     -1.30      0.00
  -11    5    0      0.84      0.00
  -10    5    0      0.03      0.00
   -9    5    0     -1.53      0.00
   -8    5    0      3.77      0.00
   -7    5    0     -1.78      0.00
   -6    5    0      7.07      0.00
   -5    5    0     -1.82      0.00
   -4    5    0      0.59      0.00
   -3    5    0      5.30      0.00
   -2    5    0     -5.16      0.00
   -1    5    0      6.97      0.00
    0    5    0     -0.28      0.00
    2    5    0     -3.27      0.00
    3    5    0     13.06      0.00
    4    5    0     -2.23      0.00
    5    5    0      4.00      0.00
    6    5    0     -8.86      0.00
    8    5    0      0.72      0.00
    9    5    0     -0.27      0.00
   10    5    0     -1.17      0.00
   11    5    0      0.84      0.00
   12    5    0      0.53      0.00
   13    5    0     -0.92      0.00
   14    5    0      2.45      0.00
   15    5    0     -1.60      0.00
  -14    6    0     -0.96      0.00
  -13    6    0     -0.31      0.00
  -11    6    0     -2.84      0.00
  -10    6    0      1.90      0.00
   -9    6    0     -1.12      0.00
   -8    6    0     -0.97      0.00
   -7    6    0      1.15      0.00
   -6    6    0     -1.47      0.00
   -5    6    0     -1.72      0.00
   -4    6    0     -0.30      0.00
   -3    6    0     -4.79      0.00
   -2    6    0      1.07      0.00
   -1    6    0     -1.98      0.00
    0    6    0     -1.59      0.00
    1    6    0      2.70      0.00
    2    6    0     -2.65      0.00
    3    6    0     -7.89      0.00
    4    6    0      6.93      0.00
    5    6    0     -3.60      0.00
    6    6    0      1.33      0.00
    7    6    0     -0.47      0.00
    8    6    0     -3.16      0.00
    9    6    0     -1.12      0.00
   10    6    0     -0.11      0.00
   11    6    0     -0.73      0.00
   12    6    0      0.14      0.00
   13    6    0      0.34      0.00
   14    6    0     -1.93      0.00
   15    6    0      0.14      0.00
  -13    7    0     -0.52      0.00
  -12    7    0     -1.04      0.00
  -11    7    0      2.01      0.00
  -10    7    0     -1.16      0.00
   -9    7    0      2.85      0.00
   -8    7    0     -1.55      0.00
   -7    7    0     -0.30      0.00
   -6    7    0     -0.53      0.00
   -5    7    0      3.28      0.00
   -4    7    0     -4.10      0.00
   -3    7    0      2.61      0.00
   -2    7    0     -3.27      0.00
   -1    7    0      0.24      0.00
    0    7    0      1.32      0.00
    1    7    0      1.81      0.00
    2    7    0     -1.77      0.00
    3    7    0      0.79      0.00
    4    7    0     -2.03      0.00
    5    7    0      2.28      0.00
    6    7    0      0.95      0.00
    7    7    0     -3.12      0.00
    8    7    0      1.99      0.00
    9    7    0     -2.46      0.00
   10    7    0     -1.87      0.00
   11    7    0      1.36      0.00
   12    7    0     -2.43      0.00
   13    7    0      1.23      0.00
   14    7    0      0.34      0.00
   15    7    0     -0.92      0.00
  -12    8    0      0.73      0.00
  -11    8    0     -1.37      0.00
  -10    8    0      0.15      0.00
   -9    8    0      0.38      0.00
   -8    8    0      0.79      0.00
   -7    8    0      1.27      0.00
   -6    8    0      0.30      0.00
   -5    8    0     -1.81      0.00
   -4    8    0      0.99      0.00
   -3    8    0     -1.57      0.00
   -2    8    0     -1.07      0.00
   -1    8    0      0.27      0.00
    0    8    0     -2.64      0.00
    1    8    0     -5.86      0.00
    3    8    0     -9.28      0.00
    4    8    0     -1.52      0.00
    5    8    0     -1.05      0.00
    6    8    0     -3.02      0.00
    7    8    0      1.34      0.00
    8    8    0     -2.17      0.00
    9    8    0      1.59      0.00
   10    8    0     -1.52      0.00
   11    8    0     -0.58      0.00
   12    8    0      3.14      0.00
   13    8    0     -2.50      0.00
   14    8    0      1.73      0.00
  -12    9    0     -1.82      0.00
  -11    9    0      0.09      0.00
  -10    9    0     -0.76      0.00
   -9    9    0     -1.61      0.00
   -8    9    0      2.85      0.00
   -7    9    0     -1.87      0.00
   -6    9    0      2.22      0.00
   -5    9    0      0.17      0.00
   -4    9    0     -0.19      0.00
   -3    9    0     -3.23      0.00
   -2    9    0      2.15      0.00
   -1    9    0     -1.55      0.00
    0    9    0      2.95      0.00
    1    9    0     -0.37      0.00
    2    9    0     -3.31      0.00
    3    9    0     -4.67      0.00
    4    9    0     -4.95      0.00
    5    9    0     -0.48      0.00
    6    9    0      0.33      0.00
    7    9    0     -0.95      0.00
    8    9    0      2.76      0.00
    9    9    0     -0.03      0.00
   10    9    0      1.47      0.00
   11    9    0      2.70      0.00
   12    9    0      0.63      0.00
   13    9    0      3.33      0.00
   14    9    0     -0.12      0.00
  -11   10    0     -0.13      0.00
  -10   10    0      0.17      0.00
   -9   10    0      1.50      0.00
   -8   10    0     -0.26      0.00
   -7   10    0      2.36      0.00
   -6   10    0     -1.26      0.00
   -5   10    0      1.03      0.00
   -4   10    0      0.85      0.00
   -3   10    0      1.28      0.00
   -2   10    0     -2.27      0.00
   -1   10    0     -0.96      0.00
    0   10    0     -0.74      0.00
    1   10    0     -0.15      0.00
    2   10    0      0.73      0.00
    3   10    0      1.35      0.00
    4   10    0     -2.75      0.00
    5   10    0     -0.09      0.00
    6   10    0      0.00      0.00
    7   10    0      0.03      0.00
    8   10    0      0.33      0.00
    9   10    0     -0.19      0.00
   10   10    0      2.49      0.00
   11   10    0     -2.24      0.00
   12   10    0      0.68      0.00
   13   10    0     -1.29      0.00
  -10   11    0      1.12      0.00
   -9   11    0     -0.51      0.00
   -8   11    0     -0.86      0.00
   -7   11    0      0.36      0.00
   -6   11    0     -0.67      0.00
   -5   11    0     -0.32      0.00
   -4   11    0      0.25      0.00
   -3   11    0      1.59      0.00
   -2   11    0     -0.29      0.00
   -1   11    0      2.01      0.00
    0   11    0      0.02      0.00
    1   11    0      3.56      0.00
    2   11    0      0.99      0.00
    3   11    0      3.01      0.00
    4   11    0      1.25      0.00
    5   11    0      0.28      0.00
    6   11    0      1.32      0.00
    7   11    0     -0.26      0.00
    8   11    0     -0.63      0.00
    9   11    0      0.21      0.00
   10   11    0     -0.95      0.00
   11   11    0      2.36      0.00
   12   11    0     -0.43      0.00
   -8   12    0      0.08      0.00
   -7   12    0      0.33      0.00
   -6   12    0      0.74      0.00
   -5   12    0     -1.33      0.00
   -4   12    0      0.29      0.00
   -3   12    0     -0.39      0.00
   -2   12    0      0.65      0.00
   -1   12    0     -3.05      0.00
    0   12    0      0.80      0.00
    1   12    0     -1.81      0.00
    2   12    0      0.39      0.00
    3   12    0      0.25      0.00
    4   12    0      0.15      0.00
    5   12    0      0.13      0.00
    6   12    0     -0.69      0.00
    7   12    0      1.14      0.00
    8   12    0     -0.88      0.00
    9   12    0      0.07      0.00
   10   12    0      0.29      0.00
   11   12    0      1.97      0.00
   -4   13    0     -1.21      0.00
   -3   13    0      1.00      0.00
   -2   13    0      0.69      0.00
   -1   13    0     -0.09      0.00
    0   13    0     -0.95      0.00
    1   13    0      2.46      0.00
    2   13    0      2.00      0.00
    3   13    0      0.00      0.00
    4   13    0      3.86      0.00
    5   13    0     -0.62      0.00
    6   13    0      0.13      0.00
    7   13    0     -0.01      0.00
    8   13    0     -0.15      0.00
    9   13    0     -0.59      0.00
   10   13    0     -0.82      0.00
   -4   14    0      1.24      0.00
   -3   14    0      1.20      0.00
   -2   14    0     -0.67      0.00
   -1   14    0      0.09      0.00
    0   14    0     -1.71      0.00
    1   14    0     -0.46      0.00
    2   14    0     -0.51      0.00
    3   14    0      2.08      0.00
    4   14    0     -1.92      0.00
    5   14    0      3.08      0.00
    6   14    0     -0.56      0.00
    7   14    0     -1.51      0.00
   -4  -14    1      1.29      0.00
   -3  -14    1     -0.68      0.00
   -2  -14    1      1.74      0.00
   -1  -14    1     -0.73      0.00
    0  -14    1      0.82      0.00
    1  -14    1     -1.24      0.00
    2  -14    1      1.88      0.00
    3  -14    1      0.55      0.00
   -9  -13    1     -0.49      0.00
   -8  -13    1     -1.39      0.00
   -7  -13    1      0.27      0.00
   -6  -13    1     -1.42      0.00
   -5  -13    1      1.74      0.00
   -4  -13    1     -2.61      0.00
   -3  -13    1     -1.38      0.00
   -2  -13    1     -1.50      0.00
   -1  -13    1     -0.59      0.00
    0  -13    1     -1.92      0.00
    1  -13    1      1.38      0.00
    2  -13    1      0.78      0.00
    3  -13    1     -0.96      0.00
    4  -13    1     -0.89      0.00
  -10  -12    1      0.80      0.00
   -9  -12    1      0.10      0.00
   -8  -12    1      0.88      0.00
   -7  -12    1     -1.04      0.00
   -6  -12    1     -0.66      0.00
   -5  -12    1      0.16      0.00
   -4  -12    1      0.94      0.00
   -3  -12    1      0.39      0.00
   -2  -12    1     -2.34      0.00
   -1  -12    1     -1.08      0.00
    0  -12    1     -2.24      0.00
    1  -12    1     -1.05      0.00
    2  -12    1     -1.35      0.00
    3  -12    1      1.00      0.00
    4  -12    1     -0.59      0.00
    7  -12    1     -0.84      0.00
    8  -12    1     -0.34      0.00
  -12  -11    1      0.72      0.00
  -11  -11    1     -3.22      0.00
  -10  -11    1     -0.38      0.00
   -9  -11    1     -0.72      0.00
   -8  -11    1      0.22      0.00
   -7  -11    1     -0.66      0.00
   -6  -11    1     -1.56      0.00
   -5  -11    1     -2.93      0.00
   -4  -11    1      2.29      0.00
   -3  -11    1     -2.50      0.00
   -2  -11    1      1.17      0.00
   -1  -11    1     -0.28      0.00
    0  -11    1      0.26      0.00
    1  -11    1     -0.12      0.00
    2  -11    1      3.53      0.00
    3  -11    1     -1.11      0.00
    4  -11    1      0.96      0.00
    5  -11    1     -0.40      0.00
    6  -11    1      1.12      0.00
    7  -11    1      0.01      0.00
    8  -11    1      0.33      0.00
    9  -11    1      2.04      0.00
  -12  -10    1     -1.35      0.00
  -11  -10    1      1.79      0.00
  -10  -10    1     -3.29      0.00
   -9  -10    1      0.22      0.00
   -8  -10    1      1.45      0.00
   -7  -10    1     -0.97      0.00
   -6  -10    1      0.95      0.00
   -5  -10    1     -2.42      0.00
   -4  -10    1      0.17      0.00
   -3  -10    1     -0.94      0.00
   -2  -10    1     -3.27      0.00
   -1  -10    1     -3.00      0.00
    0  -10    1      1.69      0.00
    1  -10    1     -1.66      0.00
    2  -10    1     -0.91      0.00
    3  -10    1      2.53      0.00
    4  -10    1     -1.60      0.00
    5  -10    1      0.54      0.00
    6  -10    1      0.44      0.00
    7  -10    1     -0.69      0.00
    8  -10    1      2.44      0.00
    9  -10    1      0.12      0.00
   10  -10    1      0.28      0.00
  -13   -9    1     -1.10      0.00
  -12   -9    1      2.72      0.00
  -11   -9    1     -0.82      0.00
  -10   -9    1     -0.07      0.00
   -9   -9    1      1.01      0.00
   -8   -9    1     -2.82      0.00
   -7   -9    1      0.55      0.00
   -6   -9    1     -0.83      0.00
   -5   -9    1      0.33      0.00
   -4   -9    1      2.25      0.00
   -3   -9    1      3.44      0.00
   -2   -9    1     -5.32      0.00
   -1   -9    1     -1.41      0.00
    0   -9    1     -5.17      0.00
    1   -9    1      4.07      0.00
    2   -9    1      0.66      0.00
    3   -9    1      0.19      0.00
    4   -9    1      2.23      0.00
    5   -9    1     -0.43      0.00
    6   -9    1     -1.09      0.00
    7   -9    1      1.64      0.00
    8   -9    1     -4.39      0.00
    9   -9    1      0.50      0.00
   10   -9    1      1.14      0.00
   11   -9    1     -1.52      0.00
  -14   -8    1     -0.21      0.00
  -13   -8    1     -0.63      0.00
  -12   -8    1     -2.80      0.00
  -11   -8    1     -2.33      0.00
  -10   -8    1     -0.09      0.00
   -9   -8    1     -1.00      0.00
   -8   -8    1      0.64      0.00
   -7   -8    1     -3.38      0.00
   -6   -8    1     -0.09      0.00
   -5   -8    1      3.41      0.00
   -4   -8    1      2.00      0.00
   -2   -8    1      5.61      0.00
   -1   -8    1     -0.20      0.00
    0   -8    1     -0.34      0.00
    1   -8    1     -4.24      0.00
    2   -8    1     -1.96      0.00
    3   -8    1      2.61      0.00
    4   -8    1     -0.31      0.00
    5   -8    1      1.59      0.00
    6   -8    1      0.46      0.00
    7   -8    1     -2.38      0.00
    8   -8    1      0.73      0.00
    9   -8    1     -2.39      0.00
   10   -8    1     -0.29      0.00
   11   -8    1      2.38      0.00
   12   -8    1     -0.01      0.00
  -14   -7    1     -0.56      0.00
  -13   -7    1     -1.06      0.00
  -12   -7    1     -2.31      0.00
  -11   -7    1     -0.11      0.00
  -10   -7    1     -1.65      0.00
   -9   -7    1      3.09      0.00
   -8   -7    1      0.67      0.00
   -7   -7    1     -0.69      0.00
   -6   -7    1     -0.58      0.00
   -5   -7    1     -0.69      0.00
   -4   -7    1      2.96      0.00
   -3   -7    1      0.28      0.00
   -2   -7    1     19.66      0.00
   -1   -7    1      0.06      0.00
    0   -7    1      2.54      0.00
    1   -7    1     -0.26      0.00
    2   -7    1      1.00      0.00
    3   -7    1     -3.57      0.00
    4   -7    1      1.84      0.00
    5   -7    1      1.65      0.00
    6   -7    1      0.15      0.00
    7   -7    1      0.36      0.00
    8   -7    1     -1.04      0.00
    9   -7    1     -0.53      0.00
   10   -7    1      0.12      0.00
   11   -7    1     -0.40      0.00
   12   -7    1      0.64      0.00
   13   -7    1      1.79      0.00
  -15   -6    1      1.38      0.00
  -14   -6    1      1.14      0.00
  -13   -6    1     -2.08      0.00
  -12   -6    1      0.17      0.00
  -11   -6    1     -0.46      0.00
  -10   -6    1      0.39      0.00
   -9   -6    1     -0.16      0.00
   -8   -6    1      3.51      0.00
   -7   -6    1      2.57      0.00
   -6   -6    1     -3.71      0.00
   -5   -6    1      4.71      0.00
   -4   -6    1     -6.78      0.00
   -3   -6    1      0.96      0.00
   -2   -6    1      6.67      0.00
   -1   -6    1      9.18      0.00
    0   -6    1     -4.72      0.00
    1   -6    1      0.36      0.00
    2   -6    1     -0.91      0.00
    3   -6    1      0.89      0.00
    4   -6    1      2.30      0.00
    5   -6    1     -3.71      0.00
    6   -6    1      1.85      0.00
    7   -6    1     -1.49      0.00
    8   -6    1      0.45      0.00
    9   -6    1      0.20      0.00
   10   -6    1     -2.44      0.00
   11   -6    1      1.33      0.00
   12   -6    1     -1.65      0.00
   13   -6    1     -0.06      0.00
   14   -6    1      1.75      0.00
  -15   -5    1      0.51      0.00
  -14   -5    1      0.79      0.00
  -13   -5    1      0.46      0.00
  -12   -5    1     -0.82      0.00
  -11   -5    1     -0.34      0.00
  -10   -5    1     -0.45      0.00
   -9   -5    1     -1.40      0.00
   -8   -5    1      1.47      0.00
   -6   -5    1      2.19      0.00
   -5   -5    1     -3.26      0.00
   -4   -5    1      2.60      0.00
   -3   -5    1      1.94      0.00
   -2   -5    1      3.41      0.00
   -1   -5    1      8.75      0.00
    0   -5    1      5.90      0.00
    1   -5    1     -6.69      0.00
    2   -5    1      3.35      0.00
    3   -5    1      1.10      0.00
    4   -5    1     -0.71      0.00
    5   -5    1      7.57      0.00
    6   -5    1     -2.78      0.00
    7   -5    1      3.09      0.00
    8   -5    1     -1.88      0.00
    9   -5    1      0.63      0.00
   10   -5    1      2.05      0.00
   11   -5    1     -1.12      0.00
   12   -5    1      2.43      0.00
   13   -5    1     -0.33      0.00
   14   -5    1     -0.25      0.00
  -15   -4    1     -0.31      0.00
  -14   -4    1      1.18      0.00
  -13   -4    1     -1.26      0.00
  -12   -4    1     -0.07      0.00
  -11   -4    1     -0.60      0.00
  -10   -4    1     -1.11      0.00
   -9   -4    1      0.28      0.00
   -8   -4    1     -4.58      0.00
   -7   -4    1      1.15      0.00
   -6   -4    1      0.27      0.00
   -5   -4    1     -3.22      0.00
   -4   -4    1     10.99      0.00
   -3   -4    1    -16.48      0.00
   -2   -4    1      2.43      0.00
    3   -4    1     -0.66      0.00
    4   -4    1     -2.88      0.00
    5   -4    1     -1.98      0.00
    6   -4    1      2.46      0.00
    8   -4    1     -1.57      0.00
    9   -4    1     -0.85      0.00
   10   -4    1     -1.01      0.00
   11   -4    1      2.22      0.00
   12   -4    1     -0.49      0.00
   13   -4    1      0.08      0.00
   14   -4    1      0.62      0.00
   15   -4    1      1.22      0.00
  -15   -3    1     -0.51      0.00
  -14   -3    1     -1.23      0.00
  -13   -3    1      1.12      0.00
  -12   -3    1     -2.56      0.00
  -11   -3    1      0.25      0.00
  -10   -3    1      1.13      0.00
   -9   -3    1     -2.68      0.00
   -8   -3    1      2.68      0.00
   -7   -3    1     -2.44      0.00
   -6   -3    1     -5.12      0.00
   -5   -3    1      5.57      0.00
   -4   -3    1    -18.10      0.00
   -2   -3    1    -21.28      0.00
    0   -3    1     11.58      0.00
    1   -3    1      7.24      0.00
    2   -3    1      5.42      0.00
    3   -3    1      0.98      0.00
    4   -3    1      1.03      0.00
    5   -3    1      0.12      0.00
    6   -3    1     -1.35      0.00
    7   -3    1     -2.84      0.00
    8   -3    1      0.27      0.00
    9   -3    1     -3.38      0.00
   10   -3    1      2.46      0.00
   11   -3    1     -1.71      0.00
   12   -3    1      1.21      0.00
   13   -3    1     -0.11      0.00
   14   -3    1      0.56      0.00
   15   -3    1     -0.57      0.00
  -15   -2    1     -0.09      0.00
  -14   -2    1      0.33      0.00
  -13   -2    1     -0.30      0.00
  -12   -2    1      2.91      0.00
  -11   -2    1     -2.09      0.00
  -10   -2    1     -3.21      0.00
   -9   -2    1      0.17      0.00
   -8   -2    1     -4.61      0.00
   -7   -2    1     -0.96      0.00
   -6   -2    1      0.14      0.00
   -5   -2    1     -5.72      0.00
   -4   -2    1     11.19      0.00
   -3   -2    1     -2.57      0.00
   -1   -2    1    -22.35      0.00
    0   -2    1    -25.17      0.00
    1   -2    1    -13.75      0.00
    2   -2    1     -2.91      0.00
    3   -2    1     -4.42      0.00
    4   -2    1      4.98      0.00
    5   -2    1     -2.80      0.00
    6   -2    1      2.90      0.00
    7   -2    1      0.70      0.00
    8   -2    1     -0.12      0.00
    9   -2    1      1.25      0.00
   10   -2    1     -2.19      0.00
   11   -2    1     -1.28      0.00
   12   -2    1     -0.29      0.00
   13   -2    1     -1.38      0.00
   14   -2    1     -0.61      0.00
   15   -2    1     -0.64      0.00
  -14   -1    1      0.44      0.00
  -13   -1    1      2.92      0.00
  -12   -1    1     -1.21      0.00
  -11   -1    1     -0.78      0.00
  -10   -1    1     -1.38      0.00
   -9   -1    1      0.00      0.00
   -8   -1    1      2.53      0.00
   -7   -1    1     -0.84      0.00
   -6   -1    1      5.03      0.00
   -5   -1    1      5.28      0.00
   -4   -1    1      2.73      0.00
   -3   -1    1    -10.67      0.00
   -2   -1    1     39.83      0.00
    0   -1    1     24.40      0.00
    1   -1    1    -25.01      0.00
    2   -1    1     10.22      0.00
    3   -1    1      3.77      0.00
    4   -1    1     -1.38      0.00
    5   -1    1      4.70      0.00
    6   -1    1     -6.85      0.00
    7   -1    1     -1.92      0.00
    8   -1    1     -3.20      0.00
    9   -1    1      1.97      0.00
   10   -1    1     -0.36      0.00
   11   -1    1      2.60      0.00
   12   -1    1     -1.16      0.00
   13   -1    1      2.86      0.00
   14   -1    1     -2.08      0.00
   15   -1    1      1.73      0.00
  -14    0    1      1.54      0.00
  -13    0    1     -2.03      0.00
  -12    0    1      1.64      0.00
  -11    0    1      0.77      0.00
  -10    0    1     -1.40      0.00
   -9    0    1     -0.75      0.00
   -8    0    1     -0.86      0.00
   -7    0    1     -1.99      0.00
   -6    0    1     -4.89      0.00
   -5    0    1     -0.30      0.00
   -4    0    1      1.63      0.00
   -3    0    1     21.25      0.00
   -2    0    1     -9.74      0.00
   -1    0    1     90.55      0.00
    0    0    1    -65.19      0.00
    1    0    1     33.09      0.00
    3    0    1      6.96      0.00
    4    0    1      6.80      0.00
    5    0    1      1.37      0.00
    6    0    1      6.53      0.00
    7    0    1     -0.19      0.00
    8    0    1      1.05      0.00
    9    0    1      1.82      0.00
   10    0    1      1.64      0.00
   11    0    1     -0.04      0.00
   12    0    1     -0.79      0.00
   13    0    1     -1.56      0.00
   14    0    1      1.86      0.00
   15    0    1     -2.29      0.00
  -15    1    1      1.75      0.00
  -14    1    1     -1.55      0.00
  -13    1    1      1.96      0.00
  -12    1    1      1.02      0.00
  -11    1    1     -0.27      0.00
  -10    1    1      0.85      0.00
   -9    1    1     -5.66      0.00
   -8    1    1     -2.04      0.00
   -7    1    1     -2.77      0.00
   -6    1    1     -8.83      0.00
   -5    1    1     -1.00      0.00
   -4    1    1     -9.06      0.00
   -3    1    1     -1.05      0.00
   -2    1    1    -12.26      0.00
   -1    1    1    -38.82      0.00
    1    1    1   -115.42      0.00
    2    1    1    -70.82      0.00
    3    1    1     -4.55      0.00
    4    1    1    -11.40      0.00
    5    1    1      4.57      0.00
    6    1    1     -4.69      0.00
    7    1    1      0.44      0.00
    8    1    1      2.11      0.00
    9    1    1     -1.25      0.00
   10    1    1      3.72      0.00
   11    1    1     -3.33      0.00
   12    1    1      1.55      0.00
   13    1    1     -0.55      0.00
   14    1    1      0.24      0.00
  -15    2    1     -1.03      0.00
  -14    2    1      2.02      0.00
  -13    2    1      0.38      0.00
  -12    2    1     -1.24      0.00
  -11    2    1      1.96      0.00
  -10    2    1     -2.89      0.00
   -9    2    1      3.08      0.00
   -8    2    1     -1.29      0.00
   -7    2    1      3.70      0.00
   -6    2    1      6.35      0.00
   -5    2    1     -3.30      0.00
   -4    2    1      7.34      0.00
   -2    2    1     25.82      0.00
   -1    2    1     10.33      0.00
    0    2    1     73.62      0.00
    1    2    1    -52.99      0.00
    2    2    1     -4.90      0.00
    4    2    1     18.39      0.00
    5    2    1     -3.65      0.00
    6    2    1      8.81      0.00
    7    2    1     -1.93      0.00
    8    2    1     -3.41      0.00
    9    2    1      1.97      0.00
   10    2    1     -3.51      0.00
   11    2    1      3.53      0.00
   12    2    1     -2.26      0.00
   13    2    1      0.60      0.00
   14    2    1     -2.52      0.00
   15    2    1     -0.22      0.00
  -15    3    1      0.79      0.00
  -14    3    1      0.94      0.00
  -13    3    1      0.99      0.00
  -12    3    1     -0.71      0.00
  -11    3    1     -0.75      0.00
  -10    3    1      2.38      0.00
   -9    3    1     -0.75      0.00
   -8    3    1     -2.44      0.00
   -7    3    1     -1.78      0.00
   -6    3    1     -2.82      0.00
   -5    3    1     -1.12      0.00
   -4    3    1     -2.77      0.00
   -3    3    1     -3.41      0.00
   -2    3    1     -3.48      0.00
   -1    3    1      8.67      0.00
    1    3    1     31.27      0.00
    2    3    1    -39.36      0.00
    3    3    1    -22.17      0.00
    5    3    1      4.02      0.00
    6    3    1      2.35      0.00
    7    3    1      6.91      0.00
    8    3    1      0.68      0.00
    9    3    1     -3.32      0.00
   10    3    1      2.26      0.00
   11    3    1     -0.21      0.00
   12    3    1      0.81      0.00
   13    3    1     -0.13      0.00
   14    3    1      0.72      0.00
   15    3    1      0.44      0.00
   16    3    1      0.39      0.00
  -14    4    1     -0.78      0.00
  -13    4    1      0.29      0.00
  -12    4    1      2.98      0.00
  -11    4    1     -1.89      0.00
  -10    4    1      1.64      0.00
   -9    4    1     -2.19      0.00
   -8    4    1      2.23      0.00
   -7    4    1     -4.22      0.00
   -6    4    1      2.80      0.00
   -5    4    1      2.16      0.00
   -4    4    1      1.06      0.00
   -3    4    1      3.69      0.00
   -2    4    1     -5.26      0.00
   -1    4    1      0.24      0.00
    1    4    1     17.03      0.00
    2    4    1    -11.72      0.00
    4    4    1    -17.41      0.00
    5    4    1     10.45      0.00
    6    4    1      0.58      0.00
    7    4    1      6.22      0.00
    8    4    1      0.71      0.00
    9    4    1     -1.40      0.00
   10    4    1     -2.17      0.00
   11    4    1     -1.22      0.00
   12    4    1      0.85      0.00
   13    4    1     -2.13      0.00
   14    4    1      3.08      0.00
   15    4    1     -2.27      0.00
   16    4    1      1.45      0.00
  -14    5    1     -1.05      0.00
  -13    5    1     -1.88      0.00
  -12    5    1     -1.75      0.00
  -11    5    1     -0.50      0.00
  -10    5    1     -3.26      0.00
   -9    5    1      0.00      0.00
   -8    5    1     -1.95      0.00
   -7    5    1     -0.09      0.00
   -6    5    1     -2.16      0.00
   -5    5    1     -1.16      0.00
   -4    5    1      1.80      0.00
   -3    5    1      1.94      0.00
   -2    5    1      1.72      0.00
   -1    5    1      1.90      0.00
    0    5    1      2.18      0.00
    1    5    1     -4.24      0.00
    2    5    1     16.51      0.00
    3    5    1    -12.40      0.00
    4    5    1     -5.74      0.00
    5    5    1    -11.12      0.00
    6    5    1      6.51      0.00
    7    5    1      1.48      0.00
    9    5    1      0.24      0.00
   10    5    1      0.92      0.00
   11    5    1      0.38      0.00
   12    5    1      0.03      0.00
   13    5    1      3.64      0.00
   14    5    1     -3.36      0.00
   15    5    1      2.43      0.00
  -14    6    1     -0.28      0.00
  -13    6    1      0.83      0.00
  -12    6    1     -0.65      0.00
  -11    6    1      2.06      0.00
  -10    6    1     -1.58      0.00
   -9    6    1      1.51      0.00
   -8    6    1     -2.93      0.00
   -7    6    1      1.20      0.00
   -6    6    1     -4.87      0.00
   -5    6    1      1.75      0.00
   -4    6    1     -5.02      0.00
   -3    6    1     -0.74      0.00
   -2    6    1     -1.79      0.00
   -1    6    1      2.68      0.00
    0    6    1      6.71      0.00
    1    6    1     -4.68      0.00
    2    6    1      0.60      0.00
    3    6    1     -0.02      0.00
    4    6    1     -6.71      0.00
    5    6    1     -9.49      0.00
    6    6    1      3.60      0.00
    7    6    1      0.18      0.00
    9    6    1      1.05      0.00
   10    6    1     -2.27      0.00
   11    6    1      2.80      0.00
   12    6    1     -0.69      0.00
   13    6    1     -0.75      0.00
   14    6    1      1.54      0.00
   15    6    1     -0.65      0.00
  -13    7    1     -1.78      0.00
  -12    7    1     -0.73      0.00
  -11    7    1     -1.38      0.00
  -10    7    1      1.93      0.00
   -9    7    1     -3.48      0.00
   -8    7    1      2.13      0.00
   -7    7    1     -2.91      0.00
   -6    7    1      2.42      0.00
   -5    7    1     -1.83      0.00
   -4    7    1      4.27      0.00
   -3    7    1     -1.81      0.00
   -2    7    1      3.05      0.00
   -1    7    1     -3.90      0.00
    0    7    1      7.98      0.00
    1    7    1      1.31      0.00
    2    7    1     -6.94      0.00
    3    7    1      4.39      0.00
    4    7    1     -2.70      0.00
    5    7    1     -1.88      0.00
    6    7    1     -7.77      0.00
    7    7    1      6.42      0.00
    8    7    1      0.46      0.00
    9    7    1      1.37      0.00
   10    7    1      4.05      0.00
   11    7    1     -4.22      0.00
   12    7    1      1.90      0.00
   13    7    1     -0.39      0.00
   14    7    1      1.17      0.00
   15    7    1     -0.77      0.00
  -12    8    1     -0.02      0.00
  -11    8    1     -0.89      0.00
  -10    8    1     -0.73      0.00
   -9    8    1      0.30      0.00
   -8    8    1     -1.03      0.00
   -7    8    1     -0.04      0.00
   -6    8    1      1.33      0.00
   -5    8    1     -3.13      0.00
   -4    8    1      2.32      0.00
   -3    8    1     -1.18      0.00
   -2    8    1      2.33      0.00
   -1    8    1      3.34      0.00
    0    8    1     -3.89      0.00
    1    8    1      8.50      0.00
    2    8    1     -5.73      0.00
    3    8    1     -4.02      0.00
    4    8    1      2.88      0.00
    5    8    1     -2.05      0.00
    6    8    1     -2.56      0.00
    7    8    1     -1.29      0.00
    8    8    1      0.14      0.00
    9    8    1     -1.33      0.00
   10    8    1      0.32      0.00
   11    8    1      1.10      0.00
   12    8    1     -2.46      0.00
   13    8    1      2.76      0.00
   14    8    1     -0.51      0.00
   15    8    1      0.01      0.00
  -12    9    1     -1.43      0.00
  -11    9    1     -0.42      0.00
  -10    9    1     -0.12      0.00
   -9    9    1     -0.25      0.00
   -8    9    1     -2.13      0.00
   -7    9    1      0.74      0.00
   -6    9    1     -3.64      0.00
   -5    9    1      4.20      0.00
   -4    9    1     -5.67      0.00
   -3    9    1      6.45      0.00
   -2    9    1     -2.78      0.00
   -1    9    1      4.72      0.00
    0    9    1      1.24      0.00
    3    9    1     -3.46      0.00
    4    9    1      2.47      0.00
    5    9    1     -0.13      0.00
    6    9    1      3.25      0.00
    7    9    1     -0.61      0.00
    8    9    1      1.68      0.00
    9    9    1      0.06      0.00
   10    9    1     -1.57      0.00
   11    9    1      0.70      0.00
   12    9    1      0.27      0.00
   13    9    1     -0.60      0.00
   14    9    1      1.86      0.00
  -11   10    1      1.43      0.00
  -10   10    1     -1.28      0.00
   -9   10    1      0.58      0.00
   -8   10    1     -0.01      0.00
   -7   10    1     -0.89      0.00
   -6   10    1      1.36      0.00
   -5   10    1     -2.37      0.00
   -4   10    1      1.39      0.00
   -3   10    1     -2.66      0.00
   -2   10    1      1.83      0.00
   -1   10    1     -0.56      0.00
    0   10    1      0.63      0.00
    1   10    1     -0.86      0.00
    2   10    1      5.15      0.00
    3   10    1     -0.46      0.00
    4   10    1     -1.08      0.00
    5   10    1      0.91      0.00
    6   10    1     -2.86      0.00
    7   10    1      2.24      0.00
    8   10    1     -0.81      0.00
    9   10    1     -0.34      0.00
   10   10    1     -1.92      0.00
   11   10    1     -0.64      0.00
   12   10    1     -1.17      0.00
   13   10    1     -0.72      0.00
  -10   11    1      1.13      0.00
   -9   11    1     -2.83      0.00
   -8   11    1     -0.94      0.00
   -7   11    1     -1.04      0.00
   -6   11    1     -0.16      0.00
   -5   11    1      0.07      0.00
   -4   11    1      0.01      0.00
   -3   11    1     -4.34      0.00
   -2   11    1      1.13      0.00
   -1   11    1     -2.24      0.00
    0   11    1      2.50      0.00
    1   11    1     -0.97      0.00
    2   11    1      0.06      0.00
    3   11    1      2.14      0.00
    4   11    1     -2.73      0.00
    5   11    1      1.38      0.00
    6   11    1     -0.25      0.00
    7   11    1      0.95      0.00
    8   11    1      1.04      0.00
    9   11    1     -0.67      0.00
   10   11    1      0.61      0.00
   11   11    1      0.33      0.00
   12   11    1      0.31      0.00
   13   11    1      1.21      0.00
   -9   12    1      0.81      0.00
   -8   12    1     -0.62      0.00
   -7   12    1     -1.16      0.00
   -6   12    1      0.03      0.00
   -5   12    1     -0.39      0.00
   -4   12    1     -1.10      0.00
   -3   12    1      1.66      0.00
   -2   12    1     -4.08      0.00
   -1   12    1      1.75      0.00
    0   12    1     -2.87      0.00
    1   12    1     -1.05      0.00
    2   12    1     -1.79      0.00
    3   12    1     -0.31      0.00
    4   12    1     -0.51      0.00
    5   12    1     -1.91      0.00
    6   12    1      0.98      0.00
    7   12    1     -0.36      0.00
    8   12    1      0.83      0.00
    9   12    1     -0.41      0.00
   10   12    1     -0.07      0.00
   11   12    1      0.42      0.00
   12   12    1      0.61      0.00
   -7   13    1      0.24      0.00
   -5   13    1      0.99      0.00
   -4   13    1      0.89      0.00
   -3   13    1     -1.30      0.00
   -2   13    1     -0.29      0.00
   -1   13    1     -0.81      0.00
    0   13    1      1.78      0.00
    1   13    1      0.71      0.00
    2   13    1     -1.06      0.00
    3   13    1      0.69      0.00
    4   13    1     -2.06      0.00
    5   13    1     -0.44      0.00
    6   13    1     -0.74      0.00
    7   13    1     -0.48      0.00
    8   13    1      0.99      0.00
    9   13    1     -1.28      0.00
   10   13    1     -0.82      0.00
   -4   14    1      0.53      0.00
   -3   14    1     -0.25      0.00
   -2   14    1     -0.85      0.00
   -1   14    1     -1.82      0.00
    0   14    1      1.65      0.00
    1   14    1     -0.15      0.00
    2   14    1      0.01      0.00
    3   14    1     -1.90      0.00
    4   14    1     -0.31      0.00
    5   14    1     -2.15      0.00
    6   14    1     -0.08      0.00
    7   14    1      1.61      0.00
    8   14    1     -0.25      0.00
    9   14    1      1.23      0.00
   10   14    1     -0.87      0.00
   -2   15    1     -1.77      0.00
   -1   15    1     -0.81      0.00
    0   15    1     -0.97      0.00
    1   15    1      1.82      0.00
    2   15    1     -0.26      0.00
    3   15    1      0.18      0.00
   -1  -14    2      0.83      0.00
    0  -14    2     -1.80      0.00
    1  -14    2      1.60      0.00
    3  -14    2      1.55      0.00
   -7  -13    2     -0.72      0.00
   -6  -13    2      0.28      0.00
   -5  -13    2     -2.85      0.00
   -4  -13    2     -0.72      0.00
   -3  -13    2     -0.12      0.00
   -2  -13    2      0.02      0.00
   -1  -13    2     -0.60      0.00
    0  -13    2      3.17      0.00
    1  -13    2     -0.34      0.00
    2  -13    2     -1.46      0.00
    3  -13    2     -0.89      0.00
  -10  -12    2      0.70      0.00
   -9  -12    2      2.56      0.00
   -8  -12    2      1.96      0.00
   -7  -12    2     -1.65      0.00
   -6  -12    2      2.30      0.00
   -5  -12    2      0.55      0.00
   -4  -12    2      0.55      0.00
   -3  -12    2      0.96      0.00
   -2  -12    2      2.03      0.00
   -1  -12    2      1.30      0.00
    0  -12    2      0.97      0.00
    1  -12    2      1.67      0.00
    2  -12    2      2.86      0.00
    3  -12    2     -0.71      0.00
    4  -12    2      2.33      0.00
  -11  -11    2      0.05      0.00
  -10  -11    2     -0.38      0.00
   -9  -11    2      1.00      0.00
   -8  -11    2     -0.33      0.00
   -7  -11    2      1.52      0.00
   -6  -11    2     -2.07      0.00
   -5  -11    2      1.40      0.00
   -4  -11    2     -2.83      0.00
   -3  -11    2     -0.64      0.00
   -2  -11    2     -1.03      0.00
   -1  -11    2      1.03      0.00
    0  -11    2      1.12      0.00
    1  -11    2      3.88      0.00
    2  -11    2     -1.35      0.00
    3  -11    2      2.95      0.00
    4  -11    2     -1.84      0.00
    6  -11    2     -1.29      0.00
    7  -11    2      1.12      0.00
    8  -11    2      0.30      0.00
    9  -11    2      0.91      0.00
  -12  -10    2      1.10      0.00
  -11  -10    2     -2.11      0.00
  -10  -10    2      1.50      0.00
   -9  -10    2      0.18      0.00
   -8  -10    2      0.54      0.00
   -7  -10    2      1.48      0.00
   -6  -10    2     -0.03      0.00
   -5  -10    2      1.29      0.00
   -4  -10    2      2.44      0.00
   -3  -10    2     -0.16      0.00
   -2  -10    2      0.33      0.00
   -1  -10    2      2.42      0.00
    0  -10    2      0.48      0.00
    1  -10    2      0.21      0.00
    2  -10    2      2.04      0.00
    3  -10    2     -2.21      0.00
    4  -10    2      1.21      0.00
    5  -10    2     -1.03      0.00
    6  -10    2      1.39      0.00
    7  -10    2     -2.06      0.00
    8  -10    2     -0.32      0.00
    9  -10    2     -1.37      0.00
   10  -10    2     -0.11      0.00
  -13   -9    2     -0.38      0.00
  -12   -9    2     -0.56      0.00
  -11   -9    2     -0.02      0.00
  -10   -9    2     -0.28      0.00
   -9   -9    2      0.60      0.00
   -8   -9    2     -0.26      0.00
   -7   -9    2     -1.76      0.00
   -6   -9    2     -0.63      0.00
   -5   -9    2     -4.36      0.00
   -4   -9    2     -0.59      0.00
   -3   -9    2     -1.55      0.00
   -2   -9    2      1.48      0.00
   -1   -9    2     -1.24      0.00
    0   -9    2      1.58      0.00
    1   -9    2      1.16      0.00
    2   -9    2      0.77      0.00
    3   -9    2     -0.01      0.00
    4   -9    2     -0.27      0.00
    5   -9    2     -1.41      0.00
    6   -9    2      2.05      0.00
    7   -9    2     -2.11      0.00
    8   -9    2      0.89      0.00
    9   -9    2     -0.83      0.00
   10   -9    2     -0.53      0.00
   11   -9    2      1.94      0.00
  -13   -8    2      1.08      0.00
  -12   -8    2     -1.91      0.00
  -11   -8    2      0.03      0.00
  -10   -8    2     -0.50      0.00
   -9   -8    2     -0.21      0.00
   -8   -8    2      2.26      0.00
   -7   -8    2     -0.15      0.00
   -6   -8    2      1.13      0.00
   -5   -8    2     -0.17      0.00
   -4   -8    2     -4.34      0.00
   -3   -8    2     -1.61      0.00
   -2   -8    2      1.46      0.00
   -1   -8    2      3.20      0.00
    0   -8    2      4.89      0.00
    1   -8    2     -1.50      0.00
    2   -8    2      2.47      0.00
    3   -8    2     -0.46      0.00
    4   -8    2     -1.28      0.00
    5   -8    2     -0.19      0.00
    6   -8    2     -2.92      0.00
    7   -8    2      2.98      0.00
    8   -8    2     -2.20      0.00
    9   -8    2      4.07      0.00
   10   -8    2     -0.53      0.00
   11   -8    2      0.28      0.00
   12   -8    2     -0.88      0.00
  -14   -7    2     -1.02      0.00
  -13   -7    2     -0.44      0.00
  -12   -7    2      1.74      0.00
  -11   -7    2     -0.58      0.00
  -10   -7    2      1.38      0.00
   -9   -7    2      1.08      0.00
   -8   -7    2     -1.96      0.00
   -7   -7    2      2.73      0.00
   -6   -7    2      2.00      0.00
   -5   -7    2     -3.02      0.00
   -4   -7    2     -5.49      0.00
   -3   -7    2    -12.84      0.00
   -2   -7    2    -14.88      0.00
   -1   -7    2     -1.29      0.00
    0   -7    2     -3.78      0.00
    1   -7    2      5.21      0.00
    2   -7    2     -0.05      0.00
    3   -7    2      2.71      0.00
    4   -7    2      1.16      0.00
    5   -7    2     -1.37      0.00
    6   -7    2     -1.08      0.00
    7   -7    2     -0.93      0.00
    8   -7    2      2.34      0.00
    9   -7    2     -0.81      0.00
   10   -7    2      3.43      0.00
   11   -7    2     -1.00      0.00
   12   -7    2      1.41      0.00
   13   -7    2     -1.66      0.00
  -14   -6    2      0.17      0.00
  -13   -6    2      0.41      0.00
  -12   -6    2      0.76      0.00
  -11   -6    2      1.30      0.00
  -10   -6    2      0.47      0.00
   -9   -6    2     -0.06      0.00
   -8   -6    2     -0.71      0.00
   -7   -6    2     -2.07      0.00
   -6   -6    2      2.59      0.00
   -5   -6    2     -0.22      0.00
   -4   -6    2      1.34      0.00
   -3   -6    2      1.58      0.00
   -2   -6    2     -4.83      0.00
   -1   -6    2     -7.08      0.00
    0   -6    2      0.20      0.00
    1   -6    2      0.08      0.00
    2   -6    2     -1.68      0.00
    3   -6    2      5.70      0.00
    4   -6    2     -2.40      0.00
    5   -6    2     -0.34      0.00
    6   -6    2     -3.41      0.00
    7   -6    2     -3.01      0.00
    8   -6    2      0.14      0.00
    9   -6    2     -0.12      0.00
   10   -6    2      0.37      0.00
   11   -6    2     -0.36      0.00
   12   -6    2     -0.44      0.00
   13   -6    2     -0.13      0.00
  -15   -5    2     -0.58      0.00
  -14   -5    2     -1.28      0.00
  -13   -5    2     -0.41      0.00
  -12   -5    2      0.33      0.00
  -11   -5    2     -0.03      0.00
  -10   -5    2      1.26      0.00
   -9   -5    2      1.57      0.00
   -8   -5    2     -1.64      0.00
   -7   -5    2     -1.76      0.00
   -5   -5    2      0.81      0.00
   -4   -5    2     -0.56      0.00
   -3   -5    2      3.73      0.00
   -2   -5    2      1.88      0.00
   -1   -5    2     -9.54      0.00
    0   -5    2     -2.77      0.00
    1   -5    2     -2.14      0.00
    2   -5    2      4.07      0.00
    3   -5    2     -7.60      0.00
    4   -5    2      3.58      0.00
    5   -5    2     -2.16      0.00
    6   -5    2     -0.15      0.00
    7   -5    2     -0.45      0.00
    8   -5    2     -0.52      0.00
    9   -5    2      1.44      0.00
   10   -5    2     -0.19      0.00
   11   -5    2      2.19      0.00
   12   -5    2     -0.35      0.00
   13   -5    2      0.42      0.00
   14   -5    2     -0.64      0.00
  -15   -4    2      0.61      0.00
  -14   -4    2     -0.66      0.00
  -13   -4    2     -0.28      0.00
  -12   -4    2     -0.07      0.00
  -11   -4    2     -0.88      0.00
  -10   -4    2     -1.28      0.00
   -9   -4    2      2.29      0.00
   -8   -4    2      2.13      0.00
   -7   -4    2     -0.81      0.00
   -6   -4    2     -2.13      0.00
   -5   -4    2      1.21      0.00
   -4   -4    2     -7.27      0.00
   -3   -4    2     -0.29      0.00
   -2   -4    2      1.54      0.00
   -1   -4    2     -3.37      0.00
    0   -4    2     -8.78      0.00
    1   -4    2     -1.12      0.00
    2   -4    2      0.43      0.00
    3   -4    2      1.98      0.00
    4   -4    2     -0.34      0.00
    5   -4    2     -3.11      0.00
    6   -4    2     -1.80      0.00
    7   -4    2     -4.13      0.00
    8   -4    2     -1.43      0.00
    9   -4    2      0.29      0.00
   10   -4    2      1.07      0.00
   11   -4    2     -1.77      0.00
   12   -4    2     -1.16      0.00
   13   -4    2     -0.38      0.00
   14   -4    2      1.28      0.00
  -15   -3    2     -0.38      0.00
  -14   -3    2      1.47      0.00
  -13   -3    2     -1.83      0.00
  -12   -3    2      0.72      0.00
  -11   -3    2      0.11      0.00
  -10   -3    2     -1.17      0.00
   -9   -3    2      1.19      0.00
   -8   -3    2      4.34      0.00
   -7   -3    2     -1.68      0.00
   -6   -3    2      2.84      0.00
   -5   -3    2     -7.61      0.00
   -4   -3    2      3.27      0.00
   -2   -3    2     -0.51      0.00
   -1   -3    2     10.39      0.00
    0   -3    2     -1.31      0.00
    1   -3    2     -4.53      0.00
    2   -3    2      2.46      0.00
    3   -3    2      7.49      0.00
    4   -3    2      0.48      0.00
    5   -3    2      5.31      0.00
    6   -3    2     -4.31      0.00
    8   -3    2     -1.04      0.00
    9   -3    2      0.87      0.00
   10   -3    2      0.37      0.00
   11   -3    2      1.64      0.00
   12   -3    2     -1.47      0.00
   13   -3    2      0.05      0.00
   14   -3    2     -1.38      0.00
   15   -3    2      0.54      0.00
  -14   -2    2     -1.10      0.00
  -13   -2    2      3.48      0.00
  -12   -2    2     -1.38      0.00
  -11   -2    2     -0.89      0.00
  -10   -2    2     -1.60      0.00
   -9   -2    2     -1.83      0.00
   -8   -2    2     -0.11      0.00
   -7   -2    2      0.86      0.00
   -6   -2    2     -5.25      0.00
   -5   -2    2      5.37      0.00
   -4   -2    2      2.89      0.00
   -3   -2    2      6.01      0.00
   -1   -2    2    -10.41      0.00
    0   -2    2     -2.82      0.00
    1   -2    2    -10.98      0.00
    2   -2    2     -7.77      0.00
    3   -2    2     -5.96      0.00
    4   -2    2      3.05      0.00
    5   -2    2     -1.65      0.00
    6   -2    2      2.45      0.00
    7   -2    2      3.00      0.00
    8   -2    2     -1.62      0.00
    9   -2    2      2.71      0.00
   10   -2    2     -0.77      0.00
   11   -2    2      0.02      0.00
   12   -2    2      0.72      0.00
   13   -2    2     -1.24      0.00
   14   -2    2      0.58      0.00
   15   -2    2      0.75      0.00
  -13   -1    2     -0.92      0.00
  -12   -1    2     -0.34      0.00
  -11   -1    2     -2.36      0.00
  -10   -1    2     -0.31      0.00
   -9   -1    2      1.80      0.00
   -8   -1    2     -0.31      0.00
   -7   -1    2      6.33      0.00
   -6   -1    2     -3.32      0.00
   -5   -1    2      3.48      0.00
   -4   -1    2     -2.26      0.00
   -3   -1    2     10.25      0.00
   -2   -1    2      2.04      0.00
   -1   -1    2      7.55      0.00
    0   -1    2     19.30      0.00
    1   -1    2     17.36      0.00
    2   -1    2     -0.10      0.00
    3   -1    2      5.10      0.00
    4   -1    2     -7.31      0.00
    5   -1    2     -0.89      0.00
    6   -1    2      0.61      0.00
    7   -1    2     -2.78      0.00
    8   -1    2      4.70      0.00
    9   -1    2     -5.68      0.00
   10   -1    2      4.43      0.00
   11   -1    2      0.00      0.00
   12   -1    2      1.91      0.00
   13   -1    2      0.13      0.00
   14   -1    2      1.52      0.00
   15   -1    2     -0.15      0.00
  -13    0    2     -0.46      0.00
  -12    0    2     -0.63      0.00
  -11    0    2     -1.01      0.00
  -10    0    2      0.59      0.00
   -9    0    2      0.13      0.00
   -8    0    2      1.27      0.00
   -7    0    2     -8.91      0.00
   -6    0    2      6.66      0.00
   -5    0    2    -13.27      0.00
   -4    0    2      1.92      0.00
   -3    0    2     -6.98      0.00
   -2    0    2     12.78      0.00
   -1    0    2    -13.23      0.00
    0    0    2    -33.96      0.00
    2    0    2     -3.87      0.00
    3    0    2     -5.41      0.00
    4    0    2      0.95      0.00
    5    0    2     -4.56      0.00
    6    0    2     -4.65      0.00
    7    0    2      2.55      0.00
    8    0    2      0.41      0.00
    9    0    2      4.71      0.00
   10    0    2     -2.75      0.00
   11    0    2     -1.19      0.00
   12    0    2     -0.61      0.00
   13    0    2      0.10      0.00
   14    0    2     -1.84      0.00
   15    0    2      1.30      0.00
   16    0    2     -0.40      0.00
  -13    1    2      1.36      0.00
  -12    1    2     -0.94      0.00
  -11    1    2     -0.35      0.00
  -10    1    2     -2.58      0.00
   -9    1    2      0.02      0.00
   -8    1    2      1.71      0.00
   -7    1    2      2.94      0.00
   -6    1    2      0.08      0.00
   -5    1    2      9.71      0.00
   -4    1    2      2.34      0.00
   -3    1    2     -2.17      0.00
   -2    1    2     -3.23      0.00
   -1    1    2    -22.70      0.00
    0    1    2    -33.13      0.00
    1    1    2    -42.74      0.00
    3    1    2     -1.60      0.00
    4    1    2      5.36      0.00
    5    1    2     -5.35      0.00
    6    1    2     -2.01      0.00
    7    1    2     -5.61      0.00
    8    1    2     -1.03      0.00
    9    1    2      3.12      0.00
   10    1    2     -4.18      0.00
   11    1    2      3.43      0.00
   12    1    2     -2.31      0.00
   13    1    2      1.48      0.00
   14    1    2      0.83      0.00
   15    1    2     -0.94      0.00
  -15    2    2      0.16      0.00
  -14    2    2      1.33      0.00
  -13    2    2     -2.14      0.00
  -12    2    2     -0.73      0.00
  -11    2    2     -2.18      0.00
  -10    2    2     -0.23      0.00
   -9    2    2      0.79      0.00
   -8    2    2      2.47      0.00
   -7    2    2      6.67      0.00
   -6    2    2      3.20      0.00
   -5    2    2     12.56      0.00
   -4    2    2      5.44      0.00
   -1    2    2     34.30      0.00
    0    2    2      9.15      0.00
    1    2    2     13.49      0.00
    2    2    2     37.17      0.00
    4    2    2      7.09      0.00
    5    2    2     10.75      0.00
    6    2    2     -4.53      0.00
    7    2    2      3.14      0.00
    8    2    2     -3.70      0.00
    9    2    2     -6.13      0.00
   10    2    2      5.68      0.00
   11    2    2     -5.57      0.00
   12    2    2      4.19      0.00
   13    2    2     -2.64      0.00
   14    2    2      0.36      0.00
   15    2    2      0.66      0.00
   16    2    2     -0.27      0.00
  -15    3    2      1.66      0.00
  -14    3    2     -1.30      0.00
  -13    3    2     -0.83      0.00
  -12    3    2     -0.87      0.00
  -11    3    2     -1.58      0.00
  -10    3    2      1.19      0.00
   -9    3    2     -2.38      0.00
   -8    3    2     -0.39      0.00
   -7    3    2     -1.72      0.00
   -6    3    2     -2.73      0.00
   -5    3    2     -6.51      0.00
   -3    3    2     -1.11      0.00
   -2    3    2      2.16      0.00
   -1    3    2     -8.22      0.00
    0    3    2    -17.02      0.00
    1    3    2    -11.75      0.00
    2    3    2    -26.33      0.00
    3    3    2     37.76      0.00
    6    3    2      4.91      0.00
    7    3    2     -4.39      0.00
    8    3    2      3.06      0.00
    9    3    2      0.01      0.00
   10    3    2     -2.66      0.00
   11    3    2      3.20      0.00
   12    3    2     -2.01      0.00
   13    3    2      0.74      0.00
   14    3    2     -0.23      0.00
   15    3    2      0.24      0.00
   16    3    2      1.09      0.00
  -14    4    2      1.24      0.00
  -13    4    2      0.47      0.00
  -12    4    2     -2.03      0.00
  -11    4    2      2.78      0.00
  -10    4    2     -4.00      0.00
   -9    4    2      1.21      0.00
   -8    4    2     -2.15      0.00
   -7    4    2      0.59      0.00
   -6    4    2      5.01      0.00
   -5    4    2      0.99      0.00
   -4    4    2     -0.64      0.00
   -3    4    2      9.09      0.00
   -1    4    2      0.79      0.00
    1    4    2    -32.58      0.00
    2    4    2      0.48      0.00
    3    4    2     -6.69      0.00
    4    4    2     31.30      0.00
    5    4    2      2.31      0.00
    6    4    2      1.14      0.00
    7    4    2     -6.07      0.00
    8    4    2     -3.05      0.00
    9    4    2      2.43      0.00
   10    4    2      0.26      0.00
   11    4    2     -0.11      0.00
   12    4    2     -2.37      0.00
   13    4    2      0.60      0.00
   14    4    2     -4.10      0.00
   15    4    2      1.11      0.00
   16    4    2     -0.91      0.00
  -14    5    2     -1.35      0.00
  -13    5    2     -0.65      0.00
  -12    5    2     -0.03      0.00
  -11    5    2     -3.66      0.00
  -10    5    2     -0.15      0.00
   -9    5    2     -0.97      0.00
   -8    5    2     -1.51      0.00
   -7    5    2      3.39      0.00
   -6    5    2     -3.10      0.00
   -5    5    2      1.85      0.00
   -4    5    2     -0.88      0.00
   -3    5    2     -4.85      0.00
   -2    5    2      7.95      0.00
   -1    5    2     -0.47      0.00
    0    5    2      5.38      0.00
    1    5    2      5.55      0.00
    2    5    2    -15.67      0.00
    4    5    2     10.41      0.00
    5    5    2     11.12      0.00
    6    5    2      2.41      0.00
    7    5    2     -8.24      0.00
    9    5    2     -1.55      0.00
   10    5    2      0.85      0.00
   11    5    2      1.08      0.00
   12    5    2      1.68      0.00
   13    5    2     -2.77      0.00
   14    5    2      2.78      0.00
   15    5    2     -3.97      0.00
   16    5    2     -0.38      0.00
  -14    6    2      1.60      0.00
  -13    6    2      1.31      0.00
  -12    6    2      2.06      0.00
  -11    6    2      1.64      0.00
  -10    6    2      2.60      0.00
   -9    6    2     -2.06      0.00
   -8    6    2      5.25      0.00
   -7    6    2     -4.93      0.00
   -6    6    2      6.88      0.00
   -5    6    2     -0.94      0.00
   -4    6    2      1.00      0.00
   -3    6    2     -0.24      0.00
   -2    6    2     -3.15      0.00
   -1    6    2      2.32      0.00
    0    6    2     -4.21      0.00
    1    6    2      3.05      0.00
    2    6    2    -10.00      0.00
    3    6    2     -3.30      0.00
    4    6    2     -6.99      0.00
    5    6    2     19.15      0.00
    6    6    2      0.24      0.00
    7    6    2      5.59      0.00
    9    6    2      0.75      0.00
   10    6    2      3.49      0.00
   11    6    2     -1.78      0.00
   12    6    2      0.50      0.00
   13    6    2      0.66      0.00
   14    6    2     -1.91      0.00
   15    6    2      0.69      0.00
  -13    7    2      0.07      0.00
  -12    7    2     -1.17      0.00
  -11    7    2     -0.17      0.00
  -10    7    2     -2.05      0.00
   -9    7    2      2.18      0.00
   -8    7    2     -2.65      0.00
   -7    7    2      4.14      0.00
   -6    7    2     -1.75      0.00
   -5    7    2      2.38      0.00
   -4    7    2      3.59      0.00
   -3    7    2      3.94      0.00
   -2    7    2      0.74      0.00
   -1    7    2      4.31      0.00
    0    7    2     -5.13      0.00
    1    7    2     -4.26      0.00
    2    7    2     -0.89      0.00
    3    7    2     -7.34      0.00
    4    7    2      0.18      0.00
    5    7    2      0.44      0.00
    6    7    2     12.04      0.00
    7    7    2     -2.16      0.00
    8    7    2     -2.19      0.00
    9    7    2     -2.04      0.00
   10    7    2     -1.27      0.00
   11    7    2      1.86      0.00
   12    7    2     -1.95      0.00
   13    7    2      1.23      0.00
   14    7    2      0.12      0.00
   15    7    2      0.15      0.00
  -12    8    2      1.56      0.00
  -11    8    2      1.41      0.00
  -10    8    2      1.53      0.00
   -9    8    2     -0.15      0.00
   -8    8    2      0.72      0.00
   -7    8    2      2.20      0.00
   -6    8    2     -2.29      0.00
   -5    8    2      5.21      0.00
   -4    8    2     -5.45      0.00
   -3    8    2      3.06      0.00
   -2    8    2      0.66      0.00
   -1    8    2     -1.96      0.00
    0    8    2      4.27      0.00
    1    8    2     -4.89      0.00
    2    8    2      2.11      0.00
    3    8    2      1.22      0.00
    4    8    2      0.57      0.00
    5    8    2     -2.67      0.00
    6    8    2      7.03      0.00
    7    8    2      0.00      0.00
    8    8    2      0.92      0.00
    9    8    2     -5.20      0.00
   10    8    2      0.53      0.00
   11    8    2     -0.60      0.00
   12    8    2      1.84      0.00
   13    8    2     -0.06      0.00
   14    8    2      1.54      0.00
   15    8    2      0.13      0.00
  -12    9    2      2.00      0.00
  -11    9    2      1.38      0.00
  -10    9    2      0.46      0.00
   -9    9    2      0.71      0.00
   -8    9    2      0.37      0.00
   -7    9    2     -2.26      0.00
   -6    9    2      3.79      0.00
   -5    9    2     -5.41      0.00
   -4    9    2      8.06      0.00
   -3    9    2     -4.32      0.00
   -2    9    2      3.03      0.00
   -1    9    2     -3.12      0.00
    0    9    2     -1.82      0.00
    3    9    2      4.28      0.00
    4    9    2      0.22      0.00
    5    9    2      2.18      0.00
    6    9    2     -2.75      0.00
    7    9    2      7.26      0.00
    8    9    2      1.19      0.00
    9    9    2     -0.10      0.00
   10    9    2      0.81      0.00
   11    9    2     -0.90      0.00
   12    9    2     -0.16      0.00
   13    9    2      0.85      0.00
   14    9    2     -1.29      0.00
  -11   10    2     -0.82      0.00
  -10   10    2      2.65      0.00
   -9   10    2      0.15      0.00
   -8   10    2      1.83      0.00
   -7   10    2      1.72      0.00
   -6   10    2     -0.17      0.00
   -5   10    2      1.64      0.00
   -4   10    2     -1.01      0.00
   -3   10    2      1.33      0.00
   -2   10    2     -1.07      0.00
   -1   10    2     -1.26      0.00
    0   10    2     -3.40      0.00
    1   10    2      0.84      0.00
    2   10    2     -0.16      0.00
    3   10    2      0.04      0.00
    4   10    2      2.17      0.00
    5   10    2     -0.63      0.00
    6   10    2     -0.45      0.00
    7   10    2     -1.18      0.00
    8   10    2     -0.33      0.00
    9   10    2      0.77      0.00
   10   10    2     -2.41      0.00
   11   10    2      1.14      0.00
   12   10    2     -1.43      0.00
   13   10    2      0.12      0.00
   14   10    2     -0.24      0.00
  -10   11    2     -2.88      0.00
   -9   11    2      2.65      0.00
   -8   11    2      0.00      0.00
   -7   11    2      0.75      0.00
   -6   11    2      0.07      0.00
   -5   11    2      0.52      0.00
   -4   11    2     -2.76      0.00
   -3   11    2      4.11      0.00
   -2   11    2     -2.03      0.00
   -1   11    2      2.76      0.00
    0   11    2     -2.94      0.00
    1   11    2     -2.07      0.00
    2   11    2      0.35      0.00
    3   11    2     -1.66      0.00
    4   11    2      2.94      0.00
    5   11    2      1.29      0.00
    6   11    2      2.31      0.00
    7   11    2     -1.09      0.00
    8   11    2      0.35      0.00
    9   11    2     -0.40      0.00
   10   11    2      0.93      0.00
   11   11    2     -1.59      0.00
   12   11    2      0.68      0.00
   13   11    2     -0.85      0.00
   -9   12    2     -1.44      0.00
   -8   12    2      1.81      0.00
   -7   12    2      1.51      0.00
   -6   12    2     -0.06      0.00
   -5   12    2      0.35      0.00
   -4   12    2      1.80      0.00
   -3   12    2     -2.11      0.00
   -2   12    2      4.09      0.00
   -1   12    2     -0.01      0.00
    0   12    2      0.96      0.00
    1   12    2     -1.03      0.00
    2   12    2      0.51      0.00
    3   12    2      1.06      0.00
    4   12    2     -0.88      0.00
    5   12    2      1.81      0.00
    6   12    2     -0.59      0.00
    7   12    2     -0.24      0.00
    8   12    2     -1.54      0.00
    9   12    2     -0.65      0.00
   10   12    2     -1.05      0.00
   11   12    2      0.20      0.00
   12   12    2     -0.86      0.00
   -8   13    2      0.11      0.00
   -7   13    2     -0.24      0.00
   -6   13    2      2.23      0.00
   -5   13    2      0.76      0.00
   -4   13    2      1.15      0.00
   -3   13    2      0.54      0.00
   -2   13    2     -0.88      0.00
   -1   13    2     -0.04      0.00
    0   13    2      1.51      0.00
    1   13    2     -1.04      0.00
    2   13    2     -0.27      0.00
    3   13    2     -0.39      0.00
    4   13    2     -0.83      0.00
    5   13    2     -0.80      0.00
    6   13    2      0.91      0.00
    7   13    2      0.73      0.00
    8   13    2     -1.04      0.00
    9   13    2      1.59      0.00
   10   13    2      0.73      0.00
   11   13    2      0.14      0.00
   -5   14    2     -0.19      0.00
   -4   14    2     -0.80      0.00
   -3   14    2      0.87      0.00
   -2   14    2     -0.64      0.00
   -1   14    2      0.77      0.00
    0   14    2     -0.99      0.00
    1   14    2      0.25      0.00
    2   14    2     -0.76      0.00
    3   14    2      0.19      0.00
    4   14    2      0.19      0.00
    5   14    2      0.43      0.00
    6   14    2      1.32      0.00
    7   14    2      1.71      0.00
    8   14    2      0.68      0.00
    9   14    2     -0.42      0.00
   10   14    2      1.88      0.00
   -4   15    2      0.34      0.00
   -3   15    2     -0.60      0.00
   -2   15    2      0.93      0.00
   -1   15    2      0.13      0.00
    0   15    2      0.77      0.00
    1   15    2     -0.67      0.00
    2   15    2      0.11      0.00
    3   15    2      0.17      0.00
    4   15    2      0.95      0.00
    5   15    2     -0.52      0.00
    6   15    2     -1.25      0.00
   -5  -13    3     -0.02      0.00
   -4  -13    3     -0.24      0.00
   -3  -13    3     -0.10      0.00
   -2  -13    3     -0.08      0.00
   -1  -13    3      0.38      0.00
    0  -13    3     -0.56      0.00
    1  -13    3     -0.52      0.00
    2  -13    3     -2.41      0.00
    3  -13    3     -1.58      0.00
   -8  -12    3     -0.98      0.00
   -7  -12    3      3.75      0.00
   -6  -12    3     -1.69      0.00
   -5  -12    3      1.14      0.00
   -4  -12    3      1.57      0.00
   -3  -12    3     -0.10      0.00
   -2  -12    3      1.02      0.00
   -1  -12    3     -1.90      0.00
    0  -12    3     -2.43      0.00
    1  -12    3      0.13      0.00
    2  -12    3     -0.59      0.00
    3  -12    3      0.67      0.00
  -10  -11    3     -1.15      0.00
   -8  -11    3     -1.17      0.00
   -7  -11    3     -2.17      0.00
   -6  -11    3      1.30      0.00
   -5  -11    3     -0.94      0.00
   -4  -11    3     -2.83      0.00
   -3  -11    3      1.61      0.00
   -2  -11    3     -1.35      0.00
   -1  -11    3      1.34      0.00
    0  -11    3      0.86      0.00
    1  -11    3     -4.05      0.00
    2  -11    3     -0.71      0.00
    3  -11    3     -3.04      0.00
    4  -11    3      1.98      0.00
    7  -11    3     -0.38      0.00
    8  -11    3      0.72      0.00
  -11  -10    3     -0.21      0.00
  -10  -10    3     -0.06      0.00
   -9  -10    3      0.52      0.00
   -8  -10    3     -2.31      0.00
   -7  -10    3     -1.06      0.00
   -6  -10    3      1.79      0.00
   -5  -10    3      2.40      0.00
   -4  -10    3      1.39      0.00
   -3  -10    3      0.14      0.00
   -2  -10    3      2.59      0.00
   -1  -10    3     -1.39      0.00
    0  -10    3     -1.22      0.00
    1  -10    3      0.83      0.00
    2  -10    3     -2.09      0.00
    3  -10    3     -0.45      0.00
    4  -10    3     -1.34      0.00
    5  -10    3      1.24      0.00
    6  -10    3     -3.22      0.00
    7  -10    3      1.09      0.00
    8  -10    3     -1.31      0.00
    9  -10    3      0.31      0.00
   10  -10    3     -1.22      0.00
  -12   -9    3     -1.79      0.00
  -11   -9    3      0.35      0.00
  -10   -9    3      0.21      0.00
   -9   -9    3     -1.34      0.00
   -8   -9    3      0.62      0.00
   -7   -9    3     -1.85      0.00
   -6   -9    3     -2.66      0.00
   -5   -9    3      2.96      0.00
   -4   -9    3      2.33      0.00
   -3   -9    3     -1.59      0.00
   -2   -9    3      1.58      0.00
   -1   -9    3     -0.34      0.00
    0   -9    3     -0.47      0.00
    1   -9    3     -2.66      0.00
    2   -9    3     -1.59      0.00
    3   -9    3      0.02      0.00
    4   -9    3     -2.74      0.00
    5   -9    3      1.83      0.00
    6   -9    3     -1.62      0.00
    7   -9    3      2.02      0.00
    8   -9    3      0.90      0.00
    9   -9    3      0.45      0.00
   10   -9    3      0.45      0.00
   11   -9    3      1.04      0.00
  -13   -8    3     -0.49      0.00
  -12   -8    3      1.20      0.00
  -11   -8    3     -0.56      0.00
  -10   -8    3      0.89      0.00
   -9   -8    3      0.51      0.00
   -8   -8    3     -2.14      0.00
   -7   -8    3      3.60      0.00
   -6   -8    3      0.57      0.00
   -5   -8    3      1.41      0.00
   -4   -8    3      8.98      0.00
   -3   -8    3      0.21      0.00
   -2   -8    3      1.30      0.00
   -1   -8    3      4.78      0.00
    0   -8    3     -1.85      0.00
    1   -8    3      1.74      0.00
    2   -8    3     -2.96      0.00
    3   -8    3     -3.09      0.00
    4   -8    3      0.22      0.00
    5   -8    3     -1.63      0.00
    6   -8    3      2.53      0.00
    7   -8    3     -2.41      0.00
    8   -8    3      3.36      0.00
    9   -8    3     -1.59      0.00
   10   -8    3      0.69      0.00
   11   -8    3     -2.57      0.00
   12   -8    3      0.46      0.00
  -13   -7    3     -1.81      0.00
  -12   -7    3      1.02      0.00
  -11   -7    3      0.83      0.00
  -10   -7    3      1.04      0.00
   -9   -7    3     -1.60      0.00
   -8   -7    3     -1.69      0.00
   -7   -7    3     -1.12      0.00
   -6   -7    3     -1.38      0.00
   -5   -7    3     -0.20      0.00
   -4   -7    3     -1.34      0.00
   -3   -7    3      7.31      0.00
   -2   -7    3     -5.32      0.00
   -1   -7    3      0.18      0.00
    0   -7    3      1.45      0.00
    1   -7    3     -1.79      0.00
    2   -7    3      0.02      0.00
    3   -7    3     -1.08      0.00
    4   -7    3     -1.47      0.00
    5   -7    3     -1.75      0.00
    6   -7    3      2.31      0.00
    7   -7    3      1.53      0.00
    8   -7    3     -0.58      0.00
    9   -7    3      1.97      0.00
   10   -7    3     -3.15      0.00
   11   -7    3      2.04      0.00
   12   -7    3     -1.76      0.00
  -14   -6    3     -0.22      0.00
  -13   -6    3      0.76      0.00
  -12   -6    3     -0.57      0.00
  -11   -6    3      1.53      0.00
  -10   -6    3      0.38      0.00
   -9   -6    3     -0.08      0.00
   -8   -6    3     -0.40      0.00
   -7   -6    3     -2.38      0.00
   -6   -6    3      1.48      0.00
   -5   -6    3     -2.87      0.00
   -4   -6    3      5.42      0.00
   -3   -6    3      9.84      0.00
   -2   -6    3      9.21      0.00
   -1   -6    3      0.34      0.00
    0   -6    3      7.56      0.00
    1   -6    3     -3.34      0.00
    2   -6    3      6.13      0.00
    3   -6    3     -5.73      0.00
    4   -6    3     -2.04      0.00
    5   -6    3     -1.34      0.00
    6   -6    3     -2.76      0.00
    7   -6    3      3.55      0.00
    8   -6    3      0.30      0.00
    9   -6    3     -0.19      0.00
   10   -6    3     -0.34      0.00
   11   -6    3     -2.39      0.00
   12   -6    3      0.56      0.00
   13   -6    3      0.09      0.00
  -14   -5    3     -1.90      0.00
  -13   -5    3      0.63      0.00
  -12   -5    3      0.42      0.00
  -11   -5    3      0.27      0.00
  -10   -5    3      0.05      0.00
   -9   -5    3     -0.36      0.00
   -8   -5    3     -0.58      0.00
   -7   -5    3      0.04      0.00
   -6   -5    3      1.59      0.00
   -4   -5    3      5.35      0.00
   -3   -5    3     -4.47      0.00
   -2   -5    3      2.51      0.00
   -1   -5    3     -3.03      0.00
    0   -5    3     -6.49      0.00
    1   -5    3      8.29      0.00
    2   -5    3     -8.07      0.00
    3   -5    3      4.62      0.00
    4   -5    3     -5.07      0.00
    5   -5    3     -1.88      0.00
    6   -5    3      4.47      0.00
    7   -5    3      2.08      0.00
    8   -5    3      4.13      0.00
    9   -5    3      1.39      0.00
   10   -5    3      0.97      0.00
   11   -5    3      0.99      0.00
   12   -5    3      0.54      0.00
   13   -5    3     -0.77      0.00
   14   -5    3      1.83      0.00
  -14   -4    3      0.46      0.00
  -13   -4    3      0.31      0.00
  -12   -4    3      1.36      0.00
  -11   -4    3     -1.13      0.00
  -10   -4    3      0.48      0.00
   -9   -4    3     -1.75      0.00
   -8   -4    3     -1.30      0.00
   -7   -4    3      0.32      0.00
   -6   -4    3      1.82      0.00
   -5   -4    3      6.33      0.00
   -3   -4    3     12.97      0.00
   -2   -4    3     -8.95      0.00
   -1   -4    3     -0.71      0.00
    0   -4    3      2.17      0.00
    1   -4    3     -3.10      0.00
    2   -4    3      3.30      0.00
    3   -4    3      3.64      0.00
    4   -4    3     -1.44      0.00
    5   -4    3      3.70      0.00
    6   -4    3     -6.04      0.00
    7   -4    3      2.06      0.00
    8   -4    3      1.32      0.00
    9   -4    3      0.86      0.00
   10   -4    3     -0.38      0.00
   11   -4    3     -2.28      0.00
   12   -4    3     -0.34      0.00
   13   -4    3      1.37      0.00
   14   -4    3     -1.75      0.00
  -15   -3    3     -0.68      0.00
  -14   -3    3     -1.15      0.00
  -13   -3    3      0.14      0.00
  -12   -3    3     -0.14      0.00
  -11   -3    3      2.60      0.00
  -10   -3    3      0.23      0.00
   -9   -3    3      3.53      0.00
   -8   -3    3     -4.24      0.00
   -7   -3    3      2.11      0.00
   -6   -3    3     -1.28      0.00
   -5   -3    3      5.09      0.00
   -4   -3    3      9.46      0.00
   -1   -3    3     -2.90      0.00
    0   -3    3     -3.06      0.00
    1   -3    3      7.09      0.00
    3   -3    3     -6.73      0.00
    4   -3    3      5.48      0.00
    5   -3    3     -7.67      0.00
    6   -3    3      6.92      0.00
    8   -3    3      2.90      0.00
    9   -3    3      3.13      0.00
   10   -3    3      1.05      0.00
   11   -3    3      0.36      0.00
   12   -3    3      1.03      0.00
   13   -3    3     -0.85      0.00
   14   -3    3      0.56      0.00
   15   -3    3     -1.53      0.00
  -14   -2    3      0.85      0.00
  -13   -2    3     -1.17      0.00
  -12   -2    3      0.25      0.00
  -11   -2    3     -1.16      0.00
  -10   -2    3      1.12      0.00
   -9   -2    3     -1.15      0.00
   -8   -2    3      0.12      0.00
   -7   -2    3     -5.56      0.00
   -6   -2    3      2.48      0.00
   -5   -2    3      0.20      0.00
   -4   -2    3      6.08      0.00
   -3   -2    3     -0.13      0.00
   -1   -2    3    -12.37      0.00
    0   -2    3      0.99      0.00
    1   -2    3      5.30      0.00
    2   -2    3      0.50      0.00
    3   -2    3      2.58      0.00
    4   -2    3     -7.82      0.00
    5   -2    3     -1.24      0.00
    6   -2    3     -0.41      0.00
    7   -2    3      2.51      0.00
    8   -2    3      5.63      0.00
    9   -2    3     -0.72      0.00
   10   -2    3      1.68      0.00
   11   -2    3      0.48      0.00
   12   -2    3     -1.89      0.00
   13   -2    3      2.17      0.00
   14   -2    3     -0.31      0.00
   15   -2    3     -0.73      0.00
  -13   -1    3     -1.24      0.00
  -12   -1    3     -2.76      0.00
  -11   -1    3     -0.15      0.00
  -10   -1    3      2.78      0.00
   -9   -1    3      1.14      0.00
   -8   -1    3      5.37      0.00
   -7   -1    3     -4.81      0.00
   -6   -1    3      7.27      0.00
   -5   -1    3     -1.14      0.00
   -4   -1    3     -1.19      0.00
   -3   -1    3      1.18      0.00
   -2   -1    3    -15.32      0.00
    0   -1    3    -11.97      0.00
    1   -1    3     -2.78      0.00
    2   -1    3     18.25      0.00
    3   -1    3    -11.92      0.00
    4   -1    3      3.05      0.00
    5   -1    3     -0.87      0.00
    6   -1    3     -6.39      0.00
    7   -1    3      4.36      0.00
    8   -1    3     -6.58      0.00
    9   -1    3      6.39      0.00
   10   -1    3     -1.82      0.00
   11   -1    3      1.37      0.00
   12   -1    3      1.01      0.00
   13   -1    3     -1.68      0.00
   14   -1    3      1.08      0.00
   15   -1    3     -0.65      0.00
  -12    0    3     -0.47      0.00
  -11    0    3      0.11      0.00
  -10    0    3      2.29      0.00
   -9    0    3      2.69      0.00
   -8    0    3     -4.92      0.00
   -7    0    3      7.23      0.00
   -6    0    3    -12.26      0.00
   -5    0    3      4.40      0.00
   -4    0    3     -8.44      0.00
   -3    0    3     -5.00      0.00
   -2    0    3     -5.65      0.00
    0    0    3     14.01      0.00
    1    0    3    -10.52      0.00
    2    0    3     -2.06      0.00
    3    0    3     22.45      0.00
    4    0    3     -4.64      0.00
    5    0    3      3.46      0.00
    6    0    3      1.85      0.00
    7    0    3     -4.77      0.00
    8    0    3      6.97      0.00
    9    0    3     -4.56      0.00
   10    0    3      3.36      0.00
   11    0    3     -0.92      0.00
   12    0    3     -1.18      0.00
   13    0    3     -0.57      0.00
   14    0    3     -1.24      0.00
   15    0    3      0.46      0.00
   16    0    3     -1.27      0.00
  -13    1    3     -0.96      0.00
  -12    1    3     -0.25      0.00
  -11    1    3      0.14      0.00
  -10    1    3     -2.03      0.00
   -9    1    3      2.12      0.00
   -8    1    3     -0.42      0.00
   -7    1    3      0.57      0.00
   -6    1    3      7.45      0.00
   -5    1    3     -1.03      0.00
   -4    1    3      2.29      0.00
   -3    1    3      3.58      0.00
   -2    1    3     -2.51      0.00
   -1    1    3      0.22      0.00
    0    1    3     10.74      0.00
    1    1    3     26.57      0.00
    3    1    3      8.12      0.00
    4    1    3      6.18      0.00
    5    1    3      1.99      0.00
    6    1    3      4.26      0.00
    7    1    3      4.35      0.00
    8    1    3     -1.28      0.00
    9    1    3     -1.07      0.00
   10    1    3      0.40      0.00
   11    1    3     -0.63      0.00
   12    1    3      2.99      0.00
   13    1    3      0.21      0.00
   14    1    3     -0.26      0.00
   15    1    3      0.82      0.00
  -15    2    3      2.12      0.00
  -14    2    3     -2.16      0.00
  -13    2    3      0.68      0.00
  -12    2    3     -0.18      0.00
  -11    2    3      0.19      0.00
  -10    2    3      2.24      0.00
   -9    2    3     -0.38      0.00
   -8    2    3      3.08      0.00
   -7    2    3     -1.61      0.00
   -6    2    3      3.39      0.00
   -5    2    3     -4.11      0.00
   -4    2    3     -4.64      0.00
   -3    2    3     -9.13      0.00
   -2    2    3     11.86      0.00
   -1    2    3     -4.22      0.00
    0    2    3      3.43      0.00
    1    2    3     45.58      0.00
    2    2    3     14.18      0.00
    3    2    3      1.08      0.00
    5    2    3     -4.60      0.00
    6    2    3      2.51      0.00
    7    2    3      2.34      0.00
    8    2    3      3.01      0.00
    9    2    3      3.74      0.00
   10    2    3     -3.66      0.00
   11    2    3      4.36      0.00
   12    2    3     -3.02      0.00
   13    2    3      2.00      0.00
   14    2    3     -0.09      0.00
   15    2    3     -1.09      0.00
   16    2    3      1.14      0.00
  -14    3    3     -0.07      0.00
  -13    3    3     -0.50      0.00
  -12    3    3      0.85      0.00
  -11    3    3      2.75      0.00
  -10    3    3     -0.38      0.00
   -9    3    3      1.53      0.00
   -8    3    3      0.83      0.00
   -7    3    3     -3.87      0.00
   -6    3    3     -2.91      0.00
   -5    3    3     -1.99      0.00
   -4    3    3    -10.09      0.00
   -3    3    3     -9.18      0.00
   -1    3    3     -0.65      0.00
    0    3    3    -10.01      0.00
    1    3    3    -13.29      0.00
    2    3    3     36.92      0.00
    3    3    3     -8.64      0.00
    4    3    3     -3.46      0.00
    6    3    3     -7.82      0.00
    7    3    3     -3.19      0.00
    8    3    3     -0.40      0.00
    9    3    3      2.91      0.00
   10    3    3      4.21      0.00
   11    3    3     -3.11      0.00
   12    3    3      2.18      0.00
   13    3    3     -2.11      0.00
   14    3    3      1.40      0.00
   15    3    3      0.02      0.00
   16    3    3     -0.95      0.00
  -14    4    3      0.88      0.00
  -13    4    3     -1.38      0.00
  -12    4    3      3.09      0.00
  -11    4    3      0.01      0.00
  -10    4    3      2.28      0.00
   -9    4    3     -1.24      0.00
   -8    4    3      1.38      0.00
   -7    4    3      7.08      0.00
   -6    4    3      0.11      0.00
   -5    4    3      5.45      0.00
   -3    4    3     -3.13      0.00
   -1    4    3      2.78      0.00
    1    4    3      4.61      0.00
    2    4    3      4.59      0.00
    3    4    3     16.60      0.00
    4    4    3     -8.65      0.00
    5    4    3     -8.31      0.00
    6    4    3     -5.60      0.00
    8    4    3     -2.08      0.00
    9    4    3     -2.11      0.00
   10    4    3      3.54      0.00
   11    4    3      1.83      0.00
   12    4    3     -2.53      0.00
   13    4    3     -0.07      0.00
   14    4    3      1.51      0.00
   15    4    3      0.70      0.00
   16    4    3      0.02      0.00
  -14    5    3      0.69      0.00
  -13    5    3      0.57      0.00
  -12    5    3     -3.09      0.00
  -11    5    3      1.27      0.00
  -10    5    3      0.16      0.00
   -9    5    3      0.88      0.00
   -8    5    3      3.43      0.00
   -7    5    3     -0.60      0.00
   -6    5    3      2.16      0.00
   -5    5    3     -4.29      0.00
   -4    5    3     -3.83      0.00
   -3    5    3      3.45      0.00
   -2    5    3    -10.25      0.00
   -1    5    3     -2.39      0.00
    0    5    3     -1.91      0.00
    1    5    3      1.72      0.00
    2    5    3      5.11      0.00
    4    5    3     -2.86      0.00
    5    5    3     -5.66      0.00
    6    5    3    -13.97      0.00
    7    5    3      4.89      0.00
    8    5    3     -9.70      0.00
    9    5    3      2.98      0.00
   10    5    3     -3.48      0.00
   11    5    3      0.49      0.00
   12    5    3      1.48      0.00
   13    5    3     -0.05      0.00
   14    5    3     -1.96      0.00
   15    5    3      2.74      0.00
   16    5    3     -0.40      0.00
  -13    6    3      2.09      0.00
  -12    6    3      1.09      0.00
  -11    6    3      0.64      0.00
  -10    6    3      1.20      0.00
   -9    6    3      3.82      0.00
   -8    6    3     -1.81      0.00
   -7    6    3      5.17      0.00
   -6    6    3     -1.77      0.00
   -5    6    3      1.27      0.00
   -4    6    3      0.11      0.00
   -3    6    3     -1.78      0.00
   -2    6    3      7.07      0.00
   -1    6    3     -8.91      0.00
    0    6    3      2.58      0.00
    1    6    3    -10.64      0.00
    2    6    3      4.58      0.00
    3    6    3      1.56      0.00
    4    6    3     15.37      0.00
    5    6    3     -7.58      0.00
    6    6    3     -2.25      0.00
    7    6    3     -7.55      0.00
    8    6    3     14.51      0.00
    9    6    3     -2.05      0.00
   10    6    3      3.65      0.00
   11    6    3      0.75      0.00
   12    6    3     -0.77      0.00
   13    6    3     -0.31      0.00
   14    6    3      0.93      0.00
   15    6    3     -1.92      0.00
   16    6    3      3.40      0.00
  -13    7    3     -0.92      0.00
  -12    7    3     -0.64      0.00
  -11    7    3     -2.09      0.00
  -10    7    3     -1.13      0.00
   -9    7    3     -0.77      0.00
   -8    7    3      2.05      0.00
   -7    7    3     -1.64      0.00
   -6    7    3      2.38      0.00
   -5    7    3     -2.24      0.00
   -4    7    3     -1.86      0.00
   -3    7    3      0.32      0.00
   -2    7    3     -0.51      0.00
   -1    7    3      3.48      0.00
    0    7    3     -5.91      0.00
    1    7    3      2.47      0.00
    2    7    3      0.08      0.00
    3    7    3      4.64      0.00
    4    7    3     11.80      0.00
    5    7    3      5.88      0.00
    6    7    3     -4.30      0.00
    7    7    3     -8.63      0.00
    8    7    3      0.51      0.00
    9    7    3      0.99      0.00
   10    7    3     -1.76      0.00
   11    7    3     -2.11      0.00
   12    7    3      1.60      0.00
   13    7    3     -0.90      0.00
   14    7    3     -0.68      0.00
   15    7    3      0.29      0.00
  -12    8    3      2.16      0.00
  -11    8    3      1.16      0.00
  -10    8    3      0.82      0.00
   -9    8    3     -0.53      0.00
   -8    8    3      1.24      0.00
   -7    8    3     -0.66      0.00
   -6    8    3      2.18      0.00
   -5    8    3     -1.34      0.00
   -4    8    3     -2.04      0.00
   -3    8    3     -5.45      0.00
   -2    8    3     -3.64      0.00
   -1    8    3      0.74      0.00
    0    8    3     -4.11      0.00
    2    8    3      0.01      0.00
    3    8    3      5.72      0.00
    4    8    3     -0.11      0.00
    5    8    3     10.91      0.00
    6    8    3     -2.63      0.00
    7    8    3     -0.53      0.00
    8    8    3     -6.09      0.00
    9    8    3      6.95      0.00
   10    8    3     -1.50      0.00
   11    8    3      2.15      0.00
   12    8    3      1.69      0.00
   13    8    3      2.32      0.00
   14    8    3     -1.51      0.00
   15    8    3      0.54      0.00
  -12    9    3     -0.82      0.00
  -11    9    3     -0.58      0.00
  -10    9    3     -1.43      0.00
   -9    9    3     -0.53      0.00
   -8    9    3     -0.75      0.00
   -7    9    3      0.73      0.00
   -6    9    3     -2.28      0.00
   -5    9    3      2.16      0.00
   -4    9    3     -2.25      0.00
   -3    9    3      0.03      0.00
   -2    9    3     -1.35      0.00
   -1    9    3     -2.79      0.00
    0    9    3      6.44      0.00
    1    9    3     -8.84      0.00
    2    9    3      2.56      0.00
    3    9    3     -1.37      0.00
    4    9    3     -0.62      0.00
    5    9    3      1.27      0.00
    6    9    3      4.97      0.00
    7    9    3     -1.38      0.00
    8    9    3     -4.20      0.00
    9    9    3      0.18      0.00
   10    9    3      0.31      0.00
   11    9    3      0.16      0.00
   12    9    3      0.75      0.00
   13    9    3      0.32      0.00
   14    9    3     -0.37      0.00
   15    9    3     -1.90      0.00
  -11   10    3      0.08      0.00
  -10   10    3     -1.30      0.00
   -9   10    3      0.32      0.00
   -8   10    3     -0.41      0.00
   -7   10    3      1.89      0.00
   -6   10    3      0.29      0.00
   -5   10    3      0.44      0.00
   -4   10    3     -0.12      0.00
   -3   10    3     -2.32      0.00
   -2   10    3     -1.11      0.00
   -1   10    3      0.52      0.00
    0   10    3     -1.02      0.00
    1   10    3      6.55      0.00
    2   10    3     -7.92      0.00
    3   10    3      1.74      0.00
    4   10    3     -1.49      0.00
    5   10    3     -3.22      0.00
    6   10    3      3.74      0.00
    7   10    3     -1.69      0.00
    8   10    3     -2.04      0.00
    9   10    3     -6.52      0.00
   10   10    3      2.84      0.00
   11   10    3     -1.71      0.00
   12   10    3      3.05      0.00
   13   10    3      0.90      0.00
   14   10    3      0.03      0.00
  -10   11    3      0.62      0.00
   -9   11    3     -2.66      0.00
   -8   11    3      0.57      0.00
   -7   11    3     -1.75      0.00
   -6   11    3      0.19      0.00
   -5   11    3     -1.86      0.00
   -4   11    3      0.34      0.00
   -3   11    3     -0.89      0.00
   -2   11    3     -0.67      0.00
   -1   11    3      0.58      0.00
    0   11    3      1.04      0.00
    1   11    3      1.45      0.00
    2   11    3     -1.56      0.00
    3   11    3     -0.76      0.00
    4   11    3      0.39      0.00
    5   11    3      0.36      0.00
    6   11    3     -1.33      0.00
    7   11    3      2.89      0.00
    8   11    3     -0.29      0.00
    9   11    3     -0.17      0.00
   10   11    3     -1.92      0.00
   11   11    3      3.16      0.00
   12   11    3     -1.48      0.00
   13   11    3      1.37      0.00
   -9   12    3      0.83      0.00
   -8   12    3     -2.12      0.00
   -7   12    3     -0.51      0.00
   -6   12    3      0.54      0.00
   -5   12    3     -0.20      0.00
   -4   12    3      0.21      0.00
   -3   12    3     -0.51      0.00
   -2   12    3     -0.12      0.00
   -1   12    3     -1.75      0.00
    0   12    3      1.01      0.00
    1   12    3      1.58      0.00
    2   12    3      3.41      0.00
    3   12    3     -4.01      0.00
    4   12    3      1.93      0.00
    5   12    3     -2.24      0.00
    6   12    3     -0.52      0.00
    7   12    3     -0.55      0.00
    8   12    3      0.35      0.00
    9   12    3      0.62      0.00
   10   12    3      0.44      0.00
   11   12    3     -0.07      0.00
   12   12    3      2.85      0.00
   -8   13    3      0.24      0.00
   -7   13    3      0.88      0.00
   -6   13    3     -1.70      0.00
   -5   13    3      0.90      0.00
   -4   13    3     -2.00      0.00
   -3   13    3      0.76      0.00
   -2   13    3     -1.11      0.00
   -1   13    3     -0.18      0.00
    0   13    3     -1.32      0.00
    1   13    3     -0.69      0.00
    2   13    3      2.01      0.00
    3   13    3     -0.40      0.00
    4   13    3     -0.71      0.00
    5   13    3      1.80      0.00
    6   13    3     -0.42      0.00
    7   13    3      0.09      0.00
    8   13    3      1.64      0.00
    9   13    3      0.31      0.00
   10   13    3      2.26      0.00
   11   13    3     -0.69      0.00
   -5   14    3     -1.75      0.00
   -4   14    3     -0.25      0.00
   -3   14    3     -2.11      0.00
   -2   14    3      0.76      0.00
   -1   14    3      1.62      0.00
    0   14    3     -1.88      0.00
    1   14    3      1.03      0.00
    2   14    3     -1.43      0.00
    3   14    3      2.16      0.00
    4   14    3      0.74      0.00
    5   14    3      0.84      0.00
    6   14    3      1.40      0.00
    7   14    3     -1.29      0.00
    8   14    3     -1.94      0.00
    9   14    3     -0.37      0.00
   10   14    3     -1.77      0.00
   -4   15    3      0.94      0.00
   -3   15    3      0.02      0.00
   -2   15    3      0.31      0.00
   -1   15    3      0.58      0.00
    0   15    3      2.89      0.00
    1   15    3     -1.58      0.00
    2   15    3      0.39      0.00
    3   15    3      0.73      0.00
    4   15    3     -0.64      0.00
    5   15    3      1.65      0.00
    6   15    3     -1.10      0.00
    7   15    3      0.07      0.00
    8   15    3     -1.49      0.00
    9   15    3     -0.02      0.00
    0  -13    4      0.66      0.00
    1  -13    4     -0.22      0.00
    2  -13    4      2.17      0.00
    3  -13    4      0.89      0.00
   -6  -12    4     -0.23      0.00
   -5  -12    4     -1.60      0.00
   -4  -12    4     -1.30      0.00
   -3  -12    4     -1.51      0.00
   -2  -12    4     -2.02      0.00
   -1  -12    4     -1.54      0.00
    0  -12    4      1.30      0.00
    1  -12    4     -0.85      0.00
    2  -12    4      0.56      0.00
    3  -12    4      1.19      0.00
   -9  -11    4      0.46      0.00
   -8  -11    4      0.53      0.00
   -7  -11    4      3.18      0.00
   -6  -11    4      0.28      0.00
   -5  -11    4      1.47      0.00
   -4  -11    4      2.37      0.00
   -3  -11    4     -1.64      0.00
   -2  -11    4      1.93      0.00
   -1  -11    4      0.38      0.00
    1  -11    4      1.40      0.00
    2  -11    4     -0.11      0.00
    3  -11    4      3.51      0.00
  -11  -10    4     -0.20      0.00
  -10  -10    4     -0.75      0.00
   -9  -10    4     -1.79      0.00
   -8  -10    4      2.23      0.00
   -7  -10    4      0.15      0.00
   -6  -10    4      0.05      0.00
   -5  -10    4      1.53      0.00
   -4  -10    4      0.28      0.00
   -3  -10    4      1.58      0.00
   -2  -10    4     -3.56      0.00
   -1  -10    4     -1.26      0.00
    0  -10    4     -1.83      0.00
    1  -10    4      0.86      0.00
    2  -10    4      0.83      0.00
    3  -10    4     -0.34      0.00
    4  -10    4      2.33      0.00
    6  -10    4      1.42      0.00
    7  -10    4      0.11      0.00
    8  -10    4      1.35      0.00
    9  -10    4     -0.11      0.00
  -11   -9    4      0.25      0.00
  -10   -9    4     -0.26      0.00
   -9   -9    4      1.60      0.00
   -8   -9    4     -1.66      0.00
   -7   -9    4      3.04      0.00
   -6   -9    4      0.45      0.00
   -5   -9    4     -0.57      0.00
   -4   -9    4     -2.42      0.00
   -3   -9    4      1.69      0.00
   -2   -9    4     -2.01      0.00
   -1   -9    4      1.15      0.00
    0   -9    4      0.29      0.00
    1   -9    4     -1.78      0.00
    2   -9    4      1.78      0.00
    3   -9    4     -0.40      0.00
    4   -9    4      1.73      0.00
    5   -9    4     -1.23      0.00
    6   -9    4      0.36      0.00
    7   -9    4      0.97      0.00
    8   -9    4     -0.36      0.00
    9   -9    4      1.06      0.00
   10   -9    4     -0.28      0.00
  -12   -8    4      0.16      0.00
  -11   -8    4      1.28      0.00
  -10   -8    4      0.25      0.00
   -9   -8    4     -0.45      0.00
   -8   -8    4      1.15      0.00
   -7   -8    4      0.08      0.00
   -6   -8    4      2.80      0.00
   -5   -8    4      1.73      0.00
   -4   -8    4     -1.98      0.00
   -3   -8    4     -3.54      0.00
   -2   -8    4      0.26      0.00
   -1   -8    4     -4.71      0.00
    0   -8    4      1.41      0.00
    1   -8    4     -0.05      0.00
    2   -8    4     -2.02      0.00
    3   -8    4      1.64      0.00
    4   -8    4      0.44      0.00
    5   -8    4      3.70      0.00
    6   -8    4     -1.67      0.00
    7   -8    4      0.37      0.00
    8   -8    4     -0.73      0.00
    9   -8    4     -1.45      0.00
   10   -8    4     -0.98      0.00
   11   -8    4      0.19      0.00
  -13   -7    4      0.97      0.00
  -12   -7    4      0.08      0.00
  -11   -7    4     -0.55      0.00
  -10   -7    4     -0.77      0.00
   -9   -7    4     -1.86      0.00
   -8   -7    4      1.90      0.00
   -7   -7    4     -2.86      0.00
   -6   -7    4      0.49      0.00
   -5   -7    4     -1.58      0.00
   -4   -7    4      4.12      0.00
   -3   -7    4     -5.70      0.00
   -2   -7    4      3.11      0.00
   -1   -7    4     -2.97      0.00
    0   -7    4     -2.63      0.00
    1   -7    4     -1.06      0.00
    2   -7    4      1.91      0.00
    3   -7    4      1.40      0.00
    4   -7    4      1.33      0.00
    5   -7    4      3.10      0.00
    6   -7    4      0.28      0.00
    7   -7    4      0.31      0.00
    8   -7    4     -0.82      0.00
    9   -7    4     -0.72      0.00
   10   -7    4      1.16      0.00
   11   -7    4     -1.17      0.00
   12   -7    4      2.09      0.00
  -13   -6    4      0.40      0.00
  -12   -6    4      1.11      0.00
  -11   -6    4     -1.22      0.00
  -10   -6    4     -1.26      0.00
   -9   -6    4      0.29      0.00
   -8   -6    4     -0.59      0.00
   -7   -6    4      4.41      0.00
   -6   -6    4     -4.08      0.00
   -5   -6    4      4.50      0.00
   -4   -6    4      0.23      0.00
   -3   -6    4      6.01      0.00
   -1   -6    4      6.27      0.00
    0   -6    4     -6.10      0.00
    1   -6    4      3.28      0.00
    2   -6    4     -5.40      0.00
    3   -6    4      0.83      0.00
    4   -6    4      0.70      0.00
    5   -6    4      1.21      0.00
    6   -6    4      4.09      0.00
    7   -6    4     -0.97      0.00
    8   -6    4     -1.08      0.00
    9   -6    4     -1.39      0.00
   10   -6    4     -1.73      0.00
   11   -6    4      2.08      0.00
   12   -6    4     -0.76      0.00
   13   -6    4     -0.03      0.00
  -14   -5    4      0.83      0.00
  -13   -5    4      0.80      0.00
  -12   -5    4      1.13      0.00
  -11   -5    4     -0.63      0.00
  -10   -5    4     -1.55      0.00
   -9   -5    4     -0.94      0.00
   -8   -5    4     -0.85      0.00
   -7   -5    4      1.28      0.00
   -6   -5    4      0.69      0.00
   -5   -5    4      2.51      0.00
   -4   -5    4     -1.95      0.00
   -3   -5    4      0.18      0.00
   -2   -5    4     -4.56      0.00
   -1   -5    4     -2.87      0.00
    0   -5    4      3.43      0.00
    1   -5    4     -8.60      0.00
    2   -5    4      0.92      0.00
    3   -5    4     -4.32      0.00
    4   -5    4      0.04      0.00
    5   -5    4      3.86      0.00
    6   -5    4      4.06      0.00
    7   -5    4      1.72      0.00
    8   -5    4     -0.23      0.00
    9   -5    4     -1.72      0.00
   10   -5    4      1.75      0.00
   11   -5    4     -0.90      0.00
   12   -5    4      0.20      0.00
   13   -5    4      1.66      0.00
   14   -5    4     -1.25      0.00
  -14   -4    4      2.76      0.00
  -13   -4    4      0.84      0.00
  -12   -4    4     -1.70      0.00
  -11   -4    4      1.90      0.00
  -10   -4    4     -1.45      0.00
   -9   -4    4     -0.81      0.00
   -8   -4    4      1.75      0.00
   -7   -4    4     -0.21      0.00
   -6   -4    4      2.77      0.00
   -5   -4    4     -5.62      0.00
   -4   -4    4      7.39      0.00
   -3   -4    4     -9.60      0.00
   -2   -4    4      2.66      0.00
   -1   -4    4      0.00      0.00
    0   -4    4      4.74      0.00
    1   -4    4      1.41      0.00
    2   -4    4     -0.98      0.00
    3   -4    4     -4.45      0.00
    4   -4    4      5.89      0.00
    5   -4    4     -3.61      0.00
    6   -4    4      3.66      0.00
    7   -4    4      0.31      0.00
    8   -4    4     -1.08      0.00
    9   -4    4     -1.81      0.00
   10   -4    4     -3.98      0.00
   11   -4    4      0.90      0.00
   12   -4    4     -0.56      0.00
   13   -4    4     -1.55      0.00
   14   -4    4      1.09      0.00
  -14   -3    4     -1.74      0.00
  -13   -3    4      1.60      0.00
  -12   -3    4      0.95      0.00
  -11   -3    4     -2.24      0.00
  -10   -3    4      3.29      0.00
   -9   -3    4     -1.81      0.00
   -8   -3    4      0.92      0.00
   -7   -3    4      0.00      0.00
   -6   -3    4      1.16      0.00
   -5   -3    4      2.93      0.00
   -4   -3    4      1.38      0.00
   -3   -3    4     -6.13      0.00
   -1   -3    4     -6.73      0.00
    0   -3    4      5.31      0.00
    1   -3    4      6.38      0.00
    2   -3    4     -1.83      0.00
    3   -3    4      0.39      0.00
    4   -3    4     -8.82      0.00
    5   -3    4      6.07      0.00
    6   -3    4     -2.80      0.00
    7   -3    4      6.25      0.00
    8   -3    4      0.23      0.00
    9   -3    4     -0.01      0.00
   10   -3    4     -0.17      0.00
   11   -3    4     -0.20      0.00
   12   -3    4      1.15      0.00
   13   -3    4      0.39      0.00
   14   -3    4      0.53      0.00
   15   -3    4      0.91      0.00
  -14   -2    4      1.09      0.00
  -13   -2    4      0.17      0.00
  -12   -2    4      0.38      0.00
  -11   -2    4     -0.50      0.00
  -10   -2    4     -3.18      0.00
   -9   -2    4     -0.35      0.00
   -8   -2    4     -4.14      0.00
   -7   -2    4      0.64      0.00
   -6   -2    4      0.92      0.00
   -5   -2    4      1.67      0.00
   -4   -2    4     -6.96      0.00
   -3   -2    4      9.83      0.00
   -2   -2    4    -30.41      0.00
   -1   -2    4     14.16      0.00
    0   -2    4     -7.95      0.00
    1   -2    4     -4.13      0.00
    2   -2    4      2.12      0.00
    3   -2    4     -1.24      0.00
    5   -2    4      0.83      0.00
    6   -2    4     -0.06      0.00
    7   -2    4     -1.24      0.00
    8   -2    4      0.67      0.00
    9   -2    4     -1.03      0.00
   10   -2    4     -2.18      0.00
   11   -2    4     -2.57      0.00
   12   -2    4      0.15      0.00
   13   -2    4     -1.13      0.00
   14   -2    4      0.07      0.00
   15   -2    4      1.85      0.00
  -12   -1    4      0.82      0.00
  -11   -1    4      1.09      0.00
  -10   -1    4      0.94      0.00
   -9   -1    4      0.73      0.00
   -8   -1    4     -2.71      0.00
   -7   -1    4      4.20      0.00
   -6   -1    4      0.70      0.00
   -5   -1    4      2.89      0.00
   -4   -1    4      6.81      0.00
   -3   -1    4    -11.16      0.00
   -1   -1    4    -20.78      0.00
    0   -1    4      4.44      0.00
    1   -1    4     -0.61      0.00
    2   -1    4    -18.32      0.00
    3   -1    4      1.61      0.00
    4   -1    4      2.02      0.00
    5   -1    4     -1.99      0.00
    6   -1    4      5.22      0.00
    7   -1    4     -7.32      0.00
    8   -1    4      1.65      0.00
    9   -1    4     -3.60      0.00
   10   -1    4      1.44      0.00
   11   -1    4     -1.24      0.00
   12   -1    4     -1.99      0.00
   13   -1    4      1.33      0.00
   14   -1    4     -2.31      0.00
   15   -1    4      0.30      0.00
  -11    0    4      3.74      0.00
  -10    0    4      0.57      0.00
   -9    0    4     -2.60      0.00
   -8    0    4      0.62      0.00
   -7    0    4     -6.76      0.00
   -6    0    4      2.94      0.00
   -5    0    4     -1.02      0.00
   -4    0    4     -0.13      0.00
   -3    0    4      7.26      0.00
   -2    0    4     -6.61      0.00
   -1    0    4      1.02      0.00
    0    0    4      3.59      0.00
    1    0    4      5.56      0.00
    2    0    4      9.77      0.00
    3    0    4     -2.47      0.00
    4    0    4      8.29      0.00
    5    0    4     -0.05      0.00
    6    0    4      2.02      0.00
    7    0    4      7.12      0.00
    8    0    4     -5.45      0.00
    9    0    4      5.74      0.00
   10    0    4     -4.74      0.00
   11    0    4      0.99      0.00
   12    0    4     -1.37      0.00
   13    0    4     -1.85      0.00
   14    0    4      1.44      0.00
   15    0    4     -1.79      0.00
   16    0    4      1.84      0.00
  -13    1    4      0.87      0.00
  -12    1    4      1.28      0.00
  -11    1    4     -0.57      0.00
  -10    1    4      1.30      0.00
   -9    1    4     -2.77      0.00
   -8    1    4     -2.56      0.00
   -7    1    4     -0.66      0.00
   -6    1    4     -0.46      0.00
   -5    1    4      3.67      0.00
   -4    1    4      7.94      0.00
   -2    1    4     12.84      0.00
   -1    1    4      0.95      0.00
    0    1    4      7.38      0.00
    1    1    4     -9.56      0.00
    3    1    4    -23.13      0.00
    4    1    4     -9.54      0.00
    5    1    4      1.60      0.00
    6    1    4     -5.74      0.00
    7    1    4      3.03      0.00
    8    1    4      2.22      0.00
    9    1    4     -4.87      0.00
   10    1    4      2.71      0.00
   11    1    4     -2.35      0.00
   12    1    4      1.11      0.00
   13    1    4      0.49      0.00
   14    1    4      0.09      0.00
   15    1    4      0.36      0.00
   16    1    4     -0.64      0.00
  -14    2    4     -0.64      0.00
  -13    2    4     -1.31      0.00
  -12    2    4     -0.06      0.00
  -11    2    4      0.42      0.00
  -10    2    4      1.88      0.00
   -9    2    4      1.94      0.00
   -8    2    4     -1.63      0.00
   -7    2    4     -0.44      0.00
   -6    2    4     -4.21      0.00
   -5    2    4     -5.36      0.00
   -4    2    4      1.79      0.00
   -3    2    4      3.28      0.00
   -2    2    4     -5.87      0.00
   -1    2    4     -0.06      0.00
    0    2    4     -9.30      0.00
    1    2    4      7.09      0.00
    2    2    4    -19.71      0.00
    5    2    4     -9.26      0.00
    6    2    4      1.13      0.00
    7    2    4     -9.94      0.00
    8    2    4      3.56      0.00
    9    2    4      1.43      0.00
   10    2    4      0.99      0.00
   11    2    4     -0.68      0.00
   12    2    4     -0.32      0.00
   13    2    4     -1.67      0.00
   14    2    4      0.16      0.00
   15    2    4      0.35      0.00
   16    2    4     -0.97      0.00
  -14    3    4      0.14      0.00
  -12    3    4     -0.34      0.00
  -11    3    4     -0.83      0.00
  -10    3    4     -0.64      0.00
   -9    3    4      1.66      0.00
   -8    3    4     -2.04      0.00
   -7    3    4     -2.24      0.00
   -6    3    4     -4.21      0.00
   -5    3    4     -0.05      0.00
   -4    3    4     -3.63      0.00
   -3    3    4      9.10      0.00
   -1    3    4     -9.65      0.00
    0    3    4     -2.08      0.00
    1    3    4     -1.19      0.00
    2    3    4     -7.63      0.00
    3    3    4    -14.73      0.00
    4    3    4     -3.28      0.00
    5    3    4     -0.87      0.00
    6    3    4     -3.98      0.00
    7    3    4     -0.86      0.00
    8    3    4     -4.91      0.00
    9    3    4     -0.55      0.00
   10    3    4     -0.53      0.00
   11    3    4      2.08      0.00
   12    3    4     -3.69      0.00
   13    3    4      2.42      0.00
   14    3    4     -2.45      0.00
   15    3    4      0.15      0.00
   16    3    4      0.18      0.00
  -14    4    4     -1.61      0.00
  -13    4    4      2.96      0.00
  -12    4    4     -0.50      0.00
  -11    4    4     -0.78      0.00
  -10    4    4     -2.14      0.00
   -9    4    4      0.06      0.00
   -8    4    4      1.35      0.00
   -7    4    4     -1.04      0.00
   -6    4    4      0.70      0.00
   -5    4    4     -1.36      0.00
   -4    4    4      1.38      0.00
   -2    4    4     10.48      0.00
   -1    4    4     -4.95      0.00
    0    4    4     -5.50      0.00
    1    4    4     -2.99      0.00
    2    4    4     -0.90      0.00
    3    4    4    -17.71      0.00
    4    4    4     -8.50      0.00
    5    4    4      0.22      0.00
    6    4    4      0.18      0.00
    8    4    4     -7.11      0.00
    9    4    4      7.75      0.00
   10    4    4     -3.03      0.00
   11    4    4     -2.51      0.00
   12    4    4      4.00      0.00
   13    4    4     -2.06      0.00
   14    4    4      2.75      0.00
   15    4    4     -0.48      0.00
   16    4    4      0.05      0.00
  -14    5    4     -0.93      0.00
  -13    5    4     -1.81      0.00
  -12    5    4      0.95      0.00
  -11    5    4     -1.46      0.00
  -10    5    4     -0.47      0.00
   -9    5    4     -1.21      0.00
   -8    5    4      1.24      0.00
   -7    5    4     -4.38      0.00
   -4    5    4     -2.77      0.00
   -3    5    4    -10.81      0.00
   -2    5    4      3.40      0.00
   -1    5    4      2.34      0.00
    0    5    4     -4.48      0.00
    1    5    4      1.04      0.00
    2    5    4     10.06      0.00
    3    5    4     -1.69      0.00
    4    5    4     -9.64      0.00
    5    5    4     -3.56      0.00
    6    5    4      9.63      0.00
    7    5    4     -2.94      0.00
    8    5    4     23.76      0.00
    9    5    4    -10.47      0.00
   10    5    4      5.90      0.00
   11    5    4     -1.36      0.00
   12    5    4     -3.66      0.00
   13    5    4      2.80      0.00
   14    5    4      0.28      0.00
   15    5    4     -1.99      0.00
   16    5    4      0.08      0.00
  -13    6    4     -1.46      0.00
  -12    6    4      1.50      0.00
  -11    6    4      1.48      0.00
  -10    6    4      0.70      0.00
   -9    6    4      0.49      0.00
   -8    6    4     -1.57      0.00
   -7    6    4     -1.00      0.00
   -6    6    4     -2.19      0.00
   -5    6    4     -0.41      0.00
   -4    6    4      3.93      0.00
   -3    6    4      6.65      0.00
   -2    6    4     -8.37      0.00
   -1    6    4     13.93      0.00
    0    6    4     -1.87      0.00
    1    6    4      5.50      0.00
    2    6    4     -2.51      0.00
    3    6    4     -2.27      0.00
    4    6    4    -10.91      0.00
    5    6    4    -10.27      0.00
    6    6    4      1.49      0.00
    7    6    4      8.74      0.00
    8    6    4      0.69      0.00
    9    6    4     12.31      0.00
   10    6    4     -2.85      0.00
   11    6    4     -0.14      0.00
   12    6    4      0.73      0.00
   13    6    4     -0.32      0.00
   14    6    4      0.57      0.00
   15    6    4      3.61      0.00
   16    6    4     -1.77      0.00
  -13    7    4     -1.59      0.00
  -12    7    4     -2.01      0.00
  -11    7    4     -0.81      0.00
  -10    7    4     -0.22      0.00
   -9    7    4     -1.60      0.00
   -8    7    4     -1.72      0.00
   -7    7    4     -0.84      0.00
   -6    7    4     -5.36      0.00
   -5    7    4      1.59      0.00
   -4    7    4     -2.88      0.00
   -3    7    4      0.20      0.00
   -2    7    4     -0.69      0.00
   -1    7    4    -10.78      0.00
    0    7    4      4.07      0.00
    1    7    4      0.96      0.00
    2    7    4      6.01      0.00
    3    7    4      8.29      0.00
    4    7    4     -7.81      0.00
    5    7    4     -6.91      0.00
    6    7    4     -9.37      0.00
    7    7    4      4.15      0.00
    8    7    4     -2.12      0.00
    9    7    4      0.71      0.00
   10    7    4     -2.20      0.00
   11    7    4     -0.35      0.00
   12    7    4     -2.13      0.00
   13    7    4     -1.55      0.00
   14    7    4      0.75      0.00
   15    7    4     -0.83      0.00
  -12    8    4     -0.74      0.00
  -11    8    4      2.33      0.00
  -10    8    4     -0.82      0.00
   -9    8    4      1.50      0.00
   -8    8    4     -0.69      0.00
   -7    8    4     -1.95      0.00
   -6    8    4      1.72      0.00
   -5    8    4     -6.70      0.00
   -4    8    4      2.71      0.00
   -3    8    4      0.04      0.00
   -2    8    4      3.38      0.00
   -1    8    4     -0.97      0.00
    0    8    4      1.52      0.00
    1    8    4     -4.43      0.00
    2    8    4      5.57      0.00
    3    8    4     -2.94      0.00
    4    8    4      2.59      0.00
    5    8    4    -12.02      0.00
    6    8    4     -6.88      0.00
    7    8    4     -1.06      0.00
    8    8    4      7.47      0.00
    9    8    4      0.79      0.00
   10    8    4      3.30      0.00
   11    8    4      0.77      0.00
   12    8    4      0.24      0.00
   13    8    4     -1.10      0.00
   14    8    4     -0.52      0.00
   15    8    4      0.05      0.00
  -12    9    4     -2.50      0.00
  -11    9    4     -2.64      0.00
  -10    9    4      0.72      0.00
   -9    9    4     -1.43      0.00
   -8    9    4      0.02      0.00
   -7    9    4      0.11      0.00
   -6    9    4     -2.91      0.00
   -5    9    4      0.34      0.00
   -4    9    4     -2.56      0.00
   -3    9    4      2.33      0.00
   -2    9    4      2.75      0.00
   -1    9    4      4.59      0.00
    0    9    4     -1.15      0.00
    2    9    4     -0.56      0.00
    3    9    4      3.69      0.00
    4    9    4      0.06      0.00
    5    9    4     -2.72      0.00
    6    9    4     -5.83      0.00
    7    9    4     -5.82      0.00
    8    9    4      3.49      0.00
    9    9    4      1.91      0.00
   10    9    4     -0.29      0.00
   11    9    4     -0.50      0.00
   12    9    4     -0.73      0.00
   13    9    4     -2.21      0.00
   14    9    4     -2.19      0.00
   15    9    4      0.50      0.00
  -11   10    4     -1.16      0.00
  -10   10    4      0.24      0.00
   -9   10    4      0.18      0.00
   -8   10    4      0.99      0.00
   -7   10    4     -1.53      0.00
   -6   10    4      0.94      0.00
   -5   10    4     -0.08      0.00
   -4   10    4     -1.95      0.00
   -3   10    4      2.76      0.00
   -2   10    4     -1.12      0.00
   -1   10    4      2.13      0.00
    0   10    4      1.54      0.00
    2   10    4      1.96      0.00
    3   10    4     -0.14      0.00
    4   10    4     -0.77      0.00
    5   10    4      3.10      0.00
    6   10    4     -4.97      0.00
    7   10    4     -3.80      0.00
    8   10    4     -2.52      0.00
    9   10    4      5.17      0.00
   10   10    4      2.06      0.00
   11   10    4      1.72      0.00
   12   10    4     -0.30      0.00
   13   10    4     -0.38      0.00
   14   10    4      0.53      0.00
  -10   11    4     -0.86      0.00
   -9   11    4      0.82      0.00
   -8   11    4     -2.92      0.00
   -7   11    4     -0.19      0.00
   -6   11    4     -2.07      0.00
   -5   11    4     -1.81      0.00
   -4   11    4      1.91      0.00
   -3   11    4     -4.04      0.00
   -2   11    4      4.25      0.00
   -1   11    4     -2.05      0.00
    0   11    4      2.35      0.00
    1   11    4     -0.58      0.00
    2   11    4      3.12      0.00
    3   11    4      0.98      0.00
    4   11    4      1.55      0.00
    5   11    4     -0.82      0.00
    6   11    4      2.39      0.00
    7   11    4     -3.28      0.00
    8   11    4     -1.55      0.00
    9   11    4      2.33      0.00
   10   11    4      3.60      0.00
   11   11    4     -0.86      0.00
   12   11    4      0.15      0.00
   13   11    4     -1.66      0.00
   14   11    4     -0.78      0.00
   -9   12    4     -0.36      0.00
   -8   12    4      1.88      0.00
   -7   12    4     -1.39      0.00
   -6   12    4     -1.19      0.00
   -5   12    4      1.34      0.00
   -4   12    4     -2.09      0.00
   -3   12    4      4.00      0.00
   -2   12    4     -1.85      0.00
   -1   12    4      0.46      0.00
    0   12    4     -1.11      0.00
    1   12    4      2.23      0.00
    2   12    4     -1.91      0.00
    3   12    4      3.07      0.00
    4   12    4     -2.21      0.00
    5   12    4      0.16      0.00
    6   12    4     -0.33      0.00
    7   12    4      1.95      0.00
    8   12    4     -2.49      0.00
    9   12    4     -1.75      0.00
   10   12    4      1.59      0.00
   11   12    4      0.82      0.00
   12   12    4     -0.57      0.00
   13   12    4      0.44      0.00
   -8   13    4      0.55      0.00
   -7   13    4      0.75      0.00
   -6   13    4     -0.46      0.00
   -5   13    4     -2.78      0.00
   -4   13    4      1.24      0.00
   -3   13    4     -1.32      0.00
   -2   13    4      1.79      0.00
   -1   13    4      1.35      0.00
    0   13    4     -1.92      0.00
    1   13    4      2.48      0.00
    2   13    4     -0.57      0.00
    3   13    4      1.37      0.00
    4   13    4     -0.26      0.00
    5   13    4     -0.54      0.00
    6   13    4     -0.15      0.00
    7   13    4      1.12      0.00
    8   13    4      1.49      0.00
    9   13    4     -1.68      0.00
   10   13    4     -2.17      0.00
   11   13    4      0.08      0.00
   12   13    4     -2.10      0.00
   -6   14    4     -0.10      0.00
   -5   14    4      0.05      0.00
   -4   14    4     -0.79      0.00
   -3   14    4     -0.34      0.00
   -2   14    4      1.16      0.00
   -1   14    4     -1.69      0.00
    0   14    4      2.40      0.00
    1   14    4     -2.45      0.00
    2   14    4      3.73      0.00
    3   14    4     -2.42      0.00
    4   14    4      1.71      0.00
    5   14    4     -1.22      0.00
    6   14    4     -0.93      0.00
    7   14    4     -1.48      0.00
    8   14    4      1.04      0.00
    9   14    4     -0.56      0.00
   10   14    4     -1.01      0.00
   11   14    4     -0.89      0.00
   -5   15    4      0.49      0.00
   -4   15    4     -0.44      0.00
   -3   15    4      0.78      0.00
   -2   15    4     -1.77      0.00
   -1   15    4      1.53      0.00
    0   15    4     -2.33      0.00
    1   15    4      1.38      0.00
    2   15    4      1.75      0.00
    3   15    4      1.06      0.00
    4   15    4      1.18      0.00
    5   15    4     -1.04      0.00
    6   15    4      1.29      0.00
    7   15    4      0.30      0.00
    8   15    4      1.36      0.00
    9   15    4      2.59      0.00
   -4  -12    5     -1.81      0.00
   -3  -12    5      0.57      0.00
   -2  -12    5     -3.15      0.00
   -1  -12    5      0.65      0.00
    0  -12    5     -2.11      0.00
    1  -12    5     -0.01      0.00
    2  -12    5     -0.30      0.00
    3  -12    5     -0.30      0.00
   -7  -11    5     -2.56      0.00
   -6  -11    5      2.39      0.00
   -5  -11    5      0.13      0.00
   -4  -11    5      1.60      0.00
   -3  -11    5      2.62      0.00
   -2  -11    5      2.98      0.00
   -1  -11    5     -0.78      0.00
    0  -11    5      1.08      0.00
    1  -11    5      1.01      0.00
    2  -11    5      1.86      0.00
    3  -11    5      0.74      0.00
   -9  -10    5      0.73      0.00
   -8  -10    5     -2.61      0.00
   -7  -10    5     -2.59      0.00
   -6  -10    5     -2.26      0.00
   -4  -10    5     -0.03      0.00
   -3  -10    5     -4.74      0.00
   -2  -10    5      1.34      0.00
   -1  -10    5     -0.37      0.00
    0  -10    5      0.81      0.00
    1  -10    5     -0.21      0.00
    2  -10    5      0.49      0.00
    3  -10    5     -0.54      0.00
    7  -10    5      0.23      0.00
    8  -10    5     -1.27      0.00
  -11   -9    5     -0.01      0.00
  -10   -9    5      2.74      0.00
   -9   -9    5     -1.37      0.00
   -8   -9    5      4.44      0.00
   -7   -9    5     -1.11      0.00
   -6   -9    5      0.57      0.00
   -5   -9    5      0.55      0.00
   -4   -9    5     -3.45      0.00
   -3   -9    5      2.25      0.00
   -2   -9    5     -0.74      0.00
   -1   -9    5      3.39      0.00
    0   -9    5     -0.18      0.00
    1   -9    5      1.33      0.00
    2   -9    5      0.16      0.00
    3   -9    5      0.34      0.00
    4   -9    5      0.41      0.00
    5   -9    5     -0.06      0.00
    6   -9    5      1.04      0.00
    7   -9    5     -0.79      0.00
    8   -9    5     -1.49      0.00
    9   -9    5     -1.10      0.00
   10   -9    5      0.80      0.00
  -11   -8    5     -1.13      0.00
  -10   -8    5     -0.16      0.00
   -9   -8    5      1.44      0.00
   -8   -8    5     -1.60      0.00
   -7   -8    5      0.42      0.00
   -6   -8    5      0.03      0.00
   -5   -8    5     -0.95      0.00
   -4   -8    5     -1.77      0.00
   -3   -8    5     -0.32      0.00
   -2   -8    5     -0.34      0.00
   -1   -8    5     -0.03      0.00
    0   -8    5      1.01      0.00
    1   -8    5     -1.58      0.00
    2   -8    5     -0.79      0.00
    3   -8    5      0.47      0.00
    4   -8    5     -0.01      0.00
    5   -8    5     -0.77      0.00
    6   -8    5      1.19      0.00
    7   -8    5      0.56      0.00
    8   -8    5     -2.10      0.00
    9   -8    5     -0.42      0.00
   10   -8    5      0.66      0.00
   11   -8    5      0.32      0.00
  -12   -7    5     -2.60      0.00
  -11   -7    5      0.02      0.00
  -10   -7    5     -2.28      0.00
   -9   -7    5      1.67      0.00
   -8   -7    5     -0.87      0.00
   -7   -7    5      2.37      0.00
   -6   -7    5     -2.25      0.00
   -5   -7    5      2.34      0.00
   -4   -7    5     -4.63      0.00
   -3   -7    5      1.54      0.00
   -2   -7    5      1.74      0.00
   -1   -7    5      0.52      0.00
    0   -7    5      0.35      0.00
    1   -7    5      2.51      0.00
    2   -7    5      2.34      0.00
    3   -7    5      0.69      0.00
    4   -7    5      1.57      0.00
    5   -7    5     -2.71      0.00
    6   -7    5     -1.34      0.00
    7   -7    5     -0.68      0.00
    8   -7    5      1.00      0.00
    9   -7    5     -0.91      0.00
   10   -7    5      0.70      0.00
   11   -7    5      1.74      0.00
   12   -7    5     -0.76      0.00
  -13   -6    5      0.17      0.00
  -12   -6    5     -1.01      0.00
  -11   -6    5     -0.89      0.00
  -10   -6    5     -0.27      0.00
   -9   -6    5     -1.03      0.00
   -8   -6    5      3.20      0.00
   -7   -6    5     -1.43      0.00
   -6   -6    5      3.05      0.00
   -5   -6    5      0.12      0.00
   -4   -6    5      1.23      0.00
   -3   -6    5    -10.53      0.00
   -2   -6    5      1.34      0.00
   -1   -6    5     -2.89      0.00
    0   -6    5      0.86      0.00
    1   -6    5     -0.09      0.00
    2   -6    5      0.07      0.00
    3   -6    5     -0.54      0.00
    4   -6    5     -1.44      0.00
    5   -6    5     -0.15      0.00
    6   -6    5     -1.72      0.00
    7   -6    5     -2.30      0.00
    8   -6    5     -0.80      0.00
    9   -6    5     -0.92      0.00
   10   -6    5      1.34      0.00
   11   -6    5     -0.05      0.00
   12   -6    5     -0.08      0.00
  -13   -5    5     -1.49      0.00
  -12   -5    5     -0.04      0.00
  -11   -5    5     -0.76      0.00
  -10   -5    5      0.08      0.00
   -9   -5    5     -0.49      0.00
   -8   -5    5      0.78      0.00
   -7   -5    5      0.09      0.00
   -6   -5    5      1.84      0.00
   -5   -5    5      1.68      0.00
   -4   -5    5      0.96      0.00
   -3   -5    5     -4.65      0.00
   -2   -5    5     -5.98      0.00
   -1   -5    5      0.92      0.00
    0   -5    5     -3.67      0.00
    1   -5    5      0.64      0.00
    2   -5    5      1.45      0.00
    3   -5    5      0.98      0.00
    4   -5    5      2.95      0.00
    5   -5    5      1.21      0.00
    6   -5    5     -4.66      0.00
    7   -5    5     -0.83      0.00
    8   -5    5     -2.13      0.00
    9   -5    5      2.82      0.00
   10   -5    5     -0.83      0.00
   11   -5    5      1.95      0.00
   12   -5    5      0.30      0.00
   13   -5    5     -0.87      0.00
  -13   -4    5      0.99      0.00
  -12   -4    5     -0.44      0.00
  -11   -4    5     -1.95      0.00
  -10   -4    5      0.60      0.00
   -9   -4    5      2.42      0.00
   -8   -4    5     -0.74      0.00
   -7   -4    5      3.07      0.00
   -6   -4    5     -2.61      0.00
   -5   -4    5      3.29      0.00
   -4   -4    5     -2.17      0.00
   -3   -4    5      1.33      0.00
   -2   -4    5     -5.37      0.00
   -1   -4    5      2.94      0.00
    0   -4    5     -0.29      0.00
    1   -4    5     -1.33      0.00
    2   -4    5      1.00      0.00
    3   -4    5      5.34      0.00
    4   -4    5      0.25      0.00
    5   -4    5      3.43      0.00
    6   -4    5     -0.14      0.00
    7   -4    5     -4.12      0.00
    8   -4    5     -2.77      0.00
    9   -4    5     -1.74      0.00
   10   -4    5      1.94      0.00
   11   -4    5     -1.17      0.00
   12   -4    5      0.91      0.00
   13   -4    5     -0.24      0.00
   14   -4    5     -0.69      0.00
  -14   -3    5      0.45      0.00
  -13   -3    5     -1.87      0.00
  -12   -3    5     -0.59      0.00
  -11   -3    5      0.63      0.00
  -10   -3    5     -0.66      0.00
   -9   -3    5     -0.89      0.00
   -8   -3    5      1.14      0.00
   -7   -3    5     -2.00      0.00
   -6   -3    5      2.32      0.00
   -5   -3    5     -0.93      0.00
   -4   -3    5     -1.58      0.00
   -3   -3    5      0.29      0.00
   -2   -3    5     -3.99      0.00
   -1   -3    5      0.37      0.00
    0   -3    5      2.51      0.00
    1   -3    5     -2.48      0.00
    2   -3    5      0.41      0.00
    3   -3    5      1.59      0.00
    4   -3    5      3.05      0.00
    5   -3    5     -0.32      0.00
    6   -3    5      3.50      0.00
    7   -3    5     -4.24      0.00
    8   -3    5      0.16      0.00
    9   -3    5     -3.22      0.00
   10   -3    5      0.40      0.00
   11   -3    5      2.18      0.00
   12   -3    5      0.40      0.00
   13   -3    5      1.38      0.00
   14   -3    5     -0.17      0.00
  -13   -2    5      0.18      0.00
  -12   -2    5     -1.96      0.00
  -11   -2    5     -0.64      0.00
  -10   -2    5      0.38      0.00
   -9   -2    5     -0.88      0.00
   -8   -2    5      2.24      0.00
   -7   -2    5      2.04      0.00
   -6   -2    5     -1.39      0.00
   -5   -2    5     -3.28      0.00
   -4   -2    5      0.94      0.00
   -3   -2    5    -15.47      0.00
   -1   -2    5     -3.26      0.00
    0   -2    5      5.93      0.00
    1   -2    5     -4.71      0.00
    2   -2    5     -4.82      0.00
    3   -2    5     -6.15      0.00
    4   -2    5      5.98      0.00
    5   -2    5      0.26      0.00
    6   -2    5     -0.98      0.00
    7   -2    5      2.98      0.00
    8   -2    5     -5.57      0.00
    9   -2    5      1.10      0.00
   10   -2    5     -1.82      0.00
   11   -2    5     -0.04      0.00
   12   -2    5      0.31      0.00
   13   -2    5      0.34      0.00
   14   -2    5      0.07      0.00
   15   -2    5     -1.18      0.00
  -12   -1    5     -0.58      0.00
  -11   -1    5      0.14      0.00
  -10   -1    5      0.76      0.00
   -9   -1    5      4.01      0.00
   -8   -1    5      1.49      0.00
   -7   -1    5      4.25      0.00
   -6   -1    5      2.61      0.00
   -5   -1    5     -0.07      0.00
   -4   -1    5     -7.61      0.00
   -3   -1    5      2.50      0.00
   -2   -1    5    -12.97      0.00
   -1   -1    5      6.88      0.00
    0   -1    5      2.88      0.00
    1   -1    5      7.93      0.00
    2   -1    5     -1.56      0.00
    3   -1    5      7.04      0.00
    4   -1    5     -3.80      0.00
    5   -1    5      6.24      0.00
    6   -1    5      1.60      0.00
    7   -1    5     -0.64      0.00
    8   -1    5      1.48      0.00
    9   -1    5     -1.13      0.00
   10   -1    5     -0.71      0.00
   11   -1    5      0.85      0.00
   12   -1    5      0.98      0.00
   13   -1    5      0.78      0.00
   14   -1    5      1.94      0.00
   15   -1    5     -0.96      0.00
  -11    0    5     -0.73      0.00
  -10    0    5     -0.86      0.00
   -9    0    5     -0.24      0.00
   -8    0    5      0.78      0.00
   -7    0    5      2.14      0.00
   -6    0    5      0.11      0.00
   -5    0    5     -3.95      0.00
   -4    0    5     -1.83      0.00
   -3    0    5     -6.48      0.00
   -1    0    5      4.22      0.00
    0    0    5      1.07      0.00
    1    0    5      9.57      0.00
    3    0    5      1.58      0.00
    4    0    5      1.15      0.00
    5    0    5      0.91      0.00
    6    0    5      0.39      0.00
    7    0    5      2.47      0.00
    8    0    5      3.60      0.00
    9    0    5     -2.58      0.00
   10    0    5      2.02      0.00
   11    0    5     -3.11      0.00
   12    0    5      1.14      0.00
   13    0    5      1.59      0.00
   14    0    5     -0.05      0.00
   15    0    5      3.29      0.00
  -12    1    5     -0.21      0.00
  -11    1    5     -0.10      0.00
  -10    1    5     -2.05      0.00
   -9    1    5     -2.71      0.00
   -8    1    5      1.71      0.00
   -7    1    5      1.60      0.00
   -6    1    5      1.76      0.00
   -5    1    5      0.78      0.00
   -4    1    5     -1.42      0.00
   -3    1    5      0.91      0.00
   -2    1    5     -1.97      0.00
   -1    1    5      2.17      0.00
    0    1    5     -6.95      0.00
    1    1    5     -4.88      0.00
    2    1    5    -15.71      0.00
    3    1    5     -5.96      0.00
    4    1    5     -3.35      0.00
    5    1    5     -9.64      0.00
    6    1    5      6.92      0.00
    7    1    5     -3.79      0.00
    8    1    5     -4.41      0.00
    9    1    5      2.51      0.00
   10    1    5     -5.39      0.00
   11    1    5      3.12      0.00
   12    1    5     -1.74      0.00
   13    1    5      0.59      0.00
   14    1    5      2.93      0.00
   15    1    5     -0.87      0.00
   16    1    5      0.76      0.00
  -13    2    5      0.83      0.00
  -12    2    5     -0.41      0.00
  -11    2    5      1.22      0.00
  -10    2    5     -1.04      0.00
   -9    2    5      0.52      0.00
   -8    2    5      1.38      0.00
   -7    2    5      2.18      0.00
   -6    2    5      0.40      0.00
   -5    2    5      3.82      0.00
   -4    2    5     -4.61      0.00
   -3    2    5     -9.89      0.00
   -2    2    5     -8.00      0.00
   -1    2    5    -13.89      0.00
    0    2    5     11.38      0.00
    1    2    5    -12.59      0.00
    2    2    5     17.67      0.00
    3    2    5      3.07      0.00
    4    2    5      3.63      0.00
    5    2    5      9.90      0.00
    6    2    5     -4.93      0.00
    7    2    5     11.68      0.00
    8    2    5     -0.72      0.00
    9    2    5     -2.26      0.00
   10    2    5      3.80      0.00
   11    2    5     -2.29      0.00
   12    2    5      0.84      0.00
   13    2    5      0.12      0.00
   14    2    5     -1.25      0.00
   15    2    5      2.38      0.00
   16    2    5      0.03      0.00
  -14    3    5      0.86      0.00
  -13    3    5      0.11      0.00
  -12    3    5      1.84      0.00
  -11    3    5     -0.36      0.00
  -10    3    5      1.12      0.00
   -9    3    5     -2.93      0.00
   -8    3    5     -1.35      0.00
   -7    3    5      0.85      0.00
   -6    3    5      4.41      0.00
   -5    3    5     -3.62      0.00
   -4    3    5     10.23      0.00
   -3    3    5     -1.09      0.00
   -2    3    5     -1.84      0.00
   -1    3    5      4.07      0.00
    0    3    5      8.64      0.00
    1    3    5      7.11      0.00
    2    3    5     -8.78      0.00
    3    3    5      4.68      0.00
    4    3    5      7.60      0.00
    5    3    5      0.97      0.00
    6    3    5      9.51      0.00
    7    3    5      7.21      0.00
    8    3    5      3.28      0.00
    9    3    5      0.73      0.00
   10    3    5     -3.94      0.00
   11    3    5      0.49      0.00
   12    3    5      1.98      0.00
   13    3    5     -1.39      0.00
   14    3    5      1.52      0.00
   15    3    5     -1.15      0.00
   16    3    5      0.72      0.00
  -14    4    5      0.51      0.00
  -13    4    5     -0.30      0.00
  -12    4    5     -0.18      0.00
  -11    4    5      0.96      0.00
  -10    4    5      0.57      0.00
   -9    4    5     -1.58      0.00
   -8    4    5     -0.38      0.00
   -7    4    5     -0.81      0.00
   -6    4    5      2.87      0.00
   -5    4    5      4.89      0.00
   -4    4    5     -3.75      0.00
   -3    4    5      1.99      0.00
   -2    4    5    -10.58      0.00
    0    4    5     -5.82      0.00
    1    4    5      8.04      0.00
    2    4    5    -12.10      0.00
    3    4    5      2.44      0.00
    4    4    5     -0.44      0.00
    5    4    5      5.68      0.00
    6    4    5      3.05      0.00
    7    4    5     -5.40      0.00
    8    4    5     21.87      0.00
    9    4    5     -6.11      0.00
   10    4    5      1.98      0.00
   11    4    5     -0.56      0.00
   12    4    5     -2.13      0.00
   14    4    5     -0.69      0.00
   15    4    5      1.58      0.00
   16    4    5      0.25      0.00
  -13    5    5     -0.44      0.00
  -12    5    5     -1.12      0.00
  -11    5    5      0.08      0.00
  -10    5    5      0.52      0.00
   -9    5    5      3.84      0.00
   -8    5    5     -5.55      0.00
   -7    5    5      1.67      0.00
   -6    5    5     -2.24      0.00
   -5    5    5      5.44      0.00
   -3    5    5      3.51      0.00
   -2    5    5     -2.86      0.00
   -1    5    5     -0.91      0.00
    0    5    5      7.22      0.00
    1    5    5     11.87      0.00
    2    5    5      6.61      0.00
    3    5    5     -4.37      0.00
    4    5    5     10.33      0.00
    5    5    5      3.77      0.00
    6    5    5     -1.35      0.00
    7    5    5      5.33      0.00
    8    5    5    -12.52      0.00
   10    5    5     -4.80      0.00
   11    5    5     -2.94      0.00
   12    5    5      3.45      0.00
   13    5    5     -2.11      0.00
   14    5    5      0.02      0.00
   15    5    5     -1.31      0.00
   16    5    5      0.13      0.00
  -13    6    5      1.50      0.00
  -12    6    5      0.25      0.00
  -11    6    5      0.76      0.00
  -10    6    5      0.45      0.00
   -9    6    5     -0.87      0.00
   -8    6    5      2.67      0.00
   -7    6    5     -3.72      0.00
   -6    6    5      2.19      0.00
   -4    6    5      6.52      0.00
   -3    6    5     -1.37      0.00
   -2    6    5      9.46      0.00
   -1    6    5     -9.00      0.00
    0    6    5      5.09      0.00
    1    6    5     -6.80      0.00
    2    6    5      0.16      0.00
    3    6    5    -10.64      0.00
    4    6    5     -6.24      0.00
    5    6    5      7.40      0.00
    6    6    5      5.07      0.00
    7    6    5     -3.10      0.00
    8    6    5     -3.22      0.00
    9    6    5     -4.36      0.00
   10    6    5      1.55      0.00
   11    6    5      1.41      0.00
   12    6    5     -1.73      0.00
   13    6    5      2.03      0.00
   14    6    5      0.79      0.00
   15    6    5     -0.02      0.00
   16    6    5      0.89      0.00
  -13    7    5     -0.09      0.00
  -12    7    5     -0.01      0.00
  -11    7    5     -0.54      0.00
  -10    7    5     -0.67      0.00
   -9    7    5     -2.09      0.00
   -8    7    5     -0.64      0.00
   -7    7    5     -1.25      0.00
   -6    7    5      3.82      0.00
   -5    7    5     -3.12      0.00
   -4    7    5      1.84      0.00
   -3    7    5     -3.83      0.00
   -2    7    5     -0.86      0.00
   -1    7    5      4.11      0.00
    0    7    5     -4.79      0.00
    1    7    5     -2.75      0.00
    3    7    5     -3.65      0.00
    4    7    5      0.15      0.00
    5    7    5      2.21      0.00
    6    7    5      6.60      0.00
    7    7    5      3.25      0.00
    8    7    5     -3.82      0.00
    9    7    5     -5.65      0.00
   10    7    5      0.26      0.00
   11    7    5     -0.41      0.00
   12    7    5     -0.49      0.00
   13    7    5      0.76      0.00
   14    7    5     -1.14      0.00
   15    7    5      0.10      0.00
  -12    8    5      2.91      0.00
  -11    8    5      0.06      0.00
  -10    8    5      2.24      0.00
   -9    8    5      0.42      0.00
   -8    8    5     -0.66      0.00
   -7    8    5      3.64      0.00
   -6    8    5     -3.89      0.00
   -5    8    5      6.46      0.00
   -4    8    5     -2.33      0.00
   -3    8    5      4.86      0.00
   -2    8    5      0.65      0.00
   -1    8    5      8.46      0.00
    1    8    5      6.66      0.00
    2    8    5    -10.09      0.00
    3    8    5     -0.06      0.00
    4    8    5     -7.49      0.00
    5    8    5      1.51      0.00
    6    8    5      5.02      0.00
    7    8    5      5.18      0.00
    8    8    5      2.73      0.00
    9    8    5     -3.84      0.00
   10    8    5     -0.74      0.00
   11    8    5     -0.59      0.00
   12    8    5      0.91      0.00
   13    8    5      0.65      0.00
   14    8    5      1.17      0.00
   15    8    5     -0.34      0.00
  -11    9    5      0.80      0.00
  -10    9    5     -1.62      0.00
   -9    9    5      2.32      0.00
   -8    9    5     -0.31      0.00
   -7    9    5     -1.59      0.00
   -6    9    5      2.43      0.00
   -5    9    5     -2.00      0.00
   -4    9    5      4.23      0.00
   -3    9    5      1.22      0.00
   -2    9    5     -2.96      0.00
   -1    9    5     -0.59      0.00
    1    9    5     10.87      0.00
    2    9    5      1.81      0.00
    3    9    5     -4.12      0.00
    4    9    5     -1.82      0.00
    5    9    5     -3.98      0.00
    6    9    5      3.31      0.00
    7    9    5      4.67      0.00
    8    9    5      2.29      0.00
    9    9    5     -3.14      0.00
   10    9    5     -2.16      0.00
   11    9    5     -1.66      0.00
   12    9    5     -1.00      0.00
   13    9    5     -1.06      0.00
   14    9    5      2.17      0.00
   15    9    5      0.50      0.00
  -11   10    5      1.36      0.00
  -10   10    5      0.50      0.00
   -9   10    5     -0.26      0.00
   -8   10    5      0.90      0.00
   -7   10    5     -0.32      0.00
   -6   10    5     -0.38      0.00
   -5   10    5      0.24      0.00
   -4   10    5      3.14      0.00
   -3   10    5     -0.09      0.00
   -2   10    5      4.77      0.00
   -1   10    5     -5.22      0.00
    0   10    5      0.19      0.00
    1   10    5    -10.61      0.00
    2   10    5      7.21      0.00
    3   10    5     -4.74      0.00
    4   10    5     -0.98      0.00
    5   10    5     -1.15      0.00
    6   10    5     -2.06      0.00
    7   10    5      3.07      0.00
    8   10    5      3.57      0.00
    9   10    5      2.47      0.00
   10   10    5     -2.80      0.00
   11   10    5      1.15      0.00
   12   10    5     -1.94      0.00
   13   10    5     -0.46      0.00
   14   10    5      0.12      0.00
  -10   11    5      0.93      0.00
   -9   11    5     -1.86      0.00
   -8   11    5      0.35      0.00
   -7   11    5     -0.16      0.00
   -6   11    5     -0.04      0.00
   -5   11    5      0.62      0.00
   -4   11    5     -3.31      0.00
   -3   11    5      4.21      0.00
   -2   11    5     -2.08      0.00
   -1   11    5      2.17      0.00
    0   11    5     -2.11      0.00
    1   11    5     -2.50      0.00
    2   11    5      0.18      0.00
    3   11    5      2.33      0.00
    4   11    5     -0.69      0.00
    5   11    5     -1.03      0.00
    6   11    5     -2.24      0.00
    7   11    5      1.64      0.00
    8   11    5      4.71      0.00
    9   11    5      3.06      0.00
   10   11    5     -0.43      0.00
   11   11    5     -1.84      0.00
   12   11    5      0.20      0.00
   13   11    5     -0.88      0.00
   14   11    5     -1.74      0.00
   -9   12    5      2.07      0.00
   -8   12    5      0.19      0.00
   -7   12    5      2.07      0.00
   -6   12    5      0.73      0.00
   -5   12    5      0.00      0.00
   -4   12    5      3.06      0.00
   -3   12    5     -1.14      0.00
   -2   12    5      2.22      0.00
   -1   12    5      1.38      0.00
    0   12    5     -0.87      0.00
    1   12    5     -1.05      0.00
    2   12    5     -4.96      0.00
    3   12    5      1.26      0.00
    4   12    5     -0.87      0.00
    5   12    5      0.31      0.00
    6   12    5     -0.29      0.00
    7   12    5     -3.43      0.00
    8   12    5      3.13      0.00
    9   12    5      1.97      0.00
   10   12    5      1.11      0.00
   11   12    5     -0.54      0.00
   12   12    5      0.42      0.00
   13   12    5      0.24      0.00
   -8   13    5     -0.32      0.00
   -7   13    5     -0.77      0.00
   -6   13    5      1.07      0.00
   -5   13    5      0.73      0.00
   -4   13    5     -0.21      0.00
   -3   13    5      0.93      0.00
   -2   13    5      0.54      0.00
   -1   13    5     -0.45      0.00
    0   13    5      3.99      0.00
    1   13    5     -1.90      0.00
    2   13    5     -0.65      0.00
    3   13    5     -4.13      0.00
    4   13    5      1.21      0.00
    5   13    5     -0.84      0.00
    6   13    5      0.28      0.00
    7   13    5     -1.75      0.00
    8   13    5     -3.77      0.00
    9   13    5      3.93      0.00
   10   13    5      0.20      0.00
   11   13    5      0.45      0.00
   12   13    5     -0.64      0.00
   -6   14    5      0.07      0.00
   -5   14    5      1.62      0.00
   -4   14    5      0.57      0.00
   -3   14    5      1.36      0.00
   -2   14    5     -0.41      0.00
   -1   14    5      0.67      0.00
    0   14    5      0.22      0.00
    1   14    5      2.04      0.00
    2   14    5     -4.64      0.00
    3   14    5      0.47      0.00
    4   14    5     -3.02      0.00
    5   14    5      2.33      0.00
    6   14    5     -0.61      0.00
    7   14    5      0.10      0.00
    8   14    5     -2.36      0.00
    9   14    5     -1.20      0.00
   10   14    5      2.65      0.00
   11   14    5      0.14      0.00
   -5   15    5     -0.11      0.00
   -4   15    5      0.42      0.00
   -3   15    5      0.26      0.00
   -2   15    5      1.66      0.00
   -1   15    5      0.42      0.00
    0   15    5      0.30      0.00
    1   15    5      1.67      0.00
    2   15    5     -0.24      0.00
    3   15    5     -1.91      0.00
    4   15    5     -2.13      0.00
    5   15    5      0.74      0.00
    6   15    5     -0.14      0.00
    7   15    5      0.82      0.00
    8   15    5      0.93      0.00
    9   15    5     -1.89      0.00
    1   16    5      0.72      0.00
    2   16    5      0.45      0.00
    3   16    5     -2.76      0.00
    4   16    5      0.48      0.00
    5   16    5     -4.03      0.00
    0  -12    6      0.47      0.00
    1  -12    6      0.05      0.00
    2  -12    6     -2.05      0.00
    3  -12    6     -3.67      0.00
   -4  -11    6      1.26      0.00
   -3  -11    6      0.12      0.00
   -2  -11    6     -2.18      0.00
   -1  -11    6     -0.96      0.00
    0  -11    6      0.42      0.00
    1  -11    6     -0.56      0.00
    2  -11    6      0.98      0.00
    3  -11    6     -2.74      0.00
   -7  -10    6      2.60      0.00
   -6  -10    6     -0.75      0.00
   -5  -10    6     -0.92      0.00
   -4  -10    6     -3.96      0.00
   -3  -10    6      1.26      0.00
   -2  -10    6     -2.98      0.00
   -1  -10    6      0.52      0.00
    0  -10    6      0.06      0.00
    1  -10    6      0.96      0.00
    2  -10    6     -1.23      0.00
    3  -10    6     -2.65      0.00
   -9   -9    6      3.88      0.00
   -8   -9    6      0.47      0.00
   -7   -9    6      2.72      0.00
   -6   -9    6      3.65      0.00
   -5   -9    6     -0.55      0.00
   -4   -9    6      1.97      0.00
   -3   -9    6     -1.07      0.00
   -2   -9    6      3.88      0.00
   -1   -9    6     -3.67      0.00
    0   -9    6      0.97      0.00
    1   -9    6     -0.46      0.00
    2   -9    6     -2.87      0.00
    3   -9    6      1.93      0.00
    4   -9    6     -0.93      0.00
    6   -9    6     -1.33      0.00
    7   -9    6     -1.98      0.00
    8   -9    6      2.24      0.00
    9   -9    6     -1.30      0.00
  -10   -8    6     -0.20      0.00
   -8   -8    6      1.38      0.00
   -7   -8    6     -2.38      0.00
   -6   -8    6     -0.95      0.00
   -5   -8    6      0.44      0.00
   -4   -8    6      0.58      0.00
   -3   -8    6     -1.15      0.00
   -2   -8    6      1.69      0.00
   -1   -8    6      1.68      0.00
    0   -8    6     -3.49      0.00
    1   -8    6      1.34      0.00
    2   -8    6      2.97      0.00
    3   -8    6     -3.05      0.00
    4   -8    6      1.85      0.00
    5   -8    6     -1.37      0.00
    6   -8    6      1.24      0.00
    7   -8    6     -1.16      0.00
    8   -8    6      0.70      0.00
    9   -8    6      2.54      0.00
   10   -8    6     -0.26      0.00
  -11   -7    6     -0.34      0.00
  -10   -7    6      0.85      0.00
   -9   -7    6      0.05      0.00
   -8   -7    6      2.33      0.00
   -7   -7    6     -0.45      0.00
   -6   -7    6      0.93      0.00
   -5   -7    6     -2.79      0.00
   -4   -7    6      0.92      0.00
   -3   -7    6      3.69      0.00
   -2   -7    6     -4.09      0.00
   -1   -7    6      2.28      0.00
    0   -7    6     -0.31      0.00
    1   -7    6     -0.55      0.00
    2   -7    6      0.92      0.00
    3   -7    6      3.10      0.00
    4   -7    6     -2.31      0.00
    5   -7    6      0.71      0.00
    6   -7    6     -0.95      0.00
    7   -7    6      0.98      0.00
    8   -7    6     -0.57      0.00
    9   -7    6      2.01      0.00
   10   -7    6     -0.53      0.00
   11   -7    6      0.33      0.00
  -11   -6    6      0.38      0.00
  -10   -6    6      1.92      0.00
   -9   -6    6      2.50      0.00
   -8   -6    6     -1.69      0.00
   -7   -6    6      1.63      0.00
   -6   -6    6     -2.51      0.00
   -5   -6    6      0.45      0.00
   -4   -6    6     -3.57      0.00
   -3   -6    6      1.93      0.00
   -2   -6    6      2.69      0.00
   -1   -6    6     -3.02      0.00
    0   -6    6      2.91      0.00
    1   -6    6     -2.82      0.00
    2   -6    6     -2.30      0.00
    3   -6    6     -2.39      0.00
    4   -6    6     -0.50      0.00
    5   -6    6      1.05      0.00
    6   -6    6     -0.24      0.00
    7   -6    6      0.99      0.00
    8   -6    6     -0.31      0.00
    9   -6    6      1.24      0.00
   10   -6    6      1.96      0.00
   11   -6    6     -2.23      0.00
   12   -6    6     -0.25      0.00
  -11   -5    6      0.34      0.00
  -10   -5    6      1.93      0.00
   -9   -5    6      2.58      0.00
   -8   -5    6      1.49      0.00
   -7   -5    6     -0.27      0.00
   -6   -5    6     -0.24      0.00
   -5   -5    6     -3.34      0.00
   -4   -5    6     -1.25      0.00
   -3   -5    6      1.70      0.00
   -2   -5    6      2.58      0.00
   -1   -5    6      3.92      0.00
    0   -5    6      1.17      0.00
    1   -5    6      0.83      0.00
    2   -5    6     -0.81      0.00
    3   -5    6     -0.48      0.00
    4   -5    6      2.64      0.00
    5   -5    6     -3.50      0.00
    6   -5    6      3.63      0.00
    7   -5    6     -0.69      0.00
    8   -5    6      3.32      0.00
    9   -5    6      0.27      0.00
   10   -5    6      0.61      0.00
   11   -5    6      0.45      0.00
   12   -5    6     -0.74      0.00
   13   -5    6      0.05      0.00
  -13   -4    6     -1.11      0.00
  -12   -4    6     -0.38      0.00
  -11   -4    6     -0.10      0.00
  -10   -4    6      0.77      0.00
   -9   -4    6      0.80      0.00
   -8   -4    6      2.77      0.00
   -7   -4    6     -2.07      0.00
   -6   -4    6      0.26      0.00
   -5   -4    6     -1.80      0.00
   -4   -4    6     -3.36      0.00
   -3   -4    6     -3.10      0.00
   -2   -4    6      7.81      0.00
   -1   -4    6     -0.32      0.00
    0   -4    6      1.67      0.00
    1   -4    6      5.56      0.00
    2   -4    6     -1.43      0.00
    3   -4    6     -0.29      0.00
    4   -4    6     -4.08      0.00
    5   -4    6      3.00      0.00
    6   -4    6     -3.68      0.00
    7   -4    6      2.00      0.00
    8   -4    6      1.22      0.00
    9   -4    6      0.97      0.00
   10   -4    6     -0.83      0.00
   11   -4    6     -0.97      0.00
   12   -4    6     -2.24      0.00
   13   -4    6      0.26      0.00
  -13   -3    6     -1.53      0.00
  -12   -3    6     -2.27      0.00
  -11   -3    6     -0.61      0.00
  -10   -3    6     -0.96      0.00
   -9   -3    6      1.03      0.00
   -8   -3    6     -1.16      0.00
   -7   -3    6      1.25      0.00
   -6   -3    6     -1.92      0.00
   -5   -3    6     -0.26      0.00
   -4   -3    6     -4.94      0.00
   -3   -3    6     -1.35      0.00
   -2   -3    6     -3.50      0.00
   -1   -3    6      4.85      0.00
    0   -3    6     -2.08      0.00
    1   -3    6     -0.50      0.00
    2   -3    6      4.43      0.00
    3   -3    6     -0.90      0.00
    4   -3    6     -0.23      0.00
    5   -3    6     -4.98      0.00
    6   -3    6     -2.36      0.00
    7   -3    6      0.91      0.00
    8   -3    6     -1.59      0.00
    9   -3    6      4.35      0.00
   10   -3    6      1.11      0.00
   11   -3    6     -0.25      0.00
   12   -3    6     -0.09      0.00
   13   -3    6     -1.70      0.00
   14   -3    6     -0.08      0.00
  -13   -2    6     -0.97      0.00
  -12   -2    6      0.43      0.00
  -11   -2    6     -0.92      0.00
  -10   -2    6     -0.57      0.00
   -9   -2    6      1.82      0.00
   -8   -2    6     -0.59      0.00
   -7   -2    6      1.39      0.00
   -6   -2    6     -0.28      0.00
   -5   -2    6     -1.05      0.00
   -4   -2    6     -2.43      0.00
   -3   -2    6      1.10      0.00
   -2   -2    6      3.53      0.00
   -1   -2    6      3.57      0.00
    0   -2    6      0.14      0.00
    1   -2    6     -1.39      0.00
    2   -2    6     -5.71      0.00
    3   -2    6      3.65      0.00
    4   -2    6     -2.80      0.00
    5   -2    6     -1.28      0.00
    6   -2    6      1.17      0.00
    7   -2    6     -5.55      0.00
    8   -2    6      5.86      0.00
    9   -2    6     -0.85      0.00
   10   -2    6      4.65      0.00
   11   -2    6      0.38      0.00
   12   -2    6     -1.46      0.00
   13   -2    6     -1.64      0.00
   14   -2    6     -1.65      0.00
  -12   -1    6     -0.68      0.00
  -11   -1    6      1.07      0.00
  -10   -1    6      2.32      0.00
   -9   -1    6     -4.07      0.00
   -8   -1    6      3.61      0.00
   -7   -1    6     -2.92      0.00
   -6   -1    6      0.16      0.00
   -5   -1    6      0.77      0.00
   -4   -1    6      2.33      0.00
   -3   -1    6     -1.13      0.00
   -2   -1    6      3.59      0.00
   -1   -1    6     -1.65      0.00
    0   -1    6     -0.77      0.00
    1   -1    6     -3.01      0.00
    2   -1    6      8.76      0.00
    3   -1    6     -4.98      0.00
    4   -1    6      9.48      0.00
    5   -1    6     -0.88      0.00
    6   -1    6     -4.27      0.00
    7   -1    6      5.22      0.00
    8   -1    6     -5.21      0.00
    9   -1    6      1.98      0.00
   10   -1    6     -0.24      0.00
   11   -1    6      1.75      0.00
   12   -1    6      1.01      0.00
   13   -1    6     -1.63      0.00
   14   -1    6     -0.76      0.00
   15   -1    6      0.09      0.00
  -10    0    6     -0.92      0.00
   -9    0    6      0.49      0.00
   -8    0    6     -4.35      0.00
   -7    0    6     -1.12      0.00
   -6    0    6     -4.21      0.00
   -5    0    6     -1.93      0.00
   -4    0    6      0.76      0.00
   -3    0    6      1.99      0.00
   -1    0    6      3.82      0.00
    0    0    6      0.28      0.00
    1    0    6     -5.28      0.00
    3    0    6     -4.03      0.00
    4    0    6     -7.22      0.00
    5    0    6      0.42      0.00
    6    0    6     -2.55      0.00
    7    0    6     -4.03      0.00
    8    0    6      1.46      0.00
    9    0    6     -0.53      0.00
   10    0    6     -0.81      0.00
   11    0    6      3.30      0.00
   12    0    6      0.24      0.00
   13    0    6      0.71      0.00
   14    0    6     -1.32      0.00
   15    0    6     -1.17      0.00
  -11    1    6     -0.34      0.00
  -10    1    6     -0.95      0.00
   -9    1    6      0.66      0.00
   -8    1    6     -0.15      0.00
   -7    1    6     -0.79      0.00
   -6    1    6     -1.35      0.00
   -5    1    6     -1.70      0.00
   -4    1    6      3.70      0.00
   -3    1    6     -1.01      0.00
   -2    1    6      4.94      0.00
   -1    1    6      4.90      0.00
    0    1    6      1.50      0.00
    1    1    6     -7.96      0.00
    2    1    6     -8.91      0.00
    3    1    6     -3.14      0.00
    5    1    6      6.55      0.00
    6    1    6      1.29      0.00
    7    1    6     -4.27      0.00
    8    1    6      0.68      0.00
    9    1    6     -2.55      0.00
   10    1    6      3.44      0.00
   11    1    6     -1.85      0.00
   12    1    6      3.38      0.00
   13    1    6      0.13      0.00
   14    1    6     -2.23      0.00
   15    1    6     -0.42      0.00
  -12    2    6     -0.40      0.00
  -11    2    6     -1.65      0.00
  -10    2    6      1.03      0.00
   -9    2    6      1.54      0.00
   -8    2    6      2.46      0.00
   -7    2    6      0.55      0.00
   -6    2    6      2.08      0.00
   -5    2    6     -1.86      0.00
   -4    2    6     -1.34      0.00
   -3    2    6      2.75      0.00
   -1    2    6      8.70      0.00
    0    2    6     -3.96      0.00
    1    2    6     13.10      0.00
    2    2    6      2.22      0.00
    3    2    6      5.13      0.00
    4    2    6      8.74      0.00
    6    2    6      7.74      0.00
    7    2    6     -1.29      0.00
    8    2    6     -0.95      0.00
    9    2    6      4.94      0.00
   10    2    6     -1.45      0.00
   11    2    6      4.53      0.00
   12    2    6     -0.73      0.00
   13    2    6      0.58      0.00
   14    2    6      0.75      0.00
   15    2    6     -3.57      0.00
   16    2    6      0.37      0.00
  -14    3    6      1.06      0.00
  -13    3    6      1.79      0.00
  -12    3    6     -1.08      0.00
  -11    3    6      1.24      0.00
  -10    3    6     -1.94      0.00
   -9    3    6      0.16      0.00
   -8    3    6      0.84      0.00
   -7    3    6      1.40      0.00
   -6    3    6     -3.28      0.00
   -5    3    6      3.69      0.00
   -4    3    6     -5.22      0.00
   -3    3    6      0.17      0.00
   -2    3    6      4.19      0.00
   -1    3    6      7.48      0.00
    0    3    6      9.23      0.00
    1    3    6     -2.01      0.00
    2    3    6      0.84      0.00
    3    3    6     -1.52      0.00
    4    3    6     -2.62      0.00
    5    3    6      7.82      0.00
    6    3    6     -3.41      0.00
    7    3    6     -1.83      0.00
    9    3    6     -2.84      0.00
   10    3    6      2.17      0.00
   11    3    6     -2.17      0.00
   12    3    6      0.83      0.00
   13    3    6      0.32      0.00
   14    3    6     -1.33      0.00
   15    3    6      0.08      0.00
   16    3    6     -2.65      0.00
  -13    4    6      0.61      0.00
  -12    4    6      0.32      0.00
  -11    4    6     -0.74      0.00
  -10    4    6     -0.50      0.00
   -9    4    6     -0.35      0.00
   -8    4    6     -0.94      0.00
   -7    4    6      2.46      0.00
   -6    4    6      1.78      0.00
   -5    4    6      0.14      0.00
   -4    4    6      2.15      0.00
   -3    4    6     -8.44      0.00
   -2    4    6      0.06      0.00
   -1    4    6     -9.91      0.00
    0    4    6      3.31      0.00
    1    4    6    -11.41      0.00
    2    4    6     -0.65      0.00
    3    4    6     -1.79      0.00
    4    4    6      4.17      0.00
    5    4    6     -6.50      0.00
    6    4    6      0.88      0.00
    7    4    6     -0.14      0.00
    8    4    6    -10.21      0.00
    9    4    6      0.50      0.00
   10    4    6     -1.20      0.00
   11    4    6     -0.31      0.00
   12    4    6     -0.25      0.00
   13    4    6     -0.54      0.00
   14    4    6      1.49      0.00
   15    4    6     -1.01      0.00
   16    4    6     -0.35      0.00
  -12    5    6      1.64      0.00
  -11    5    6      0.38      0.00
  -10    5    6      1.58      0.00
   -9    5    6     -1.36      0.00
   -8    5    6      3.45      0.00
   -7    5    6     -1.48      0.00
   -6    5    6      4.21      0.00
   -5    5    6     -3.83      0.00
   -4    5    6      4.24      0.00
   -2    5    6     -1.72      0.00
    0    5    6     14.07      0.00
    1    5    6      6.45      0.00
    3    5    6      5.72      0.00
    4    5    6      3.03      0.00
    5    5    6      1.19      0.00
    6    5    6      0.84      0.00
    7    5    6     -2.25      0.00
    8    5    6      2.06      0.00
    9    5    6     -7.89      0.00
   10    5    6     -0.65      0.00
   11    5    6      3.45      0.00
   12    5    6     -0.50      0.00
   13    5    6     -0.29      0.00
   14    5    6     -2.52      0.00
   15    5    6      0.41      0.00
   16    5    6     -1.30      0.00
  -13    6    6      0.80      0.00
  -12    6    6     -0.47      0.00
  -11    6    6     -0.12      0.00
  -10    6    6     -0.57      0.00
   -9    6    6     -0.39      0.00
   -8    6    6     -2.69      0.00
   -7    6    6      2.79      0.00
   -6    6    6     -0.23      0.00
   -3    6    6      0.79      0.00
   -2    6    6     -0.39      0.00
   -1    6    6     -1.29      0.00
    0    6    6    -11.27      0.00
    1    6    6      3.93      0.00
    2    6    6    -15.23      0.00
    3    6    6      1.33      0.00
    4    6    6     -0.65      0.00
    5    6    6      1.73      0.00
    6    6    6     -5.01      0.00
    7    6    6      3.52      0.00
    8    6    6     -0.45      0.00
    9    6    6     -3.24      0.00
   10    6    6     -0.54      0.00
   11    6    6     -0.18      0.00
   12    6    6      2.41      0.00
   13    6    6      0.48      0.00
   14    6    6      0.51      0.00
   15    6    6     -0.76      0.00
   16    6    6      0.35      0.00
  -12    7    6     -0.05      0.00
  -11    7    6     -0.38      0.00
  -10    7    6     -1.80      0.00
   -9    7    6     -0.14      0.00
   -8    7    6      0.12      0.00
   -7    7    6      1.56      0.00
   -6    7    6      2.16      0.00
   -5    7    6      2.51      0.00
   -4    7    6     -3.34      0.00
   -3    7    6      0.95      0.00
   -2    7    6      3.92      0.00
   -1    7    6      2.64      0.00
    0    7    6      5.47      0.00
    1    7    6      2.27      0.00
    2    7    6      2.02      0.00
    3    7    6      1.45      0.00
    4    7    6      8.01      0.00
    5    7    6      2.91      0.00
    6    7    6     -0.17      0.00
    7    7    6     -6.27      0.00
    8    7    6      3.44      0.00
    9    7    6      0.11      0.00
   10    7    6     -0.26      0.00
   11    7    6     -1.33      0.00
   12    7    6      1.46      0.00
   13    7    6      0.26      0.00
   14    7    6     -0.86      0.00
   15    7    6     -1.08      0.00
  -12    8    6     -0.53      0.00
  -11    8    6     -0.42      0.00
  -10    8    6     -0.12      0.00
   -9    8    6     -0.37      0.00
   -8    8    6      1.18      0.00
   -7    8    6     -0.37      0.00
   -6    8    6      1.36      0.00
   -5    8    6     -0.52      0.00
   -4    8    6      4.09      0.00
   -3    8    6     -2.80      0.00
   -2    8    6      1.41      0.00
   -1    8    6     -5.11      0.00
    0    8    6     -2.55      0.00
    1    8    6     -3.85      0.00
    2    8    6      8.18      0.00
    3    8    6     -2.40      0.00
    4    8    6      2.85      0.00
    5    8    6      4.22      0.00
    6    8    6      3.53      0.00
    7    8    6     -2.01      0.00
    8    8    6     -3.63      0.00
    9    8    6      4.03      0.00
   10    8    6     -1.44      0.00
   11    8    6      2.68      0.00
   12    8    6      1.13      0.00
   13    8    6      1.22      0.00
   14    8    6      1.16      0.00
   15    8    6      0.46      0.00
  -11    9    6     -1.87      0.00
  -10    9    6     -0.68      0.00
   -9    9    6     -1.61      0.00
   -8    9    6      0.17      0.00
   -7    9    6      0.07      0.00
   -6    9    6     -1.28      0.00
   -5    9    6      1.90      0.00
   -4    9    6     -0.25      0.00
   -3    9    6      0.26      0.00
   -2    9    6     -2.34      0.00
   -1    9    6     -3.53      0.00
    0    9    6     -5.20      0.00
    1    9    6     -7.44      0.00
    2    9    6     -1.27      0.00
    3    9    6      1.20      0.00
    4    9    6     -2.92      0.00
    5    9    6      4.00      0.00
    6    9    6      1.10      0.00
    7    9    6      3.93      0.00
    8    9    6     -4.45      0.00
    9    9    6     -0.45      0.00
   10    9    6      2.01      0.00
   11    9    6      0.72      0.00
   12    9    6      1.23      0.00
   13    9    6      0.87      0.00
   14    9    6      0.82      0.00
   15    9    6      0.07      0.00
  -11   10    6      1.28      0.00
  -10   10    6     -1.24      0.00
   -9   10    6     -0.38      0.00
   -8   10    6     -3.28      0.00
   -7   10    6      0.66      0.00
   -6   10    6      1.44      0.00
   -5   10    6      0.00      0.00
   -4   10    6      1.13      0.00
   -3   10    6      0.00      0.00
   -2   10    6     -1.98      0.00
   -1   10    6      3.90      0.00
    0   10    6     -3.35      0.00
    1   10    6     -0.75      0.00
    2   10    6     -9.36      0.00
    3   10    6      1.31      0.00
    4   10    6      4.07      0.00
    5   10    6     -1.14      0.00
    6   10    6      6.32      0.00
    7   10    6     -0.60      0.00
    8   10    6      0.22      0.00
    9   10    6     -4.55      0.00
   10   10    6      1.02      0.00
   11   10    6     -0.03      0.00
   12   10    6      0.35      0.00
   13   10    6      1.94      0.00
   14   10    6     -0.71      0.00
  -10   11    6     -0.10      0.00
   -9   11    6     -0.68      0.00
   -8   11    6      1.33      0.00
   -7   11    6     -0.55      0.00
   -6   11    6      0.93      0.00
   -5   11    6      1.33      0.00
   -4   11    6      0.69      0.00
   -3   11    6     -1.18      0.00
   -2   11    6     -0.92      0.00
   -1   11    6     -3.07      0.00
    0   11    6      2.08      0.00
    1   11    6      3.28      0.00
    2   11    6     -2.12      0.00
    3   11    6     -2.33      0.00
    4   11    6     -2.18      0.00
    5   11    6      2.29      0.00
    6   11    6      0.61      0.00
    7   11    6      4.19      0.00
    8   11    6      0.22      0.00
    9   11    6     -4.27      0.00
   10   11    6     -3.52      0.00
   11   11    6      0.30      0.00
   12   11    6      0.68      0.00
   13   11    6      1.47      0.00
   14   11    6      1.37      0.00
   -9   12    6      1.29      0.00
   -8   12    6      0.30      0.00
   -7   12    6      0.39      0.00
   -6   12    6      0.07      0.00
   -5   12    6      1.03      0.00
   -4   12    6      1.20      0.00
   -3   12    6      1.38      0.00
   -2   12    6     -1.45      0.00
   -1   12    6     -0.76      0.00
    0   12    6      0.32      0.00
    1   12    6      0.16      0.00
    2   12    6      5.57      0.00
    3   12    6     -2.96      0.00
    4   12    6     -0.32      0.00
    5   12    6      1.43      0.00
    6   12    6      0.77      0.00
    7   12    6      3.35      0.00
    8   12    6     -0.78      0.00
    9   12    6     -1.00      0.00
   10   12    6     -5.96      0.00
   11   12    6     -1.30      0.00
   12   12    6     -0.57      0.00
   13   12    6     -0.15      0.00
   -8   13    6     -0.84      0.00
   -7   13    6     -0.33      0.00
   -6   13    6     -0.84      0.00
   -5   13    6      0.15      0.00
   -4   13    6      0.19      0.00
   -3   13    6     -0.42      0.00
   -2   13    6     -0.82      0.00
   -1   13    6     -1.01      0.00
    0   13    6     -0.87      0.00
    1   13    6      0.99      0.00
    2   13    6      0.03      0.00
    3   13    6      2.37      0.00
    4   13    6     -1.79      0.00
    5   13    6     -0.74      0.00
    6   13    6      1.85      0.00
    7   13    6     -0.39      0.00
    8   13    6      3.89      0.00
    9   13    6     -1.90      0.00
   10   13    6      0.17      0.00
   11   13    6     -2.58      0.00
   12   13    6      0.44      0.00
   -6   14    6      1.38      0.00
   -5   14    6     -0.34      0.00
   -4   14    6      0.63      0.00
   -3   14    6     -0.10      0.00
   -2   14    6     -1.39      0.00
   -1   14    6     -0.15      0.00
    0   14    6     -1.76      0.00
    1   14    6     -2.20      0.00
    2   14    6      1.95      0.00
    3   14    6      0.72      0.00
    4   14    6      3.54      0.00
    5   14    6     -1.14      0.00
    6   14    6      0.53      0.00
    7   14    6      2.16      0.00
    8   14    6      0.58      0.00
    9   14    6      2.01      0.00
   10   14    6     -0.84      0.00
   11   14    6     -0.80      0.00
   -4   15    6     -0.36      0.00
   -3   15    6      0.56      0.00
   -2   15    6      0.81      0.00
   -1   15    6     -3.27      0.00
    0   15    6     -0.12      0.00
    1   15    6     -1.61      0.00
    2   15    6     -1.61      0.00
    3   15    6      2.25      0.00
    4   15    6      1.34      0.00
    5   15    6     -0.41      0.00
    6   15    6     -0.29      0.00
    7   15    6     -0.47      0.00
    8   15    6      0.58      0.00
    9   15    6      1.20      0.00
    0   16    6     -1.41      0.00
    1   16    6     -1.23      0.00
    2   16    6      0.23      0.00
    3   16    6     -0.54      0.00
    4   16    6      1.01      0.00
    5   16    6      2.95      0.00
    6   16    6     -1.92      0.00
    7   16    6      1.00      0.00
   -1  -11    7      0.79      0.00
    0  -11    7     -1.17      0.00
    1  -11    7      1.95      0.00
    2  -11    7     -1.37      0.00
   -5  -10    7     -1.47      0.00
   -4  -10    7     -1.07      0.00
   -3  -10    7      0.44      0.00
   -2  -10    7     -0.59      0.00
   -1  -10    7      1.95      0.00
    0  -10    7      1.67      0.00
    1  -10    7     -0.85      0.00
    2  -10    7      0.73      0.00
    3  -10    7      0.25      0.00
   -7   -9    7     -0.06      0.00
   -6   -9    7     -0.91      0.00
   -5   -9    7      0.79      0.00
   -4   -9    7      3.67      0.00
   -3   -9    7      1.75      0.00
   -2   -9    7      0.25      0.00
   -1   -9    7      0.70      0.00
    0   -9    7     -1.21      0.00
    1   -9    7     -2.34      0.00
    2   -9    7     -0.02      0.00
    3   -9    7     -1.13      0.00
    8   -9    7      0.01      0.00
   -9   -8    7     -0.33      0.00
   -8   -8    7     -3.43      0.00
   -7   -8    7      0.06      0.00
   -6   -8    7     -1.83      0.00
   -5   -8    7     -1.30      0.00
   -4   -8    7      0.41      0.00
   -3   -8    7      3.36      0.00
   -2   -8    7     -1.01      0.00
   -1   -8    7     -1.26      0.00
    0   -8    7      1.09      0.00
    1   -8    7      2.33      0.00
    2   -8    7     -0.71      0.00
    3   -8    7      2.88      0.00
    4   -8    7     -2.01      0.00
    5   -8    7      1.09      0.00
    6   -8    7     -0.36      0.00
    7   -8    7      0.17      0.00
    8   -8    7      0.62      0.00
    9   -8    7      0.34      0.00
  -10   -7    7      0.94      0.00
   -9   -7    7     -0.77      0.00
   -8   -7    7      0.52      0.00
   -7   -7    7     -1.18      0.00
   -6   -7    7      0.57      0.00
   -5   -7    7      0.12      0.00
   -4   -7    7     -0.09      0.00
   -3   -7    7     -1.16      0.00
   -2   -7    7      0.72      0.00
   -1   -7    7     -3.23      0.00
    0   -7    7     -0.08      0.00
    1   -7    7     -1.82      0.00
    2   -7    7      0.03      0.00
    3   -7    7     -2.81      0.00
    4   -7    7      0.54      0.00
    5   -7    7     -1.19      0.00
    6   -7    7      0.67      0.00
    7   -7    7     -0.23      0.00
    8   -7    7      0.39      0.00
    9   -7    7     -1.51      0.00
   10   -7    7      0.85      0.00
  -11   -6    7      1.01      0.00
  -10   -6    7      1.09      0.00
   -9   -6    7     -0.75      0.00
   -8   -6    7     -0.73      0.00
   -7   -6    7     -2.80      0.00
   -6   -6    7      1.09      0.00
   -5   -6    7     -1.98      0.00
   -4   -6    7      3.33      0.00
   -3   -6    7     -0.13      0.00
   -2   -6    7     -1.20      0.00
   -1   -6    7      0.25      0.00
    0   -6    7     -1.19      0.00
    1   -6    7      1.12      0.00
    2   -6    7      0.18      0.00
    3   -6    7     -0.08      0.00
    4   -6    7      1.25      0.00
    5   -6    7     -0.69      0.00
    6   -6    7      0.48      0.00
    7   -6    7     -0.96      0.00
    8   -6    7      0.57      0.00
    9   -6    7      1.28      0.00
   10   -6    7     -2.34      0.00
   11   -6    7      1.56      0.00
  -11   -5    7      2.29      0.00
  -10   -5    7     -0.35      0.00
   -9   -5    7      0.42      0.00
   -8   -5    7     -2.02      0.00
   -7   -5    7     -1.33      0.00
   -6   -5    7     -1.56      0.00
   -5   -5    7      2.06      0.00
   -4   -5    7     -0.55      0.00
   -3   -5    7      2.99      0.00
   -2   -5    7      0.91      0.00
   -1   -5    7     -1.20      0.00
    0   -5    7     -1.12      0.00
    1   -5    7      0.67      0.00
    2   -5    7     -0.49      0.00
    3   -5    7      4.95      0.00
    4   -5    7     -2.15      0.00
    5   -5    7      3.58      0.00
    6   -5    7     -2.68      0.00
    7   -5    7      1.97      0.00
    8   -5    7     -1.08      0.00
    9   -5    7     -0.54      0.00
   10   -5    7      1.14      0.00
   11   -5    7     -2.61      0.00
   12   -5    7      1.31      0.00
  -11   -4    7      1.19      0.00
  -10   -4    7      0.23      0.00
   -9   -4    7     -1.41      0.00
   -8   -4    7     -1.82      0.00
   -7   -4    7     -1.79      0.00
   -6   -4    7     -0.21      0.00
   -5   -4    7      0.09      0.00
   -4   -4    7     -0.37      0.00
   -3   -4    7      4.16      0.00
   -2   -4    7     -1.21      0.00
   -1   -4    7     -1.66      0.00
    0   -4    7      0.07      0.00
    1   -4    7     -2.49      0.00
    2   -4    7      1.10      0.00
    3   -4    7     -1.77      0.00
    4   -4    7      5.22      0.00
    5   -4    7     -3.76      0.00
    6   -4    7      2.56      0.00
    7   -4    7     -1.10      0.00
    8   -4    7      0.45      0.00
    9   -4    7     -0.16      0.00
   10   -4    7     -0.74      0.00
   11   -4    7     -0.01      0.00
   12   -4    7     -0.52      0.00
   13   -4    7     -0.72      0.00
  -11   -3    7     -0.59      0.00
  -10   -3    7      1.40      0.00
   -9   -3    7     -0.37      0.00
   -8   -3    7     -1.33      0.00
   -7   -3    7      0.64      0.00
   -6   -3    7     -1.11      0.00
   -5   -3    7     -2.18      0.00
   -4   -3    7      2.20      0.00
   -3   -3    7     -3.59      0.00
   -2   -3    7      4.24      0.00
   -1   -3    7     -0.32      0.00
    0   -3    7     -3.65      0.00
    1   -3    7     -0.63      0.00
    2   -3    7     -0.45      0.00
    3   -3    7     -1.39      0.00
    4   -3    7      0.52      0.00
    5   -3    7      1.45      0.00
    6   -3    7     -0.32      0.00
    7   -3    7     -0.67      0.00
    8   -3    7      2.41      0.00
    9   -3    7     -1.58      0.00
   10   -3    7      1.09      0.00
   11   -3    7      1.42      0.00
   12   -3    7     -0.03      0.00
   13   -3    7      1.66      0.00
   14   -3    7     -0.37      0.00
  -10   -2    7      1.25      0.00
   -9   -2    7     -1.24      0.00
   -8   -2    7      0.82      0.00
   -7   -2    7     -2.57      0.00
   -6   -2    7     -0.15      0.00
   -5   -2    7      0.49      0.00
   -4   -2    7     -5.21      0.00
   -3   -2    7      7.72      0.00
   -1   -2    7      2.06      0.00
    0   -2    7      0.28      0.00
    1   -2    7     -1.16      0.00
    2   -2    7     -0.91      0.00
    3   -2    7     -1.93      0.00
    4   -2    7     -1.74      0.00
    5   -2    7      3.51      0.00
    6   -2    7     -0.90      0.00
    7   -2    7      5.32      0.00
    8   -2    7     -0.96      0.00
    9   -2    7      3.31      0.00
   10   -2    7     -3.14      0.00
   11   -2    7     -0.64      0.00
   12   -2    7      0.28      0.00
   13   -2    7     -0.93      0.00
   14   -2    7      1.05      0.00
  -10   -1    7     -0.94      0.00
   -9   -1    7      3.09      0.00
   -8   -1    7     -3.05      0.00
   -7   -1    7      0.41      0.00
   -6   -1    7     -0.44      0.00
   -5   -1    7     -1.80      0.00
   -4   -1    7      2.13      0.00
   -3   -1    7     -4.46      0.00
   -2   -1    7      4.17      0.00
   -1   -1    7     -1.12      0.00
    0   -1    7     -4.15      0.00
    1   -1    7     -0.85      0.00
    2   -1    7      0.86      0.00
    3   -1    7      8.16      0.00
    4   -1    7     -3.30      0.00
    5   -1    7     -0.77      0.00
    6   -1    7      3.93      0.00
    7   -1    7     -3.70      0.00
    8   -1    7      3.48      0.00
    9   -1    7     -1.55      0.00
   10   -1    7     -0.13      0.00
   11   -1    7     -2.22      0.00
   12   -1    7     -1.69      0.00
   13   -1    7      2.19      0.00
   14   -1    7     -0.37      0.00
   15   -1    7      2.86      0.00
  -10    0    7      0.59      0.00
   -9    0    7     -3.23      0.00
   -8    0    7      2.08      0.00
   -7    0    7     -2.13      0.00
   -6    0    7     -2.02      0.00
   -5    0    7     -0.37      0.00
   -4    0    7     -4.48      0.00
   -3    0    7      1.31      0.00
   -2    0    7     -2.94      0.00
   -1    0    7      5.35      0.00
    0    0    7      0.92      0.00
    1    0    7     -6.00      0.00
    2    0    7     -1.26      0.00
    3    0    7     -0.27      0.00
    4    0    7      5.81      0.00
    5    0    7     -5.04      0.00
    6    0    7      0.06      0.00
    7    0    7      1.16      0.00
    8    0    7     -2.61      0.00
    9    0    7      3.05      0.00
   10    0    7      1.68      0.00
   11    0    7     -0.95      0.00
   12    0    7      0.00      0.00
   13    0    7     -2.53      0.00
   14    0    7      2.16      0.00
   15    0    7     -1.61      0.00
  -10    1    7      0.63      0.00
   -9    1    7      0.09      0.00
   -8    1    7     -1.06      0.00
   -7    1    7      2.25      0.00
   -6    1    7      0.28      0.00
   -5    1    7      1.83      0.00
   -4    1    7      1.95      0.00
   -3    1    7     -1.60      0.00
   -1    1    7     -2.22      0.00
    0    1    7     -0.98      0.00
    1    1    7      2.34      0.00
    2    1    7     -2.60      0.00
    3    1    7      7.53      0.00
    4    1    7     12.46      0.00
    5    1    7     10.01      0.00
    6    1    7     -2.76      0.00
    7    1    7      7.25      0.00
    8    1    7      2.45      0.00
    9    1    7     -0.38      0.00
   10    1    7      2.34      0.00
   11    1    7      1.20      0.00
   12    1    7     -3.26      0.00
   13    1    7     -0.82      0.00
   14    1    7     -1.44      0.00
   15    1    7      0.68      0.00
  -12    2    7      0.23      0.00
  -11    2    7      0.81      0.00
  -10    2    7     -0.68      0.00
   -9    2    7      0.82      0.00
   -8    2    7      0.42      0.00
   -7    2    7     -0.68      0.00
   -6    2    7      0.33      0.00
   -5    2    7      0.92      0.00
   -4    2    7      2.34      0.00
   -3    2    7     -2.75      0.00
   -2    2    7     -0.70      0.00
   -1    2    7     -6.20      0.00
    0    2    7      2.44      0.00
    1    2    7     -1.01      0.00
    2    2    7      3.50      0.00
    3    2    7      0.94      0.00
    4    2    7      4.31      0.00
    5    2    7      3.06      0.00
    6    2    7     -6.43      0.00
    7    2    7     -5.52      0.00
    8    2    7      0.11      0.00
    9    2    7      2.70      0.00
   10    2    7     -0.35      0.00
   12    2    7      1.07      0.00
   13    2    7     -2.07      0.00
   14    2    7     -0.58      0.00
   15    2    7      1.04      0.00
  -13    3    7      0.61      0.00
  -12    3    7      1.53      0.00
  -11    3    7      0.11      0.00
  -10    3    7      0.82      0.00
   -9    3    7     -1.38      0.00
   -8    3    7     -1.66      0.00
   -7    3    7     -3.63      0.00
   -6    3    7     -1.51      0.00
   -5    3    7     -2.25      0.00
   -4    3    7     -1.25      0.00
   -3    3    7      1.73      0.00
   -1    3    7      2.77      0.00
    0    3    7     -3.96      0.00
    1    3    7     -4.21      0.00
    2    3    7     -2.83      0.00
    3    3    7     -5.59      0.00
    4    3    7      5.17      0.00
    5    3    7     -1.05      0.00
    6    3    7      4.77      0.00
    7    3    7    -13.53      0.00
    8    3    7      3.29      0.00
    9    3    7     -1.42      0.00
   10    3    7     -0.18      0.00
   11    3    7      0.64      0.00
   12    3    7     -2.31      0.00
   13    3    7     -0.30      0.00
   14    3    7      0.04      0.00
   15    3    7      0.12      0.00
   16    3    7      2.22      0.00
  -13    4    7     -1.49      0.00
  -12    4    7      0.00      0.00
  -11    4    7     -0.40      0.00
  -10    4    7     -1.03      0.00
   -9    4    7      1.17      0.00
   -8    4    7     -0.52      0.00
   -7    4    7     -0.30      0.00
   -6    4    7     -1.40      0.00
   -5    4    7     -1.57      0.00
   -4    4    7      1.52      0.00
   -3    4    7      6.97      0.00
   -2    4    7     -1.68      0.00
   -1    4    7      4.85      0.00
    0    4    7    -10.80      0.00
    1    4    7     -5.33      0.00
    2    4    7     -3.32      0.00
    3    4    7      1.99      0.00
    4    4    7     -6.02      0.00
    5    4    7      4.44      0.00
    6    4    7     -4.12      0.00
    8    4    7     -3.98      0.00
    9    4    7      2.94      0.00
   10    4    7      2.34      0.00
   11    4    7     -1.75      0.00
   12    4    7      2.37      0.00
   13    4    7     -0.41      0.00
   14    4    7     -1.30      0.00
   15    4    7      0.83      0.00
   16    4    7     -0.10      0.00
  -13    5    7      0.67      0.00
  -12    5    7     -0.81      0.00
  -11    5    7     -0.01      0.00
  -10    5    7     -0.43      0.00
   -9    5    7      1.21      0.00
   -8    5    7      2.21      0.00
   -7    5    7      1.30      0.00
   -6    5    7     -4.67      0.00
   -5    5    7     -3.27      0.00
   -4    5    7     -2.76      0.00
   -3    5    7     -7.21      0.00
   -2    5    7     12.90      0.00
   -1    5    7      0.13      0.00
    0    5    7      5.71      0.00
    1    5    7      0.40      0.00
    2    5    7     -1.72      0.00
    3    5    7      5.45      0.00
    4    5    7     -0.68      0.00
    5    5    7      0.32      0.00
    6    5    7      1.94      0.00
    7    5    7      3.70      0.00
    8    5    7     -1.75      0.00
    9    5    7      0.46      0.00
   10    5    7      0.79      0.00
   11    5    7      3.38      0.00
   12    5    7     -1.42      0.00
   13    5    7      0.34      0.00
   14    5    7     -0.96      0.00
   15    5    7     -2.17      0.00
   16    5    7      1.57      0.00
  -12    6    7     -0.88      0.00
  -11    6    7     -0.90      0.00
  -10    6    7     -1.43      0.00
   -9    6    7     -2.61      0.00
   -8    6    7      0.40      0.00
   -7    6    7     -1.54      0.00
   -6    6    7      2.18      0.00
   -5    6    7     -3.94      0.00
   -3    6    7      0.88      0.00
   -2    6    7     -4.55      0.00
    0    6    7     -3.48      0.00
    2    6    7     -7.24      0.00
    3    6    7    -10.68      0.00
    4    6    7      0.93      0.00
    5    6    7     -4.26      0.00
    6    6    7      1.41      0.00
    7    6    7     -1.05      0.00
    8    6    7      0.10      0.00
    9    6    7     -2.06      0.00
   10    6    7     -1.50      0.00
   11    6    7     -1.19      0.00
   12    6    7      1.94      0.00
   13    6    7     -1.63      0.00
   14    6    7      0.46      0.00
   15    6    7      0.54      0.00
  -12    7    7      1.59      0.00
  -11    7    7     -0.40      0.00
  -10    7    7      0.77      0.00
   -9    7    7      1.43      0.00
   -8    7    7     -0.53      0.00
   -7    7    7      4.54      0.00
   -6    7    7     -1.03      0.00
   -5    7    7      0.60      0.00
   -4    7    7     -0.71      0.00
   -3    7    7     -0.16      0.00
   -2    7    7     -5.14      0.00
   -1    7    7      7.95      0.00
    0    7    7      0.21      0.00
    1    7    7      4.24      0.00
    2    7    7     -0.55      0.00
    3    7    7      4.60      0.00
    4    7    7     -0.65      0.00
    5    7    7      1.71      0.00
    6    7    7     -1.16      0.00
    7    7    7      0.18      0.00
    8    7    7      0.28      0.00
    9    7    7     -0.02      0.00
   10    7    7     -2.83      0.00
   11    7    7     -0.72      0.00
   12    7    7     -2.24      0.00
   13    7    7     -1.68      0.00
   14    7    7     -1.42      0.00
   15    7    7     -0.67      0.00
  -12    8    7     -0.49      0.00
  -11    8    7      1.14      0.00
  -10    8    7     -1.09      0.00
   -9    8    7      0.96      0.00
   -8    8    7      1.12      0.00
   -7    8    7     -2.65      0.00
   -6    8    7      0.49      0.00
   -5    8    7     -1.52      0.00
   -4    8    7     -1.96      0.00
   -3    8    7     -2.46      0.00
   -2    8    7     -4.33      0.00
   -1    8    7    -11.39      0.00
    0    8    7     -6.84      0.00
    1    8    7      1.07      0.00
    2    8    7     -0.59      0.00
    3    8    7      0.20      0.00
    4    8    7      2.47      0.00
    5    8    7     -2.40      0.00
    6    8    7     -0.71      0.00
    7    8    7      2.15      0.00
    8    8    7      2.48      0.00
    9    8    7     -0.08      0.00
   10    8    7      3.01      0.00
   11    8    7     -0.01      0.00
   12    8    7     -0.37      0.00
   13    8    7      0.60      0.00
   14    8    7     -1.41      0.00
   15    8    7      0.23      0.00
  -11    9    7     -0.03      0.00
  -10    9    7      1.10      0.00
   -9    9    7     -0.11      0.00
   -8    9    7      1.54      0.00
   -7    9    7      0.11      0.00
   -6    9    7      0.32      0.00
   -5    9    7     -0.72      0.00
   -4    9    7     -0.40      0.00
   -3    9    7     -2.61      0.00
   -2    9    7      3.57      0.00
   -1    9    7     -0.47      0.00
    0    9    7     11.57      0.00
    1    9    7     -4.65      0.00
    2    9    7      1.46      0.00
    3    9    7     -1.69      0.00
    4    9    7     -0.73      0.00
    5    9    7     -0.14      0.00
    6    9    7     -0.88      0.00
    7    9    7     -4.27      0.00
    8    9    7      0.37      0.00
    9    9    7      1.78      0.00
   10    9    7     -0.97      0.00
   11    9    7     -0.30      0.00
   12    9    7     -2.38      0.00
   13    9    7     -1.80      0.00
   14    9    7     -2.27      0.00
   15    9    7     -1.10      0.00
  -10   10    7      1.09      0.00
   -9   10    7     -2.28      0.00
   -8   10    7     -0.07      0.00
   -7   10    7      1.49      0.00
   -6   10    7     -0.72      0.00
   -5   10    7      2.36      0.00
   -4   10    7     -2.24      0.00
   -3   10    7     -0.30      0.00
   -2   10    7     -1.85      0.00
   -1   10    7      0.89      0.00
    0   10    7      1.14      0.00
    1   10    7      6.26      0.00
    2   10    7      0.69      0.00
    3   10    7      2.64      0.00
    4   10    7      0.30      0.00
    5   10    7      5.63      0.00
    6   10    7     -3.13      0.00
    7   10    7     -1.68      0.00
    8   10    7     -3.41      0.00
    9   10    7      1.59      0.00
   10   10    7      2.34      0.00
   11   10    7     -0.09      0.00
   12   10    7      1.34      0.00
   13   10    7     -2.06      0.00
   14   10    7     -0.58      0.00
  -10   11    7     -0.82      0.00
   -9   11    7      3.98      0.00
   -8   11    7     -0.44      0.00
   -7   11    7      1.81      0.00
   -6   11    7      0.85      0.00
   -5   11    7     -1.67      0.00
   -4   11    7      1.40      0.00
   -3   11    7     -1.87      0.00
   -2   11    7     -0.88      0.00
   -1   11    7      1.45      0.00
    0   11    7     -3.41      0.00
    1   11    7      5.87      0.00
    2   11    7      0.13      0.00
    3   11    7     -0.30      0.00
    4   11    7      0.55      0.00
    5   11    7     -4.22      0.00
    6   11    7      2.53      0.00
    7   11    7     -2.90      0.00
    8   11    7     -2.29      0.00
    9   11    7     -0.23      0.00
   10   11    7      1.81      0.00
   11   11    7      1.74      0.00
   12   11    7      0.70      0.00
   13   11    7     -0.52      0.00
   14   11    7      0.67      0.00
   -9   12    7     -0.96      0.00
   -8   12    7      1.19      0.00
   -7   12    7     -1.15      0.00
   -6   12    7     -0.40      0.00
   -5   12    7     -0.79      0.00
   -4   12    7     -1.20      0.00
   -3   12    7     -1.43      0.00
   -2   12    7      0.16      0.00
   -1   12    7     -1.48      0.00
    0   12    7      3.40      0.00
    1   12    7     -1.03      0.00
    2   12    7      3.75      0.00
    3   12    7      2.03      0.00
    4   12    7      2.04      0.00
    5   12    7      1.87      0.00
    6   12    7      0.13      0.00
    7   12    7     -0.45      0.00
    8   12    7     -1.75      0.00
    9   12    7     -1.79      0.00
   10   12    7      2.64      0.00
   11   12    7      1.40      0.00
   12   12    7     -1.03      0.00
   13   12    7      0.64      0.00
   -8   13    7      0.00      0.00
   -7   13    7     -0.28      0.00
   -6   13    7      1.13      0.00
   -5   13    7     -0.33      0.00
   -4   13    7     -0.75      0.00
   -3   13    7     -0.56      0.00
   -2   13    7     -1.78      0.00
   -1   13    7      1.82      0.00
    0   13    7     -1.57      0.00
    1   13    7      0.49      0.00
    2   13    7     -2.31      0.00
    3   13    7     -0.87      0.00
    4   13    7      0.32      0.00
    5   13    7     -0.20      0.00
    6   13    7     -1.46      0.00
    7   13    7      0.28      0.00
    8   13    7     -2.73      0.00
    9   13    7     -0.47      0.00
   10   13    7      0.51      0.00
   11   13    7      2.47      0.00
   12   13    7      2.04      0.00
   -6   14    7     -0.38      0.00
   -5   14    7      1.43      0.00
   -4   14    7     -0.56      0.00
   -3   14    7      0.17      0.00
   -2   14    7      0.31      0.00
   -1   14    7     -0.67      0.00
    0   14    7     -0.21      0.00
    1   14    7     -0.58      0.00
    2   14    7      0.84      0.00
    3   14    7     -0.22      0.00
    4   14    7      0.31      0.00
    5   14    7      1.16      0.00
    6   14    7     -0.56      0.00
    7   14    7     -1.14      0.00
    8   14    7      1.23      0.00
    9   14    7     -2.71      0.00
   10   14    7     -2.08      0.00
   11   14    7      0.48      0.00
   -4   15    7      1.06      0.00
   -3   15    7     -0.41      0.00
   -2   15    7     -0.42      0.00
   -1   15    7      0.30      0.00
    0   15    7     -0.11      0.00
    1   15    7     -0.03      0.00
    2   15    7      1.86      0.00
    3   15    7     -0.33      0.00
    4   15    7     -0.13      0.00
    5   15    7     -0.95      0.00
    6   15    7     -0.17      0.00
    7   15    7     -1.12      0.00
    8   15    7     -0.23      0.00
    0   16    7      1.18      0.00
    1   16    7      1.03      0.00
    2   16    7      0.30      0.00
    3   16    7      1.31      0.00
    4   16    7     -1.07      0.00
    5   16    7      0.94      0.00
    6   16    7      0.76      0.00
    7   16    7      0.72      0.00
    8   16    7     -0.68      0.00
   -2  -10    8      3.15      0.00
   -1  -10    8      0.07      0.00
    0  -10    8      0.02      0.00
    1  -10    8     -0.01      0.00
    2  -10    8     -2.35      0.00
   -5   -9    8      1.63      0.00
   -4   -9    8      1.69      0.00
   -3   -9    8     -2.18      0.00
   -2   -9    8      2.38      0.00
   -1   -9    8     -0.60      0.00
    0   -9    8     -0.32      0.00
    1   -9    8      1.50      0.00
    2   -9    8      0.26      0.00
    3   -9    8     -0.60      0.00
   -7   -8    8     -1.59      0.00
   -6   -8    8      0.28      0.00
   -5   -8    8     -2.74      0.00
   -4   -8    8     -0.54      0.00
   -3   -8    8     -1.45      0.00
   -2   -8    8     -6.07      0.00
   -1   -8    8      1.03      0.00
    0   -8    8      1.45      0.00
    1   -8    8     -0.45      0.00
    2   -8    8      3.74      0.00
    3   -8    8     -0.04      0.00
    4   -8    8      0.49      0.00
    5   -8    8     -0.52      0.00
    6   -8    8     -0.63      0.00
    7   -8    8      1.90      0.00
    8   -8    8     -0.48      0.00
   -8   -7    8     -1.85      0.00
   -7   -7    8      2.99      0.00
   -6   -7    8     -1.93      0.00
   -5   -7    8      1.35      0.00
   -4   -7    8     -2.05      0.00
   -3   -7    8      0.09      0.00
   -2   -7    8     -0.64      0.00
   -1   -7    8     -1.47      0.00
    0   -7    8      0.20      0.00
    1   -7    8      1.10      0.00
    2   -7    8     -3.38      0.00
    3   -7    8      0.56      0.00
    4   -7    8     -0.57      0.00
    5   -7    8      2.25      0.00
    6   -7    8     -0.79      0.00
    7   -7    8     -0.61      0.00
    8   -7    8      1.13      0.00
    9   -7    8     -0.34      0.00
   10   -7    8     -1.03      0.00
  -10   -6    8     -1.68      0.00
   -9   -6    8      1.71      0.00
   -8   -6    8     -1.49      0.00
   -7   -6    8     -0.47      0.00
   -6   -6    8      1.40      0.00
   -5   -6    8     -0.44      0.00
   -4   -6    8      0.70      0.00
   -3   -6    8     -1.93      0.00
   -2   -6    8     -0.59      0.00
   -1   -6    8      1.27      0.00
    0   -6    8     -0.04      0.00
    1   -6    8      2.67      0.00
    2   -6    8      1.48      0.00
    3   -6    8      0.58      0.00
    4   -6    8      1.02      0.00
    5   -6    8     -0.21      0.00
    6   -6    8      1.65      0.00
    7   -6    8     -0.96      0.00
    8   -6    8     -0.42      0.00
    9   -6    8     -0.35      0.00
   10   -6    8      0.11      0.00
   11   -6    8     -0.30      0.00
  -11   -5    8     -0.42      0.00
  -10   -5    8     -0.47      0.00
   -9   -5    8     -2.68      0.00
   -8   -5    8      0.99      0.00
   -7   -5    8     -0.17      0.00
   -6   -5    8      1.43      0.00
   -5   -5    8      1.60      0.00
   -4   -5    8     -0.54      0.00
   -3   -5    8     -0.43      0.00
   -2   -5    8     -0.63      0.00
   -1   -5    8      0.63      0.00
    0   -5    8      2.01      0.00
    1   -5    8     -1.56      0.00
    2   -5    8      1.89      0.00
    3   -5    8     -2.89      0.00
    4   -5    8     -0.73      0.00
    5   -5    8     -1.23      0.00
    7   -5    8      0.51      0.00
    8   -5    8     -0.38      0.00
    9   -5    8      0.24      0.00
   10   -5    8     -2.17      0.00
   11   -5    8      0.81      0.00
   12   -5    8     -0.16      0.00
  -11   -4    8     -1.90      0.00
  -10   -4    8     -0.69      0.00
   -9   -4    8     -1.16      0.00
   -8   -4    8     -0.73      0.00
   -7   -4    8      3.08      0.00
   -6   -4    8      1.37      0.00
   -5   -4    8      1.20      0.00
   -4   -4    8      2.75      0.00
   -3   -4    8     -4.75      0.00
   -2   -4    8     -3.57      0.00
   -1   -4    8     -1.78      0.00
    0   -4    8     -0.15      0.00
    1   -4    8     -0.03      0.00
    2   -4    8      1.94      0.00
    3   -4    8      1.70      0.00
    4   -4    8     -2.37      0.00
    5   -4    8     -0.69      0.00
    6   -4    8     -0.37      0.00
    7   -4    8      1.10      0.00
    8   -4    8      0.79      0.00
    9   -4    8     -0.48      0.00
   10   -4    8      0.42      0.00
   11   -4    8     -1.29      0.00
   12   -4    8      0.30      0.00
  -11   -3    8      1.98      0.00
  -10   -3    8     -0.91      0.00
   -9   -3    8      0.06      0.00
   -8   -3    8      0.18      0.00
   -7   -3    8     -1.50      0.00
   -6   -3    8      3.41      0.00
   -5   -3    8      2.34      0.00
   -4   -3    8     -1.40      0.00
   -3   -3    8      5.28      0.00
   -2   -3    8     -3.58      0.00
   -1   -3    8     -2.20      0.00
    0   -3    8     -0.82      0.00
    1   -3    8      2.16      0.00
    2   -3    8     -3.12      0.00
    3   -3    8      5.77      0.00
    4   -3    8     -1.19      0.00
    5   -3    8     -1.22      0.00
    6   -3    8     -0.55      0.00
    7   -3    8     -1.04      0.00
    8   -3    8     -0.98      0.00
    9   -3    8     -0.04      0.00
   10   -3    8     -1.51      0.00
   11   -3    8     -0.82      0.00
   12   -3    8      0.77      0.00
   13   -3    8     -0.76      0.00
  -11   -2    8     -0.13      0.00
  -10   -2    8      0.95      0.00
   -9   -2    8     -1.11      0.00
   -8   -2    8     -1.14      0.00
   -7   -2    8     -0.50      0.00
   -6   -2    8     -0.65      0.00
   -5   -2    8     -1.78      0.00
   -4   -2    8      9.66      0.00
   -3   -2    8     -2.25      0.00
   -2   -2    8      3.81      0.00
   -1   -2    8     -4.23      0.00
    0   -2    8      0.56      0.00
    1   -2    8     -3.01      0.00
    2   -2    8      2.62      0.00
    3   -2    8     -1.99      0.00
    4   -2    8      4.52      0.00
    5   -2    8      0.57      0.00
    6   -2    8     -0.46      0.00
    7   -2    8      2.40      0.00
    8   -2    8     -0.59      0.00
    9   -2    8     -1.13      0.00
   10   -2    8     -0.26      0.00
   11   -2    8     -1.40      0.00
   12   -2    8     -2.24      0.00
   13   -2    8      2.08      0.00
   14   -2    8     -0.58      0.00
  -11   -1    8     -1.33      0.00
  -10   -1    8     -0.18      0.00
   -9   -1    8     -0.38      0.00
   -8   -1    8      0.41      0.00
   -7   -1    8      1.68      0.00
   -6   -1    8     -1.20      0.00
   -5   -1    8      4.58      0.00
   -4   -1    8     -0.84      0.00
   -3   -1    8     12.43      0.00
   -2   -1    8     -4.72      0.00
   -1   -1    8     -0.99      0.00
    0   -1    8     -5.53      0.00
    1   -1    8      2.40      0.00
    2   -1    8      0.84      0.00
    4   -1    8      2.44      0.00
    5   -1    8      0.82      0.00
    6   -1    8      0.00      0.00
    7   -1    8     -2.46      0.00
    8   -1    8     -0.70      0.00
    9   -1    8     -2.14      0.00
   10   -1    8     -2.02      0.00
   11   -1    8     -0.50      0.00
   13   -1    8     -1.74      0.00
   14   -1    8      3.20      0.00
  -10    0    8     -1.11      0.00
   -9    0    8      1.12      0.00
   -8    0    8     -1.01      0.00
   -7    0    8     -0.54      0.00
   -6    0    8      1.68      0.00
   -5    0    8     -2.33      0.00
   -4    0    8      3.15      0.00
   -3    0    8      0.67      0.00
   -1    0    8     -5.75      0.00
    0    0    8     -1.54      0.00
    1    0    8      3.04      0.00
    2    0    8      1.31      0.00
    5    0    8      3.16      0.00
    6    0    8      1.02      0.00
    7    0    8     -0.08      0.00
    8    0    8      1.53      0.00
    9    0    8     -2.96      0.00
   10    0    8     -0.42      0.00
   11    0    8     -1.98      0.00
   12    0    8      0.04      0.00
   13    0    8      1.47      0.00
   14    0    8     -1.97      0.00
   15    0    8      1.56      0.00
  -10    1    8     -0.92      0.00
   -9    1    8     -0.15      0.00
   -8    1    8      2.52      0.00
   -7    1    8     -1.60      0.00
   -6    1    8      2.47      0.00
   -5    1    8      2.62      0.00
   -4    1    8     -0.29      0.00
   -3    1    8      7.22      0.00
   -2    1    8      1.36      0.00
   -1    1    8      0.40      0.00
    0    1    8     -4.59      0.00
    1    1    8     -3.74      0.00
    2    1    8      9.02      0.00
    3    1    8      0.80      0.00
    7    1    8      1.83      0.00
    8    1    8     -1.04      0.00
    9    1    8      5.25      0.00
   10    1    8     -5.47      0.00
   11    1    8     -1.99      0.00
   12    1    8     -1.33      0.00
   13    1    8     -1.04      0.00
   14    1    8      1.98      0.00
   15    1    8     -0.67      0.00
  -11    2    8     -0.57      0.00
  -10    2    8      1.91      0.00
   -9    2    8      0.63      0.00
   -8    2    8     -0.14      0.00
   -7    2    8      2.47      0.00
   -6    2    8     -2.66      0.00
   -5    2    8      2.76      0.00
   -4    2    8     -0.41      0.00
   -3    2    8     -6.97      0.00
   -2    2    8      0.92      0.00
   -1    2    8     -3.99      0.00
    0    2    8     -3.18      0.00
    1    2    8     -1.39      0.00
    2    2    8      2.60      0.00
    3    2    8      5.53      0.00
    4    2    8     -7.24      0.00
    5    2    8     -6.97      0.00
    6    2    8    -10.10      0.00
    8    2    8      0.60      0.00
    9    2    8     -5.67      0.00
   10    2    8      1.93      0.00
   11    2    8     -3.51      0.00
   12    2    8     -3.84      0.00
   13    2    8      2.78      0.00
   14    2    8     -1.41      0.00
   15    2    8      1.76      0.00
  -12    3    8      0.17      0.00
  -11    3    8      0.45      0.00
  -10    3    8     -0.33      0.00
   -9    3    8      1.38      0.00
   -8    3    8     -1.86      0.00
   -7    3    8     -0.83      0.00
   -6    3    8      0.87      0.00
   -5    3    8     -1.66      0.00
   -4    3    8     -0.44      0.00
   -3    3    8      0.72      0.00
   -2    3    8     -0.24      0.00
   -1    3    8      3.01      0.00
    0    3    8     -4.33      0.00
    1    3    8     -0.37      0.00
    2    3    8     -4.88      0.00
    3    3    8      8.97      0.00
    4    3    8      2.22      0.00
    5    3    8      1.77      0.00
    7    3    8     14.58      0.00
    8    3    8      1.51      0.00
    9    3    8      2.65      0.00
   10    3    8      0.37      0.00
   11    3    8     -3.24      0.00
   12    3    8     -0.60      0.00
   13    3    8     -2.75      0.00
   14    3    8      2.74      0.00
   15    3    8     -0.71      0.00
  -12    4    8     -0.50      0.00
  -11    4    8     -1.47      0.00
  -10    4    8      1.08      0.00
   -9    4    8     -0.69      0.00
   -8    4    8      3.43      0.00
   -7    4    8      0.08      0.00
   -6    4    8      2.04      0.00
   -5    4    8      2.06      0.00
   -4    4    8      3.30      0.00
   -3    4    8     -2.37      0.00
   -2    4    8      1.49      0.00
   -1    4    8     -4.59      0.00
    0    4    8      2.01      0.00
    1    4    8     -2.82      0.00
    2    4    8      5.22      0.00
    3    4    8     -1.35      0.00
    4    4    8      5.29      0.00
    5    4    8     -5.75      0.00
    6    4    8     -0.46      0.00
    7    4    8     -1.44      0.00
    8    4    8      9.20      0.00
    9    4    8      2.14      0.00
   10    4    8     -5.25      0.00
   11    4    8      3.54      0.00
   12    4    8     -2.04      0.00
   13    4    8     -1.41      0.00
   14    4    8     -0.45      0.00
   15    4    8     -0.55      0.00
  -12    5    8     -1.33      0.00
  -11    5    8      0.31      0.00
  -10    5    8      0.30      0.00
   -9    5    8      1.38      0.00
   -8    5    8     -0.65      0.00
   -7    5    8     -0.49      0.00
   -6    5    8      0.13      0.00
   -5    5    8      1.52      0.00
   -4    5    8     -3.89      0.00
   -3    5    8      0.37      0.00
   -2    5    8     -9.01      0.00
   -1    5    8      0.04      0.00
    0    5    8     -6.57      0.00
    1    5    8      3.57      0.00
    2    5    8      3.07      0.00
    3    5    8     -0.63      0.00
    4    5    8      1.29      0.00
    5    5    8      1.83      0.00
    6    5    8     -0.55      0.00
    7    5    8     -4.10      0.00
    8    5    8      3.44      0.00
    9    5    8      1.40      0.00
   10    5    8      1.87      0.00
   11    5    8     -2.95      0.00
   12    5    8      0.44      0.00
   13    5    8     -0.36      0.00
   14    5    8     -0.73      0.00
   15    5    8      2.28      0.00
  -12    6    8      1.46      0.00
  -11    6    8     -1.06      0.00
  -10    6    8     -0.50      0.00
   -9    6    8      0.10      0.00
   -8    6    8     -3.19      0.00
   -7    6    8      0.28      0.00
   -6    6    8     -2.27      0.00
   -5    6    8      2.56      0.00
   -4    6    8      8.40      0.00
   -3    6    8      5.09      0.00
   -1    6    8      1.38      0.00
    0    6    8     -2.93      0.00
    1    6    8     -2.63      0.00
    2    6    8     -0.99      0.00
    3    6    8      3.40      0.00
    4    6    8     -3.68      0.00
    5    6    8      1.33      0.00
    6    6    8      0.97      0.00
    7    6    8     -2.36      0.00
    8    6    8     -2.85      0.00
    9    6    8      0.16      0.00
   10    6    8      1.70      0.00
   11    6    8     -0.28      0.00
   12    6    8     -2.43      0.00
   13    6    8      0.15      0.00
   14    6    8      0.16      0.00
   15    6    8      0.74      0.00
  -12    7    8     -1.11      0.00
  -11    7    8      1.83      0.00
  -10    7    8      0.86      0.00
   -9    7    8      0.08      0.00
   -8    7    8      3.52      0.00
   -7    7    8     -2.04      0.00
   -6    7    8      1.37      0.00
   -5    7    8     -0.09      0.00
   -4    7    8      3.98      0.00
   -3    7    8     -0.18      0.00
   -2    7    8      7.36      0.00
   -1    7    8    -14.03      0.00
    0    7    8      0.24      0.00
    1    7    8     -4.24      0.00
    2    7    8      8.96      0.00
    3    7    8      5.02      0.00
    4    7    8      6.12      0.00
    5    7    8     -1.06      0.00
    6    7    8      0.55      0.00
    7    7    8      2.74      0.00
    8    7    8     -3.41      0.00
    9    7    8      1.12      0.00
   10    7    8      1.05      0.00
   11    7    8      1.60      0.00
   12    7    8     -0.48      0.00
   13    7    8     -2.15      0.00
   14    7    8     -0.13      0.00
   15    7    8      0.28      0.00
  -11    8    8     -0.91      0.00
  -10    8    8      0.37      0.00
   -9    8    8      0.16      0.00
   -8    8    8     -1.55      0.00
   -7    8    8      0.37      0.00
   -6    8    8     -2.21      0.00
   -5    8    8     -2.75      0.00
   -4    8    8     -0.21      0.00
   -3    8    8      5.14      0.00
   -2    8    8     -2.02      0.00
   -1    8    8      5.09      0.00
    0    8    8     -1.52      0.00
    1    8    8     -0.09      0.00
    2    8    8     -3.22      0.00
    3    8    8      5.24      0.00
    4    8    8     -2.70      0.00
    5    8    8      1.14      0.00
    6    8    8     -0.57      0.00
    7    8    8      1.46      0.00
    8    8    8      1.26      0.00
    9    8    8     -0.33      0.00
   10    8    8      1.75      0.00
   11    8    8      1.67      0.00
   12    8    8      3.81      0.00
   13    8    8     -0.86      0.00
   14    8    8      1.24      0.00
   15    8    8      0.10      0.00
  -11    9    8     -0.05      0.00
  -10    9    8      1.37      0.00
   -9    9    8      1.03      0.00
   -8    9    8     -0.38      0.00
   -7    9    8      1.16      0.00
   -6    9    8      0.29      0.00
   -5    9    8      0.69      0.00
   -4    9    8     -2.52      0.00
   -3    9    8      1.87      0.00
   -2    9    8      1.81      0.00
   -1    9    8     10.90      0.00
    0    9    8      0.31      0.00
    1    9    8      5.13      0.00
    2    9    8     -4.72      0.00
    3    9    8     -5.97      0.00
    4    9    8      1.64      0.00
    5    9    8     -1.84      0.00
    6    9    8     -0.38      0.00
    7    9    8     -2.15      0.00
    8    9    8     -0.57      0.00
    9    9    8     -3.20      0.00
   10    9    8     -1.84      0.00
   11    9    8     -1.82      0.00
   12    9    8     -2.16      0.00
   13    9    8      0.71      0.00
   14    9    8     -1.29      0.00
   15    9    8      0.38      0.00
  -10   10    8     -1.67      0.00
   -9   10    8      0.79      0.00
   -8   10    8      0.13      0.00
   -7   10    8     -1.58      0.00
   -6   10    8      2.22      0.00
   -5   10    8     -0.28      0.00
   -4   10    8      1.25      0.00
   -3   10    8     -0.67      0.00
   -2   10    8      2.81      0.00
   -1   10    8     -5.03      0.00
    0   10    8     -0.14      0.00
    1   10    8     -2.04      0.00
    2   10    8      1.19      0.00
    3   10    8     -0.89      0.00
    4   10    8      1.75      0.00
    5   10    8     -1.56      0.00
    6   10    8      0.55      0.00
    7   10    8      0.45      0.00
    8   10    8      0.49      0.00
    9   10    8      1.04      0.00
   10   10    8     -1.43      0.00
   11   10    8      1.62      0.00
   12   10    8     -0.04      0.00
   13   10    8      1.98      0.00
   14   10    8      1.64      0.00
   -9   11    8      0.16      0.00
   -8   11    8      2.62      0.00
   -7   11    8      0.52      0.00
   -6   11    8     -1.19      0.00
   -5   11    8      0.94      0.00
   -4   11    8     -0.85      0.00
   -3   11    8      0.95      0.00
   -2   11    8      0.72      0.00
   -1   11    8      0.56      0.00
    0   11    8      2.26      0.00
    1   11    8     -6.06      0.00
    2   11    8      1.32      0.00
    3   11    8      0.52      0.00
    4   11    8     -4.94      0.00
    5   11    8      2.38      0.00
    6   11    8     -4.48      0.00
    7   11    8      2.15      0.00
    8   11    8      0.55      0.00
    9   11    8      0.94      0.00
   10   11    8     -1.43      0.00
   11   11    8     -3.09      0.00
   12   11    8     -0.95      0.00
   13   11    8     -0.15      0.00
   14   11    8     -0.46      0.00
   -8   12    8     -1.33      0.00
   -7   12    8      0.21      0.00
   -6   12    8     -0.43      0.00
   -5   12    8     -0.24      0.00
   -4   12    8     -0.45      0.00
   -3   12    8      0.00      0.00
   -2   12    8     -0.39      0.00
   -1   12    8      2.28      0.00
    0   12    8     -1.25      0.00
    1   12    8      3.16      0.00
    2   12    8     -2.97      0.00
    3   12    8      1.10      0.00
    4   12    8      3.92      0.00
    5   12    8     -1.55      0.00
    6   12    8      2.93      0.00
    7   12    8     -2.48      0.00
    8   12    8      1.71      0.00
    9   12    8      1.10      0.00
   10   12    8      1.20      0.00
   11   12    8     -0.87      0.00
   12   12    8     -0.37      0.00
   13   12    8     -1.40      0.00
   -7   13    8     -0.39      0.00
   -6   13    8      1.11      0.00
   -5   13    8      1.20      0.00
   -4   13    8      0.37      0.00
   -3   13    8     -0.31      0.00
   -2   13    8      2.61      0.00
   -1   13    8     -0.59      0.00
    0   13    8      1.06      0.00
    1   13    8     -2.45      0.00
    2   13    8     -0.67      0.00
    3   13    8     -2.90      0.00
    4   13    8     -1.03      0.00
    5   13    8     -0.74      0.00
    6   13    8     -3.10      0.00
    7   13    8     -1.04      0.00
    8   13    8     -0.59      0.00
    9   13    8     -0.63      0.00
   10   13    8      1.96      0.00
   11   13    8      0.84      0.00
   12   13    8     -0.86      0.00
   -6   14    8     -2.32      0.00
   -5   14    8      0.00      0.00
   -4   14    8      0.45      0.00
   -3   14    8     -0.31      0.00
   -2   14    8      0.45      0.00
   -1   14    8      0.97      0.00
    0   14    8     -0.21      0.00
    1   14    8      0.71      0.00
    2   14    8     -0.33      0.00
    3   14    8      2.13      0.00
    4   14    8     -0.17      0.00
    5   14    8      1.07      0.00
    6   14    8      0.58      0.00
    7   14    8     -0.50      0.00
    8   14    8     -0.50      0.00
   10   14    8     -1.24      0.00
   11   14    8      0.49      0.00
   -5   15    8     -1.20      0.00
   -3   15    8     -0.74      0.00
   -2   15    8     -1.78      0.00
   -1   15    8      1.27      0.00
    0   15    8      0.47      0.00
    1   15    8      2.11      0.00
    2   15    8      0.50      0.00
    3   15    8      0.09      0.00
    4   15    8     -1.64      0.00
    5   15    8      0.35      0.00
    6   15    8     -0.35      0.00
    7   15    8      0.90      0.00
    8   15    8     -0.47      0.00
    0   16    8      1.62      0.00
    1   16    8      0.10      0.00
    2   16    8      0.04      0.00
    3   16    8     -1.71      0.00
    4   16    8      0.79      0.00
    5   16    8     -1.83      0.00
    6   16    8      1.91      0.00
    7   16    8     -0.43      0.00
    8   16    8      0.18      0.00
   -2   -9    9     -4.28      0.00
   -1   -9    9     -0.19      0.00
    0   -9    9      0.65      0.00
    1   -9    9     -0.61      0.00
    2   -9    9      1.72      0.00
    3   -9    9      1.54      0.00
    4   -9    9     -0.19      0.00
   -5   -8    9      2.30      0.00
   -4   -8    9     -0.81      0.00
   -3   -8    9     -1.70      0.00
   -2   -8    9      2.51      0.00
   -1   -8    9     -0.98      0.00
    0   -8    9     -0.90      0.00
    1   -8    9     -0.16      0.00
    2   -8    9     -3.19      0.00
    3   -8    9     -0.64      0.00
    4   -8    9     -0.47      0.00
    5   -8    9     -0.71      0.00
   -7   -7    9      0.35      0.00
   -6   -7    9      0.70      0.00
   -5   -7    9      1.19      0.00
   -4   -7    9      4.51      0.00
   -3   -7    9     -1.84      0.00
   -2   -7    9      3.82      0.00
   -1   -7    9      1.97      0.00
    0   -7    9      1.02      0.00
    1   -7    9     -0.65      0.00
    2   -7    9     -0.85      0.00
    3   -7    9     -1.43      0.00
    4   -7    9      1.10      0.00
    5   -7    9     -0.01      0.00
    6   -7    9      0.62      0.00
    8   -7    9     -0.60      0.00
    9   -7    9      1.14      0.00
   -8   -6    9      1.01      0.00
   -7   -6    9      0.24      0.00
   -6   -6    9     -1.60      0.00
   -5   -6    9      1.46      0.00
   -4   -6    9     -1.30      0.00
   -3   -6    9      1.19      0.00
   -2   -6    9     -2.89      0.00
   -1   -6    9      2.25      0.00
    0   -6    9      1.27      0.00
    1   -6    9     -0.51      0.00
    2   -6    9      0.56      0.00
    3   -6    9      0.86      0.00
    4   -6    9     -2.15      0.00
    5   -6    9      1.01      0.00
    6   -6    9     -0.97      0.00
    7   -6    9      2.17      0.00
    8   -6    9     -0.07      0.00
    9   -6    9     -1.03      0.00
   10   -6    9      0.59      0.00
   -9   -5    9     -0.13      0.00
   -8   -5    9     -1.54      0.00
   -7   -5    9      1.37      0.00
   -6   -5    9      1.18      0.00
   -5   -5    9     -2.01      0.00
   -4   -5    9      1.15      0.00
   -3   -5    9      0.29      0.00
   -2   -5    9      1.20      0.00
   -1   -5    9      1.85      0.00
    0   -5    9      1.01      0.00
    1   -5    9      0.80      0.00
    2   -5    9     -1.46      0.00
    3   -5    9     -0.70      0.00
    4   -5    9      1.05      0.00
    5   -5    9     -1.75      0.00
    6   -5    9      0.04      0.00
    7   -5    9     -0.16      0.00
    8   -5    9      3.01      0.00
    9   -5    9      0.26      0.00
   11   -5    9      0.48      0.00
  -10   -4    9     -0.75      0.00
   -9   -4    9      1.33      0.00
   -8   -4    9      0.33      0.00
   -7   -4    9      0.45      0.00
   -6   -4    9      0.34      0.00
   -5   -4    9     -0.44      0.00
   -4   -4    9     -3.01      0.00
   -3   -4    9     -2.09      0.00
   -2   -4    9      0.07      0.00
   -1   -4    9     -0.35      0.00
    0   -4    9     -0.14      0.00
    1   -4    9      0.84      0.00
    2   -4    9     -0.09      0.00
    3   -4    9      0.07      0.00
    4   -4    9      0.01      0.00
    5   -4    9      1.73      0.00
    6   -4    9      1.88      0.00
    7   -4    9     -0.90      0.00
    8   -4    9      0.21      0.00
    9   -4    9      0.54      0.00
   10   -4    9     -0.56      0.00
   12   -4    9      0.43      0.00
  -11   -3    9      1.26      0.00
  -10   -3    9      0.57      0.00
   -9   -3    9     -1.05      0.00
   -8   -3    9     -0.16      0.00
   -7   -3    9      0.56      0.00
   -6   -3    9     -2.52      0.00
   -5   -3    9     -2.58      0.00
   -4   -3    9      0.15      0.00
   -3   -3    9     -1.44      0.00
   -2   -3    9      2.01      0.00
   -1   -3    9      2.62      0.00
    0   -3    9      4.32      0.00
    1   -3    9     -1.11      0.00
    2   -3    9      3.23      0.00
    3   -3    9     -3.45      0.00
    4   -3    9     -0.50      0.00
    5   -3    9      0.43      0.00
    6   -3    9     -1.35      0.00
    7   -3    9      2.34      0.00
    8   -3    9     -3.32      0.00
    9   -3    9     -0.12      0.00
   10   -3    9     -0.46      0.00
   11   -3    9     -0.15      0.00
   12   -3    9      0.46      0.00
  -11   -2    9     -0.91      0.00
  -10   -2    9     -1.29      0.00
   -9   -2    9      0.25      0.00
   -8   -2    9      0.10      0.00
   -7   -2    9     -0.40      0.00
   -6   -2    9     -0.11      0.00
   -5   -2    9     -0.66      0.00
   -4   -2    9     -5.30      0.00
   -3   -2    9     -0.75      0.00
   -2   -2    9     -4.35      0.00
   -1   -2    9      3.43      0.00
    0   -2    9      0.15      0.00
    1   -2    9      5.26      0.00
    2   -2    9     -1.92      0.00
    3   -2    9      1.19      0.00
    4   -2    9     -2.65      0.00
    5   -2    9     -3.64      0.00
    6   -2    9      5.95      0.00
    7   -2    9     -2.85      0.00
    8   -2    9      4.14      0.00
    9   -2    9     -0.76      0.00
   10   -2    9      0.61      0.00
   11   -2    9     -0.13      0.00
   12   -2    9      1.07      0.00
   13   -2    9      0.02      0.00
  -11   -1    9     -1.38      0.00
  -10   -1    9     -0.16      0.00
   -9   -1    9     -0.46      0.00
   -8   -1    9      1.86      0.00
   -7   -1    9      0.86      0.00
   -6   -1    9      2.50      0.00
   -5   -1    9     -0.63      0.00
   -4   -1    9      2.85      0.00
   -3   -1    9     -4.97      0.00
   -2   -1    9     -2.61      0.00
   -1   -1    9     -4.37      0.00
    0   -1    9      4.72      0.00
    1   -1    9      1.16      0.00
    2   -1    9      4.59      0.00
    3   -1    9      1.50      0.00
    4   -1    9     -2.22      0.00
    5   -1    9     -0.51      0.00
    6   -1    9     -6.57      0.00
    7   -1    9      3.45      0.00
    8   -1    9     -3.91      0.00
    9   -1    9     -0.32      0.00
   10   -1    9      0.67      0.00
   11   -1    9     -0.58      0.00
   12   -1    9      0.02      0.00
   13   -1    9      1.15      0.00
   14   -1    9     -2.01      0.00
  -11    0    9      1.25      0.00
  -10    0    9     -0.07      0.00
   -9    0    9      0.44      0.00
   -8    0    9     -0.99      0.00
   -7    0    9      0.82      0.00
   -6    0    9     -0.61      0.00
   -5    0    9      0.95      0.00
   -4    0    9     -2.00      0.00
   -3    0    9     -2.77      0.00
   -2    0    9     -5.68      0.00
   -1    0    9     -2.31      0.00
    0    0    9      2.45      0.00
    1    0    9      4.50      0.00
    2    0    9      0.75      0.00
    3    0    9      0.26      0.00
    5    0    9     -1.03      0.00
    6    0    9     -1.24      0.00
    7    0    9      1.19      0.00
    8    0    9      0.53      0.00
    9    0    9      1.83      0.00
   10    0    9     -0.54      0.00
   11    0    9      4.11      0.00
   12    0    9      0.00      0.00
   13    0    9      0.57      0.00
   14    0    9      0.33      0.00
  -10    1    9     -0.10      0.00
   -9    1    9     -0.15      0.00
   -8    1    9     -0.15      0.00
   -7    1    9      0.98      0.00
   -6    1    9     -0.74      0.00
   -5    1    9      0.70      0.00
   -4    1    9      1.61      0.00
   -3    1    9     -0.76      0.00
   -2    1    9     -3.71      0.00
   -1    1    9     -3.06      0.00
    0    1    9     -2.23      0.00
    1    1    9      5.04      0.00
    2    1    9     -0.40      0.00
    3    1    9     -0.94      0.00
    6    1    9     -1.74      0.00
    7    1    9     -6.20      0.00
    8    1    9      3.12      0.00
    9    1    9     -3.68      0.00
   10    1    9      2.47      0.00
   11    1    9     -0.01      0.00
   12    1    9      1.49      0.00
   13    1    9      0.91      0.00
   14    1    9     -1.16      0.00
  -10    2    9     -0.63      0.00
   -9    2    9      1.62      0.00
   -8    2    9      0.41      0.00
   -7    2    9     -2.53      0.00
   -6    2    9      3.38      0.00
   -5    2    9     -1.75      0.00
   -4    2    9     -3.56      0.00
   -3    2    9      2.01      0.00
   -2    2    9     -5.33      0.00
   -1    2    9     -1.30      0.00
    0    2    9      0.99      0.00
    1    2    9      4.05      0.00
    2    2    9      5.79      0.00
    3    2    9     -3.34      0.00
    4    2    9      0.86      0.00
    5    2    9     -4.52      0.00
    6    2    9      2.08      0.00
    7    2    9      0.22      0.00
    8    2    9     -7.19      0.00
    9    2    9      0.88      0.00
   10    2    9     -3.21      0.00
   11    2    9      1.63      0.00
   12    2    9      4.42      0.00
   13    2    9     -1.10      0.00
   14    2    9      3.48      0.00
   15    2    9     -1.85      0.00
  -10    3    9      1.48      0.00
   -9    3    9     -3.36      0.00
   -8    3    9      0.39      0.00
   -7    3    9      0.18      0.00
   -6    3    9     -2.47      0.00
   -5    3    9     -1.04      0.00
   -4    3    9      0.06      0.00
   -3    3    9     -2.99      0.00
   -2    3    9     10.69      0.00
   -1    3    9     -0.04      0.00
    0    3    9      5.44      0.00
    1    3    9     -1.42      0.00
    2    3    9      4.71      0.00
    3    3    9     -0.17      0.00
    4    3    9     -3.27      0.00
    5    3    9      1.42      0.00
    6    3    9      7.54      0.00
    7    3    9      5.36      0.00
    8    3    9      3.80      0.00
    9    3    9     -0.65      0.00
   10    3    9     -2.93      0.00
   11    3    9      0.08      0.00
   12    3    9      1.83      0.00
   13    3    9      3.77      0.00
   14    3    9     -2.33      0.00
   15    3    9      1.10      0.00
  -12    4    9     -1.40      0.00
  -11    4    9      0.53      0.00
  -10    4    9     -1.64      0.00
   -9    4    9      1.71      0.00
   -8    4    9     -1.09      0.00
   -7    4    9      2.46      0.00
   -6    4    9      0.49      0.00
   -5    4    9      2.03      0.00
   -4    4    9     -2.33      0.00
   -3    4    9     -0.17      0.00
   -2    4    9     -2.47      0.00
   -1    4    9      4.49      0.00
    0    4    9     -1.61      0.00
    1    4    9      5.42      0.00
    2    4    9     -0.68      0.00
    3    4    9      1.40      0.00
    4    4    9     -5.94      0.00
    5    4    9     -5.14      0.00
    6    4    9     -5.09      0.00
    7    4    9     -1.84      0.00
    8    4    9     -3.20      0.00
    9    4    9     -6.61      0.00
   10    4    9      1.07      0.00
   11    4    9     -1.92      0.00
   12    4    9     -0.83      0.00
   13    4    9      2.92      0.00
   14    4    9     -0.44      0.00
   15    4    9     -0.27      0.00
  -12    5    9      0.49      0.00
  -11    5    9      0.15      0.00
  -10    5    9      1.38      0.00
   -9    5    9     -0.89      0.00
   -8    5    9     -0.81      0.00
   -7    5    9     -0.40      0.00
   -6    5    9      0.74      0.00
   -5    5    9     -2.36      0.00
   -4    5    9     -1.97      0.00
   -3    5    9      0.94      0.00
   -1    5    9      2.90      0.00
    0    5    9      4.69      0.00
    1    5    9      3.55      0.00
    2    5    9      2.67      0.00
    3    5    9      1.96      0.00
    4    5    9      0.51      0.00
    5    5    9     -0.49      0.00
    6    5    9     -1.40      0.00
    7    5    9      2.84      0.00
    8    5    9     -1.82      0.00
    9    5    9     -0.33      0.00
   10    5    9     -0.76      0.00
   11    5    9     -1.44      0.00
   12    5    9      1.75      0.00
   13    5    9     -0.94      0.00
   14    5    9      3.94      0.00
   15    5    9     -0.28      0.00
  -11    6    9      0.64      0.00
  -10    6    9     -0.04      0.00
   -9    6    9     -1.38      0.00
   -8    6    9      0.09      0.00
   -7    6    9     -1.82      0.00
   -6    6    9      0.72      0.00
   -5    6    9      1.46      0.00
   -4    6    9      2.90      0.00
   -3    6    9     -3.12      0.00
   -2    6    9     10.05      0.00
    0    6    9      5.04      0.00
    1    6    9      3.05      0.00
    2    6    9      3.29      0.00
    3    6    9      1.03      0.00
    4    6    9      2.12      0.00
    5    6    9      0.61      0.00
    6    6    9     -1.11      0.00
    7    6    9     -1.34      0.00
    8    6    9      0.43      0.00
    9    6    9      1.50      0.00
   10    6    9     -2.49      0.00
   11    6    9      0.33      0.00
   12    6    9     -1.93      0.00
   13    6    9     -0.22      0.00
   14    6    9     -0.46      0.00
   15    6    9      0.94      0.00
  -11    7    9     -0.78      0.00
  -10    7    9      0.75      0.00
   -9    7    9      1.46      0.00
   -8    7    9     -0.45      0.00
   -7    7    9      3.04      0.00
   -6    7    9      0.51      0.00
   -5    7    9     -0.18      0.00
   -4    7    9     -3.32      0.00
   -3    7    9     -1.11      0.00
   -1    7    9     -1.82      0.00
    0    7    9     -4.65      0.00
    1    7    9      3.13      0.00
    2    7    9      3.56      0.00
    3    7    9      2.52      0.00
    4    7    9      0.60      0.00
    5    7    9     -0.36      0.00
    6    7    9     -0.26      0.00
    7    7    9     -4.75      0.00
    8    7    9      2.13      0.00
    9    7    9     -0.36      0.00
   10    7    9      1.86      0.00
   11    7    9     -1.37      0.00
   12    7    9     -1.10      0.00
   13    7    9      2.14      0.00
   14    7    9      0.59      0.00
   15    7    9     -0.67      0.00
  -11    8    9     -1.63      0.00
  -10    8    9     -0.55      0.00
   -9    8    9     -0.30      0.00
   -8    8    9      0.90      0.00
   -7    8    9     -1.76      0.00
   -6    8    9     -1.15      0.00
   -5    8    9     -0.18      0.00
   -4    8    9     -0.69      0.00
   -3    8    9     -3.03      0.00
   -2    8    9      0.05      0.00
   -1    8    9      3.84      0.00
    0    8    9      7.04      0.00
    1    8    9      6.27      0.00
    2    8    9      4.41      0.00
    3    8    9     -2.38      0.00
    4    8    9     -0.61      0.00
    5    8    9     -2.16      0.00
    6    8    9      1.00      0.00
    7    8    9      0.05      0.00
    8    8    9     -2.96      0.00
    9    8    9      2.53      0.00
   10    8    9      0.82      0.00
   11    8    9      0.99      0.00
   12    8    9     -2.10      0.00
   13    8    9      0.86      0.00
   14    8    9      1.71      0.00
   15    8    9      1.31      0.00
  -10    9    9     -0.96      0.00
   -9    9    9      0.57      0.00
   -8    9    9     -0.23      0.00
   -7    9    9      0.59      0.00
   -6    9    9      0.14      0.00
   -5    9    9     -1.07      0.00
   -4    9    9      1.44      0.00
   -3    9    9     -0.66      0.00
   -2    9    9     -0.13      0.00
   -1    9    9     -7.35      0.00
    0    9    9     -2.18      0.00
    1    9    9     -1.18      0.00
    2    9    9     -1.21      0.00
    3    9    9      2.10      0.00
    4    9    9     -3.48      0.00
    5    9    9      1.58      0.00
    6    9    9     -3.95      0.00
    7    9    9      0.55      0.00
    8    9    9     -2.49      0.00
    9    9    9     -1.06      0.00
   10    9    9     -0.26      0.00
   11    9    9     -1.31      0.00
   12    9    9     -1.19      0.00
   13    9    9     -1.71      0.00
   14    9    9      0.33      0.00
  -10   10    9     -0.41      0.00
   -9   10    9     -0.37      0.00
   -8   10    9     -0.82      0.00
   -7   10    9     -0.05      0.00
   -6   10    9     -0.99      0.00
   -5   10    9     -0.51      0.00
   -4   10    9      0.77      0.00
   -3   10    9      3.27      0.00
   -2   10    9     -0.58      0.00
   -1   10    9      1.54      0.00
    0   10    9     -4.38      0.00
    1   10    9     -0.71      0.00
    2   10    9      3.20      0.00
    3   10    9      5.79      0.00
    4   10    9      3.32      0.00
    5   10    9     -0.55      0.00
    6   10    9      0.11      0.00
    7   10    9     -1.08      0.00
    8   10    9      1.83      0.00
    9   10    9      0.75      0.00
   10   10    9      1.36      0.00
   11   10    9      0.72      0.00
   12   10    9      1.85      0.00
   13   10    9     -1.28      0.00
   14   10    9      0.86      0.00
   -9   11    9      0.08      0.00
   -8   11    9      2.04      0.00
   -7   11    9     -1.07      0.00
   -6   11    9     -0.56      0.00
   -5   11    9     -1.00      0.00
   -4   11    9     -2.12      0.00
   -3   11    9     -0.42      0.00
   -2   11    9     -0.72      0.00
   -1   11    9     -0.63      0.00
    0   11    9      0.10      0.00
    1   11    9     -1.71      0.00
    2   11    9      0.31      0.00
    3   11    9     -2.14      0.00
    4   11    9      3.93      0.00
    5   11    9     -1.39      0.00
    6   11    9      1.76      0.00
    7   11    9     -2.59      0.00
    8   11    9      1.31      0.00
    9   11    9     -0.70      0.00
   10   11    9      0.81      0.00
   11   11    9     -1.21      0.00
   12   11    9     -1.18      0.00
   13   11    9     -0.55      0.00
   14   11    9     -1.43      0.00
   -8   12    9     -0.17      0.00
   -7   12    9      0.72      0.00
   -6   12    9     -0.12      0.00
   -5   12    9     -0.94      0.00
   -4   12    9     -0.33      0.00
   -3   12    9     -1.00      0.00
   -2   12    9      0.37      0.00
   -1   12    9     -1.35      0.00
    0   12    9     -0.55      0.00
    1   12    9     -0.36      0.00
    2   12    9     -1.08      0.00
    3   12    9      0.01      0.00
    4   12    9     -0.19      0.00
    5   12    9      3.59      0.00
    6   12    9     -0.35      0.00
    7   12    9      2.72      0.00
    8   12    9     -2.13      0.00
    9   12    9      0.75      0.00
   10   12    9      1.28      0.00
   11   12    9      1.85      0.00
   13   12    9      0.46      0.00
   -7   13    9      1.21      0.00
   -6   13    9     -1.12      0.00
   -5   13    9     -0.18      0.00
   -4   13    9     -0.31      0.00
   -3   13    9     -0.01      0.00
   -2   13    9     -0.33      0.00
   -1   13    9     -0.17      0.00
    0   13    9     -1.07      0.00
    1   13    9     -2.11      0.00
    2   13    9     -1.24      0.00
    3   13    9      0.30      0.00
    4   13    9     -2.46      0.00
    5   13    9     -0.96      0.00
    6   13    9      0.97      0.00
    7   13    9     -0.37      0.00
    8   13    9      1.61      0.00
    9   13    9      1.45      0.00
   10   13    9     -1.44      0.00
   11   13    9      0.63      0.00
   12   13    9     -0.47      0.00
   -6   14    9      1.62      0.00
   -5   14    9     -2.70      0.00
   -4   14    9     -0.47      0.00
   -3   14    9      0.59      0.00
   -2   14    9      0.28      0.00
   -1   14    9     -0.62      0.00
    0   14    9     -0.09      0.00
    1   14    9     -0.12      0.00
    2   14    9      0.04      0.00
    3   14    9      0.58      0.00
    4   14    9      0.76      0.00
    5   14    9      0.84      0.00
    6   14    9     -0.23      0.00
    7   14    9      1.96      0.00
    8   14    9      0.42      0.00
   10   14    9      1.19      0.00
   11   14    9     -1.24      0.00
   -3   15    9     -0.51      0.00
   -2   15    9      0.28      0.00
   -1   15    9     -1.06      0.00
    0   15    9      0.18      0.00
    1   15    9      0.43      0.00
    2   15    9     -0.93      0.00
    3   15    9     -1.67      0.00
    4   15    9     -0.16      0.00
    5   15    9     -2.12      0.00
    6   15    9      1.17      0.00
    7   15    9     -0.55      0.00
    8   15    9      0.35      0.00
    1   16    9     -1.24      0.00
    2   16    9     -1.61      0.00
    3   16    9     -0.52      0.00
    4   16    9      0.43      0.00
    5   16    9      1.50      0.00
    6   16    9     -1.11      0.00
    7   16    9     -0.03      0.00
    8   16    9     -0.57      0.00
    2   -9   10     -0.53      0.00
   -2   -8   10      1.19      0.00
   -1   -8   10      1.05      0.00
    0   -8   10      0.83      0.00
    1   -8   10     -0.87      0.00
    2   -8   10     -0.92      0.00
    3   -8   10     -0.76      0.00
    4   -8   10     -2.27      0.00
    5   -8   10      0.85      0.00
   -4   -7   10     -1.03      0.00
   -3   -7   10      0.23      0.00
   -2   -7   10     -1.62      0.00
   -1   -7   10     -0.24      0.00
    0   -7   10     -0.53      0.00
    1   -7   10     -0.64      0.00
    2   -7   10      2.61      0.00
    3   -7   10      0.89      0.00
    4   -7   10      1.46      0.00
    5   -7   10     -0.01      0.00
    6   -7   10      1.69      0.00
    7   -7   10     -0.49      0.00
   -6   -6   10     -0.55      0.00
   -5   -6   10     -0.37      0.00
   -4   -6   10     -0.97      0.00
   -3   -6   10     -0.92      0.00
   -2   -6   10      0.54      0.00
   -1   -6   10     -0.88      0.00
    0   -6   10     -1.28      0.00
    1   -6   10     -1.07      0.00
    2   -6   10      0.75      0.00
    3   -6   10     -0.87      0.00
    4   -6   10      1.10      0.00
    5   -6   10     -2.40      0.00
    6   -6   10     -0.33      0.00
    7   -6   10     -1.04      0.00
    8   -6   10     -0.76      0.00
   -7   -5   10      1.12      0.00
   -6   -5   10     -1.35      0.00
   -5   -5   10      1.14      0.00
   -4   -5   10      0.63      0.00
   -3   -5   10      0.89      0.00
   -2   -5   10      2.87      0.00
   -1   -5   10      0.22      0.00
    0   -5   10      0.12      0.00
    1   -5   10      0.05      0.00
    2   -5   10     -1.97      0.00
    3   -5   10      2.83      0.00
    4   -5   10     -1.21      0.00
    5   -5   10      1.03      0.00
    6   -5   10     -1.51      0.00
    7   -5   10     -0.96      0.00
    8   -5   10     -1.26      0.00
    9   -5   10     -1.15      0.00
   -9   -4   10      0.44      0.00
   -8   -4   10      1.14      0.00
   -7   -4   10      0.44      0.00
   -6   -4   10     -0.17      0.00
   -5   -4   10     -1.79      0.00
   -4   -4   10     -0.01      0.00
   -3   -4   10      1.67      0.00
   -2   -4   10      0.91      0.00
   -1   -4   10      0.61      0.00
    0   -4   10     -2.74      0.00
    1   -4   10     -0.99      0.00
    2   -4   10     -0.83      0.00
    3   -4   10     -2.02      0.00
    4   -4   10      1.63      0.00
    5   -4   10      0.73      0.00
    6   -4   10      0.22      0.00
    7   -4   10      0.13      0.00
    8   -4   10     -3.41      0.00
    9   -4   10     -1.67      0.00
   10   -4   10     -2.12      0.00
   11   -4   10      1.63      0.00
  -10   -3   10      0.06      0.00
   -9   -3   10      0.38      0.00
   -8   -3   10     -0.38      0.00
   -7   -3   10     -1.25      0.00
   -6   -3   10     -1.94      0.00
   -5   -3   10     -0.19      0.00
   -4   -3   10     -0.99      0.00
   -3   -3   10      1.94      0.00
   -2   -3   10      3.31      0.00
   -1   -3   10      2.42      0.00
    0   -3   10      0.69      0.00
    1   -3   10     -0.58      0.00
    2   -3   10     -0.32      0.00
    3   -3   10     -0.06      0.00
    4   -3   10     -0.50      0.00
    5   -3   10      1.07      0.00
    6   -3   10      0.60      0.00
    7   -3   10     -1.38      0.00
    8   -3   10      1.70      0.00
    9   -3   10     -1.60      0.00
   10   -3   10      0.86      0.00
   11   -3   10      0.06      0.00
   12   -3   10     -0.13      0.00
  -10   -2   10     -0.51      0.00
   -9   -2   10      0.68      0.00
   -8   -2   10      0.47      0.00
   -7   -2   10      0.99      0.00
   -6   -2   10     -0.41      0.00
   -5   -2   10     -0.80      0.00
   -4   -2   10      0.71      0.00
   -3   -2   10      0.34      0.00
   -2   -2   10      2.66      0.00
   -1   -2   10      1.42      0.00
    0   -2   10      0.26      0.00
    1   -2   10     -1.92      0.00
    2   -2   10     -2.32      0.00
    3   -2   10     -1.78      0.00
    4   -2   10     -1.24      0.00
    5   -2   10      4.51      0.00
    6   -2   10     -1.93      0.00
    7   -2   10      1.91      0.00
    8   -2   10     -2.04      0.00
    9   -2   10      1.38      0.00
   10   -2   10     -0.19      0.00
   11   -2   10      0.52      0.00
   12   -2   10      0.70      0.00
  -11   -1   10      1.55      0.00
  -10   -1   10     -1.39      0.00
   -9   -1   10      1.22      0.00
   -8   -1   10      0.85      0.00
   -7   -1   10     -0.12      0.00
   -6   -1   10      0.59      0.00
   -5   -1   10      0.22      0.00
   -4   -1   10      0.34      0.00
   -3   -1   10      0.33      0.00
   -2   -1   10      2.43      0.00
   -1   -1   10      3.69      0.00
    0   -1   10     -0.49      0.00
    1   -1   10      0.51      0.00
    2   -1   10     -1.93      0.00
    3   -1   10     -2.63      0.00
    4   -1   10      0.64      0.00
    5   -1   10     -2.03      0.00
    6   -1   10      6.11      0.00
    7   -1   10     -4.35      0.00
    8   -1   10     -0.49      0.00
    9   -1   10     -1.67      0.00
   10   -1   10     -1.51      0.00
   11   -1   10      1.42      0.00
   12   -1   10      0.43      0.00
   13   -1   10      0.41      0.00
  -11    0   10     -1.25      0.00
  -10    0   10      1.20      0.00
   -9    0   10     -2.62      0.00
   -8    0   10      0.18      0.00
   -7    0   10     -0.61      0.00
   -6    0   10     -0.56      0.00
   -5    0   10     -0.60      0.00
   -4    0   10     -2.03      0.00
   -3    0   10     -2.71      0.00
   -2    0   10      1.40      0.00
   -1    0   10      5.91      0.00
    0    0   10      5.19      0.00
    1    0   10     -3.13      0.00
    2    0   10     -0.61      0.00
    3    0   10     -5.89      0.00
    4    0   10     -1.66      0.00
    5    0   10     -0.68      0.00
    6    0   10      3.71      0.00
    7    0   10      2.57      0.00
    8    0   10      0.36      0.00
    9    0   10     -0.04      0.00
   10    0   10      2.09      0.00
   11    0   10     -1.60      0.00
   12    0   10      2.44      0.00
   13    0   10     -0.35      0.00
  -11    1   10     -1.87      0.00
  -10    1   10     -1.59      0.00
   -9    1   10      0.31      0.00
   -8    1   10     -0.89      0.00
   -7    1   10      0.16      0.00
   -6    1   10     -1.19      0.00
   -5    1   10      0.23      0.00
   -4    1   10     -0.67      0.00
   -3    1   10     -1.83      0.00
   -2    1   10     -2.45      0.00
   -1    1   10      1.44      0.00
    0    1   10      5.04      0.00
    1    1   10      0.45      0.00
    2    1   10     -4.11      0.00
    3    1   10     -0.69      0.00
    4    1   10     -4.38      0.00
    5    1   10      1.40      0.00
    6    1   10     -3.83      0.00
    7    1   10      4.08      0.00
    8    1   10     -3.17      0.00
    9    1   10     -0.68      0.00
   10    1   10     -1.92      0.00
   11    1   10     -0.43      0.00
   12    1   10     -3.08      0.00
   13    1   10      0.41      0.00
   14    1   10     -0.34      0.00
  -10    2   10      0.54      0.00
   -9    2   10     -1.01      0.00
   -8    2   10     -0.89      0.00
   -7    2   10      1.06      0.00
   -6    2   10      0.60      0.00
   -5    2   10     -1.15      0.00
   -4    2   10      1.48      0.00
   -3    2   10     -2.31      0.00
   -2    2   10      1.52      0.00
   -1    2   10      2.58      0.00
    0    2   10      4.91      0.00
    1    2   10      5.45      0.00
    2    2   10     -1.45      0.00
    3    2   10      0.18      0.00
    4    2   10     -0.51      0.00
    5    2   10      1.12      0.00
    6    2   10      3.18      0.00
    7    2   10      0.80      0.00
    8    2   10      4.43      0.00
    9    2   10     -0.85      0.00
   10    2   10      1.13      0.00
   11    2   10      0.58      0.00
   12    2   10      0.39      0.00
   13    2   10      0.39      0.00
   14    2   10      0.38      0.00
  -10    3   10     -1.40      0.00
   -9    3   10     -0.14      0.00
   -8    3   10     -1.44      0.00
   -7    3   10     -1.10      0.00
   -6    3   10      1.11      0.00
   -5    3   10     -1.18      0.00
   -4    3   10     -1.59      0.00
   -3    3   10      4.11      0.00
   -2    3   10     -3.09      0.00
   -1    3   10      3.84      0.00
    0    3   10     -0.15      0.00
    1    3   10      1.20      0.00
    2    3   10     -1.60      0.00
    3    3   10     -5.97      0.00
    4    3   10     -1.43      0.00
    5    3   10     -0.53      0.00
    6    3   10      1.28      0.00
    7    3   10     -1.37      0.00
    8    3   10      2.31      0.00
   10    3   10     -0.13      0.00
   11    3   10      1.38      0.00
   12    3   10     -0.43      0.00
   13    3   10     -1.72      0.00
   14    3   10     -0.54      0.00
  -10    4   10      1.55      0.00
   -9    4   10     -0.97      0.00
   -8    4   10      1.33      0.00
   -7    4   10      0.00      0.00
   -6    4   10      1.26      0.00
   -5    4   10      2.37      0.00
   -4    4   10      1.13      0.00
   -3    4   10      3.02      0.00
   -2    4   10      0.88      0.00
   -1    4   10     -4.93      0.00
    0    4   10      0.76      0.00
    1    4   10      0.09      0.00
    2    4   10      0.38      0.00
    3    4   10     -2.61      0.00
    4    4   10     -3.72      0.00
    5    4   10     -0.21      0.00
    6    4   10     -1.56      0.00
    7    4   10     -2.23      0.00
    8    4   10     -8.47      0.00
    9    4   10      2.13      0.00
   10    4   10      0.41      0.00
   11    4   10     -0.56      0.00
   12    4   10      2.07      0.00
   13    4   10     -1.74      0.00
   14    4   10     -0.58      0.00
   15    4   10      1.59      0.00
  -10    5   10     -0.34      0.00
   -9    5   10      0.75      0.00
   -8    5   10     -0.44      0.00
   -7    5   10     -0.01      0.00
   -6    5   10     -2.01      0.00
   -5    5   10     -1.31      0.00
   -4    5   10      2.13      0.00
   -3    5   10     -2.57      0.00
   -2    5   10      6.54      0.00
   -1    5   10     -1.27      0.00
    0    5   10      1.35      0.00
    1    5   10      2.10      0.00
    2    5   10      2.27      0.00
    3    5   10      2.53      0.00
    4    5   10     -0.05      0.00
    5    5   10     -0.21      0.00
    6    5   10      6.10      0.00
    7    5   10      1.97      0.00
    8    5   10      0.94      0.00
    9    5   10     -1.94      0.00
   10    5   10      0.09      0.00
   11    5   10      2.52      0.00
   12    5   10     -1.71      0.00
   13    5   10      2.82      0.00
   14    5   10      0.20      0.00
   15    5   10     -0.38      0.00
  -11    6   10     -0.27      0.00
  -10    6   10      0.13      0.00
   -9    6   10     -1.59      0.00
   -8    6   10     -1.12      0.00
   -7    6   10      0.73      0.00
   -6    6   10     -0.59      0.00
   -5    6   10      0.63      0.00
   -4    6   10     -2.20      0.00
   -3    6   10      6.41      0.00
   -2    6   10     -2.72      0.00
   -1    6   10      1.65      0.00
    0    6   10     -4.78      0.00
    1    6   10     -6.12      0.00
    2    6   10     -1.90      0.00
    3    6   10     -6.29      0.00
    4    6   10     -0.37      0.00
    5    6   10     -2.94      0.00
    6    6   10     -1.79      0.00
    7    6   10      0.93      0.00
    8    6   10      0.88      0.00
    9    6   10     -4.24      0.00
   10    6   10     -0.08      0.00
   11    6   10     -1.85      0.00
   12    6   10      0.84      0.00
   13    6   10     -0.96      0.00
   14    6   10     -0.21      0.00
   15    6   10     -0.94      0.00
  -11    7   10      1.50      0.00
  -10    7   10     -1.17      0.00
   -9    7   10      0.92      0.00
   -8    7   10      2.21      0.00
   -7    7   10      0.04      0.00
   -6    7   10      2.27      0.00
   -5    7   10     -0.70      0.00
   -4    7   10      0.16      0.00
   -3    7   10     -4.65      0.00
   -2    7   10      0.15      0.00
   -1    7   10      0.60      0.00
    0    7   10     -0.63      0.00
    1    7   10      4.53      0.00
    2    7   10     -4.85      0.00
    3    7   10      1.22      0.00
    4    7   10     -4.97      0.00
    5    7   10     -0.89      0.00
    6    7   10     -2.86      0.00
    7    7   10      3.34      0.00
    8    7   10     -0.19      0.00
    9    7   10      1.55      0.00
   10    7   10     -2.90      0.00
   11    7   10      0.46      0.00
   12    7   10      2.09      0.00
   13    7   10      1.57      0.00
   14    7   10      1.20      0.00
   15    7   10      0.99      0.00
  -10    8   10      0.90      0.00
   -9    8   10     -0.96      0.00
   -8    8   10     -0.98      0.00
   -7    8   10      0.61      0.00
   -6    8   10     -1.35      0.00
   -5    8   10      0.68      0.00
   -4    8   10     -0.43      0.00
   -3    8   10     -0.74      0.00
   -2    8   10      3.26      0.00
   -1    8   10      2.23      0.00
    0    8   10      4.95      0.00
    1    8   10     -1.29      0.00
    2    8   10      0.36      0.00
    3    8   10     -4.85      0.00
    4    8   10     -3.59      0.00
    5    8   10      1.78      0.00
    6    8   10     -0.60      0.00
    7    8   10      0.35      0.00
    8    8   10      4.55      0.00
    9    8   10      1.16      0.00
   10    8   10      0.73      0.00
   11    8   10     -1.52      0.00
   12    8   10      0.32      0.00
   13    8   10      0.80      0.00
   14    8   10     -0.88      0.00
  -10    9   10      0.67      0.00
   -9    9   10     -0.11      0.00
   -8    9   10      0.23      0.00
   -7    9   10     -1.04      0.00
   -6    9   10      0.52      0.00
   -5    9   10      0.95      0.00
   -4    9   10      1.27      0.00
   -3    9   10      1.05      0.00
   -2    9   10     -2.12      0.00
   -1    9   10      1.06      0.00
    0    9   10     -2.55      0.00
    1    9   10     -4.52      0.00
    2    9   10     -1.28      0.00
    3    9   10     -4.42      0.00
    4    9   10      1.81      0.00
    5    9   10     -5.45      0.00
    6    9   10      3.30      0.00
    7    9   10     -2.96      0.00
    8    9   10      0.70      0.00
    9    9   10      0.53      0.00
   10    9   10     -1.63      0.00
   11    9   10     -0.41      0.00
   12    9   10      0.29      0.00
   13    9   10     -0.78      0.00
   14    9   10      0.48      0.00
   -9   10   10     -1.48      0.00
   -8   10   10     -0.43      0.00
   -7   10   10     -0.52      0.00
   -6   10   10     -0.70      0.00
   -5   10   10      0.82      0.00
   -4   10   10      1.35      0.00
   -3   10   10     -1.30      0.00
   -2   10   10     -0.22      0.00
   -1   10   10      1.63      0.00
    0   10   10      4.93      0.00
    1   10   10      2.78      0.00
    2   10   10      0.45      0.00
    3   10   10      3.70      0.00
    4   10   10     -3.41      0.00
    5   10   10      2.46      0.00
    6   10   10     -0.92      0.00
    7   10   10      2.74      0.00
    8   10   10      0.96      0.00
    9   10   10      0.26      0.00
   10   10   10      1.87      0.00
   11   10   10     -1.04      0.00
   12   10   10      0.14      0.00
   13   10   10      1.69      0.00
   14   10   10     -1.12      0.00
   -8   11   10     -1.87      0.00
   -7   11   10      1.65      0.00
   -6   11   10     -0.24      0.00
   -5   11   10     -0.58      0.00
   -4   11   10      0.38      0.00
   -3   11   10     -1.09      0.00
   -2   11   10     -3.35      0.00
   -1   11   10     -2.90      0.00
    0   11   10     -0.71      0.00
    1   11   10      2.71      0.00
    2   11   10     -2.30      0.00
    3   11   10     -2.75      0.00
    4   11   10     -2.52      0.00
    5   11   10     -2.65      0.00
    6   11   10     -1.72      0.00
    7   11   10      2.55      0.00
    8   11   10     -0.19      0.00
    9   11   10      1.98      0.00
   10   11   10     -1.82      0.00
   11   11   10      2.05      0.00
   12   11   10     -1.05      0.00
   13   11   10      0.90      0.00
   -7   12   10     -1.47      0.00
   -6   12   10      0.85      0.00
   -5   12   10      0.05      0.00
   -4   12   10     -0.38      0.00
   -3   12   10      0.69      0.00
   -2   12   10      0.00      0.00
   -1   12   10     -0.30      0.00
    0   12   10      1.02      0.00
    1   12   10      0.47      0.00
    2   12   10      2.62      0.00
    3   12   10      2.29      0.00
    4   12   10      0.04      0.00
    5   12   10     -1.94      0.00
    6   12   10      1.00      0.00
    7   12   10     -2.48      0.00
    8   12   10      2.44      0.00
    9   12   10      0.88      0.00
   10   12   10      0.60      0.00
   11   12   10      0.38      0.00
   12   12   10      1.97      0.00
   13   12   10     -0.19      0.00
   -6   13   10     -0.46      0.00
   -5   13   10     -0.39      0.00
   -4   13   10      0.01      0.00
   -3   13   10      0.32      0.00
   -2   13   10     -0.35      0.00
   -1   13   10      1.12      0.00
    0   13   10      0.11      0.00
    1   13   10      1.60      0.00
    2   13   10      2.18      0.00
    3   13   10      0.64      0.00
    4   13   10      2.18      0.00
    5   13   10     -0.56      0.00
    6   13   10     -3.33      0.00
    7   13   10      0.49      0.00
    9   13   10      1.26      0.00
   10   13   10      0.44      0.00
   11   13   10     -1.95      0.00
   12   13   10      0.34      0.00
   -4   14   10      0.77      0.00
   -3   14   10      1.09      0.00
   -2   14   10      1.23      0.00
   -1   14   10     -0.26      0.00
    0   14   10      1.13      0.00
    1   14   10      1.50      0.00
    2   14   10      0.60      0.00
    3   14   10      1.11      0.00
    4   14   10      0.78      0.00
    5   14   10     -1.39      0.00
    6   14   10      0.88      0.00
    7   14   10     -1.86      0.00
   11   14   10     -0.56      0.00
   -2   15   10     -0.68      0.00
   -1   15   10      0.10      0.00
    0   15   10     -0.34      0.00
    1   15   10     -0.80      0.00
    3   15   10     -0.89      0.00
    4   15   10     -0.57      0.00
    5   15   10      1.35      0.00
    6   15   10     -1.58      0.00
    7   15   10      1.95      0.00
    2   16   10     -0.05      0.00
    3   16   10      1.74      0.00
    4   16   10      0.54      0.00
    5   16   10      0.55      0.00
    6   16   10     -0.57      0.00
    7   16   10     -1.15      0.00
   -2   -7   11     -1.00      0.00
   -1   -7   11     -0.68      0.00
    0   -7   11     -1.30      0.00
    1   -7   11      0.45      0.00
    2   -7   11     -2.17      0.00
    3   -7   11      2.20      0.00
    4   -7   11      0.43      0.00
    5   -7   11      1.42      0.00
   -4   -6   11     -1.97      0.00
   -3   -6   11      0.77      0.00
   -2   -6   11      0.76      0.00
   -1   -6   11      1.22      0.00
    0   -6   11      2.21      0.00
    1   -6   11      1.31      0.00
    2   -6   11     -0.52      0.00
    3   -6   11     -0.23      0.00
    4   -6   11     -0.39      0.00
    5   -6   11      0.81      0.00
    6   -6   11     -2.91      0.00
    7   -6   11     -0.63      0.00
   -6   -5   11      0.74      0.00
   -5   -5   11      2.39      0.00
   -4   -5   11     -2.95      0.00
   -3   -5   11     -1.74      0.00
   -2   -5   11      0.98      0.00
   -1   -5   11     -1.03      0.00
    0   -5   11      1.31      0.00
    1   -5   11      0.11      0.00
    2   -5   11      2.15      0.00
    3   -5   11     -2.88      0.00
    4   -5   11      1.09      0.00
    5   -5   11      0.45      0.00
    6   -5   11      1.90      0.00
    7   -5   11     -0.56      0.00
    8   -5   11     -0.66      0.00
    9   -5   11      2.20      0.00
   -7   -4   11     -1.39      0.00
   -6   -4   11      2.22      0.00
   -5   -4   11     -1.17      0.00
   -4   -4   11      2.02      0.00
   -3   -4   11     -0.09      0.00
   -2   -4   11     -2.11      0.00
   -1   -4   11     -0.10      0.00
    0   -4   11     -0.96      0.00
    1   -4   11      0.30      0.00
    2   -4   11     -0.37      0.00
    3   -4   11      1.10      0.00
    4   -4   11     -1.84      0.00
    5   -4   11      0.83      0.00
    6   -4   11      0.46      0.00
    7   -4   11      1.14      0.00
    8   -4   11     -0.23      0.00
    9   -4   11     -1.02      0.00
   10   -4   11      2.32      0.00
   -8   -3   11     -1.15      0.00
   -7   -3   11     -0.82      0.00
   -6   -3   11     -0.55      0.00
   -5   -3   11     -0.72      0.00
   -4   -3   11     -0.17      0.00
   -3   -3   11     -0.35      0.00
   -2   -3   11     -0.98      0.00
   -1   -3   11     -1.29      0.00
    0   -3   11     -0.74      0.00
    1   -3   11      2.12      0.00
    2   -3   11     -0.40      0.00
    3   -3   11      0.94      0.00
    4   -3   11      0.57      0.00
    5   -3   11     -1.87      0.00
    6   -3   11     -0.95      0.00
    7   -3   11     -0.95      0.00
    8   -3   11      1.10      0.00
    9   -3   11      1.32      0.00
   11   -3   11      1.29      0.00
   -9   -2   11     -0.10      0.00
   -8   -2   11      1.35      0.00
   -7   -2   11      1.87      0.00
   -6   -2   11     -0.45      0.00
   -5   -2   11      4.00      0.00
   -4   -2   11      0.54      0.00
   -3   -2   11      2.14      0.00
   -2   -2   11      0.89      0.00
   -1   -2   11     -2.62      0.00
    0   -2   11     -0.66      0.00
    1   -2   11     -3.00      0.00
    2   -2   11      1.26      0.00
    3   -2   11     -1.01      0.00
    4   -2   11      2.18      0.00
    5   -2   11     -2.18      0.00
    6   -2   11     -1.18      0.00
    7   -2   11     -3.76      0.00
    8   -2   11     -0.33      0.00
    9   -2   11     -1.96      0.00
   10   -2   11      0.53      0.00
   11   -2   11     -1.02      0.00
   12   -2   11      0.27      0.00
   -9   -1   11      0.20      0.00
   -8   -1   11     -0.80      0.00
   -7   -1   11      1.11      0.00
   -6   -1   11      0.31      0.00
   -5   -1   11      0.72      0.00
   -4   -1   11      1.17      0.00
   -3   -1   11      0.26      0.00
   -2   -1   11      0.26      0.00
   -1   -1   11     -1.09      0.00
    0   -1   11     -2.15      0.00
    1   -1   11     -0.62      0.00
    2   -1   11     -0.60      0.00
    3   -1   11      2.33      0.00
    4   -1   11      0.83      0.00
    5   -1   11      2.29      0.00
    6   -1   11     -3.97      0.00
    7   -1   11      0.65      0.00
    8   -1   11     -1.54      0.00
    9   -1   11      0.98      0.00
   10   -1   11     -0.80      0.00
   11   -1   11      0.68      0.00
   12   -1   11      0.54      0.00
  -10    0   11     -0.82      0.00
   -9    0   11      0.55      0.00
   -8    0   11     -0.33      0.00
   -7    0   11     -1.52      0.00
   -6    0   11      1.00      0.00
   -5    0   11     -0.87      0.00
   -4    0   11      1.69      0.00
   -3    0   11      1.44      0.00
   -2    0   11      0.48      0.00
   -1    0   11      0.55      0.00
    0    0   11     -4.04      0.00
    1    0   11     -0.70      0.00
    2    0   11     -3.84      0.00
    3    0   11      2.36      0.00
    4    0   11      1.70      0.00
    5    0   11      2.31      0.00
    6    0   11     -1.99      0.00
    7    0   11     -3.39      0.00
    8    0   11      0.35      0.00
    9    0   11      2.40      0.00
   10    0   11     -0.24      0.00
   11    0   11      1.15      0.00
   12    0   11     -2.86      0.00
   13    0   11      0.99      0.00
  -10    1   11      0.47      0.00
   -9    1   11      2.21      0.00
   -8    1   11      0.76      0.00
   -7    1   11      0.01      0.00
   -6    1   11      0.06      0.00
   -5    1   11     -1.54      0.00
   -4    1   11      1.02      0.00
   -3    1   11      0.66      0.00
   -2    1   11      2.06      0.00
   -1    1   11      0.08      0.00
    0    1   11     -2.62      0.00
    1    1   11     -5.44      0.00
    2    1   11      1.51      0.00
    3    1   11     -2.22      0.00
    4    1   11      5.61      0.00
    5    1   11      2.02      0.00
    6    1   11      1.06      0.00
    7    1   11     -3.57      0.00
    8    1   11     -3.34      0.00
    9    1   11     -0.39      0.00
   10    1   11      1.50      0.00
   11    1   11     -2.16      0.00
   12    1   11      3.05      0.00
   13    1   11     -2.99      0.00
  -10    2   11      1.81      0.00
   -9    2   11     -0.49      0.00
   -8    2   11      1.69      0.00
   -7    2   11      1.29      0.00
   -6    2   11     -0.36      0.00
   -5    2   11      1.45      0.00
   -4    2   11     -1.53      0.00
   -3    2   11      1.92      0.00
   -2    2   11      4.28      0.00
   -1    2   11      1.77      0.00
    0    2   11      1.75      0.00
    1    2   11     -4.12      0.00
    2    2   11     -3.35      0.00
    3    2   11      0.75      0.00
    4    2   11      0.17      0.00
    5    2   11      2.82      0.00
    6    2   11      1.88      0.00
    7    2   11     -0.90      0.00
    8    2   11     -0.41      0.00
   10    2   11      1.83      0.00
   11    2   11      1.71      0.00
   12    2   11      0.39      0.00
   13    2   11      3.30      0.00
   14    2   11     -0.77      0.00
  -10    3   11     -0.34      0.00
   -9    3   11      1.01      0.00
   -8    3   11      1.12      0.00
   -7    3   11      0.40      0.00
   -6    3   11     -0.55      0.00
   -5    3   11      0.68      0.00
   -4    3   11     -1.32      0.00
   -3    3   11      1.72      0.00
   -2    3   11     -1.43      0.00
   -1    3   11      1.37      0.00
    0    3   11     -3.15      0.00
    1    3   11     -2.27      0.00
    2    3   11     -7.68      0.00
    3    3   11     -3.93      0.00
    4    3   11     -1.92      0.00
    5    3   11      1.62      0.00
    6    3   11     -0.03      0.00
    7    3   11      0.68      0.00
    8    3   11     -4.02      0.00
    9    3   11     -1.23      0.00
   10    3   11     -0.21      0.00
   11    3   11     -0.01      0.00
   12    3   11     -1.87      0.00
   13    3   11     -0.71      0.00
   14    3   11     -1.20      0.00
  -10    4   11     -1.84      0.00
   -9    4   11      1.80      0.00
   -8    4   11     -0.16      0.00
   -7    4   11      2.20      0.00
   -6    4   11      1.45      0.00
   -5    4   11     -2.23      0.00
   -4    4   11      4.22      0.00
   -3    4   11     -1.04      0.00
   -2    4   11      1.69      0.00
   -1    4   11     -1.96      0.00
    0    4   11      0.36      0.00
    1    4   11     -0.70      0.00
    2    4   11     -0.36      0.00
    3    4   11     -2.84      0.00
    4    4   11      1.25      0.00
    5    4   11      0.89      0.00
    6    4   11      2.86      0.00
    7    4   11     -1.84      0.00
    8    4   11      1.91      0.00
    9    4   11     -1.91      0.00
   10    4   11     -0.30      0.00
   11    4   11      1.95      0.00
   12    4   11     -1.24      0.00
   13    4   11     -0.06      0.00
   14    4   11      2.51      0.00
  -10    5   11     -1.05      0.00
   -9    5   11     -2.30      0.00
   -8    5   11      1.52      0.00
   -7    5   11     -1.82      0.00
   -6    5   11     -1.12      0.00
   -5    5   11      0.17      0.00
   -4    5   11     -4.28      0.00
   -3    5   11     -0.47      0.00
   -2    5   11     -1.45      0.00
   -1    5   11     -1.21      0.00
    0    5   11     -1.57      0.00
    1    5   11     -1.09      0.00
    2    5   11      0.95      0.00
    3    5   11     -2.59      0.00
    4    5   11     -0.64      0.00
    5    5   11      2.92      0.00
    6    5   11      0.99      0.00
    7    5   11      1.90      0.00
    8    5   11      0.57      0.00
    9    5   11      1.89      0.00
   10    5   11      0.88      0.00
   11    5   11     -0.80      0.00
   12    5   11      3.57      0.00
   13    5   11     -0.37      0.00
   14    5   11      0.12      0.00
  -10    6   11     -2.53      0.00
   -9    6   11      0.15      0.00
   -8    6   11     -0.51      0.00
   -7    6   11     -1.03      0.00
   -6    6   11     -0.20      0.00
   -5    6   11      0.10      0.00
   -4    6   11      1.91      0.00
   -3    6   11     -1.21      0.00
   -2    6   11     -1.76      0.00
   -1    6   11     -1.41      0.00
    0    6   11     -3.89      0.00
    1    6   11     -1.24      0.00
    2    6   11     -7.36      0.00
    3    6   11     -1.16      0.00
    4    6   11     -5.21      0.00
    5    6   11     -0.78      0.00
    6    6   11      0.97      0.00
    7    6   11     -0.49      0.00
    8    6   11     -2.73      0.00
    9    6   11      1.05      0.00
   10    6   11      0.00      0.00
   11    6   11      1.08      0.00
   12    6   11     -0.66      0.00
   13    6   11      0.01      0.00
   14    6   11     -1.42      0.00
   -9    7   11      0.53      0.00
   -8    7   11      2.24      0.00
   -7    7   11      1.95      0.00
   -6    7   11     -0.36      0.00
   -5    7   11      0.80      0.00
   -4    7   11     -0.01      0.00
   -3    7   11      0.36      0.00
   -2    7   11     -1.18      0.00
   -1    7   11      1.18      0.00
    0    7   11      4.49      0.00
    1    7   11     -0.29      0.00
    2    7   11      7.27      0.00
    3    7   11     -0.61      0.00
    4    7   11      3.02      0.00
    5    7   11      0.45      0.00
    6    7   11      3.18      0.00
    7    7   11      1.66      0.00
    8    7   11      0.47      0.00
    9    7   11     -0.83      0.00
   10    7   11      1.61      0.00
   11    7   11      1.36      0.00
   12    7   11      0.96      0.00
   13    7   11      0.68      0.00
   14    7   11      0.13      0.00
   -9    8   11      0.61      0.00
   -8    8   11      0.52      0.00
   -7    8   11     -0.80      0.00
   -6    8   11     -1.35      0.00
   -5    8   11     -1.99      0.00
   -4    8   11      0.65      0.00
   -3    8   11      0.74      0.00
   -2    8   11      1.31      0.00
   -1    8   11     -1.67      0.00
    0    8   11     -3.01      0.00
    1    8   11     -1.63      0.00
    2    8   11     -5.30      0.00
    3    8   11     -0.33      0.00
    4    8   11      1.40      0.00
    5    8   11      0.51      0.00
    6    8   11      0.65      0.00
    7    8   11      1.33      0.00
    8    8   11      1.29      0.00
    9    8   11     -0.93      0.00
   10    8   11     -0.55      0.00
   11    8   11      0.88      0.00
   12    8   11      0.23      0.00
   13    8   11     -1.61      0.00
   14    8   11     -1.36      0.00
   -9    9   11      0.69      0.00
   -8    9   11     -1.02      0.00
   -7    9   11      0.76      0.00
   -6    9   11     -1.30      0.00
   -5    9   11      0.56      0.00
   -4    9   11     -1.20      0.00
   -3    9   11      1.65      0.00
   -2    9   11      2.54      0.00
   -1    9   11      3.00      0.00
    0    9   11      0.86      0.00
    1    9   11      1.02      0.00
    2    9   11     -2.62      0.00
    3    9   11      3.62      0.00
    4    9   11     -2.81      0.00
    5    9   11      3.31      0.00
    6    9   11     -1.44      0.00
    7    9   11      0.38      0.00
    8    9   11     -1.61      0.00
    9    9   11     -1.86      0.00
   10    9   11     -1.10      0.00
   11    9   11     -1.02      0.00
   12    9   11      0.73      0.00
   13    9   11      1.24      0.00
   14    9   11     -1.13      0.00
   -8   10   11     -0.07      0.00
   -7   10   11     -0.75      0.00
   -6   10   11      1.36      0.00
   -5   10   11     -0.01      0.00
   -4   10   11      0.00      0.00
   -3   10   11     -0.26      0.00
   -2   10   11     -0.35      0.00
   -1   10   11      0.93      0.00
    0   10   11      0.92      0.00
    1   10   11     -0.11      0.00
    2   10   11      4.18      0.00
    3   10   11     -5.14      0.00
    4   10   11      5.25      0.00
    5   10   11     -1.55      0.00
    6   10   11      2.21      0.00
    7   10   11      0.24      0.00
    8   10   11      0.66      0.00
    9   10   11      1.35      0.00
   10   10   11     -1.31      0.00
   11   10   11      0.75      0.00
   12   10   11      0.48      0.00
   13   10   11      0.77      0.00
   -7   11   11     -0.18      0.00
   -6   11   11      0.75      0.00
   -5   11   11     -0.27      0.00
   -4   11   11      0.78      0.00
   -3   11   11     -0.61      0.00
   -2   11   11      2.28      0.00
   -1   11   11     -0.54      0.00
    0   11   11     -0.20      0.00
    1   11   11     -2.44      0.00
    2   11   11     -1.94      0.00
    3   11   11     -0.55      0.00
    4   11   11     -3.45      0.00
    5   11   11     -0.32      0.00
    6   11   11      1.53      0.00
    7   11   11     -1.75      0.00
    8   11   11      0.06      0.00
    9   11   11     -2.06      0.00
   10   11   11      0.51      0.00
   11   11   11     -1.37      0.00
   12   11   11      0.00      0.00
   13   11   11     -0.21      0.00
   -6   12   11     -1.28      0.00
   -5   12   11      0.30      0.00
   -4   12   11     -0.27      0.00
   -3   12   11     -0.15      0.00
   -2   12   11      0.55      0.00
   -1   12   11      3.12      0.00
    0   12   11     -0.59      0.00
    1   12   11      0.78      0.00
    2   12   11     -0.75      0.00
    3   12   11      1.66      0.00
    4   12   11     -1.02      0.00
    5   12   11      2.65      0.00
    6   12   11     -0.11      0.00
    7   12   11      3.40      0.00
    8   12   11     -1.47      0.00
    9   12   11     -0.87      0.00
   10   12   11     -1.45      0.00
   11   12   11     -0.45      0.00
   12   12   11     -1.37      0.00
   -5   13   11      0.13      0.00
   -4   13   11      0.06      0.00
   -3   13   11      1.47      0.00
   -2   13   11      0.36      0.00
   -1   13   11      0.21      0.00
    0   13   11      2.03      0.00
    1   13   11     -0.12      0.00
    2   13   11     -1.33      0.00
    3   13   11     -0.77      0.00
    4   13   11     -2.06      0.00
    5   13   11     -1.81      0.00
    6   13   11      0.01      0.00
    7   13   11      0.69      0.00
    9   13   11     -1.80      0.00
   10   13   11     -2.72      0.00
   11   13   11     -1.90      0.00
   12   13   11     -0.75      0.00
   -3   14   11      0.11      0.00
   -2   14   11      0.30      0.00
   -1   14   11      0.18      0.00
    0   14   11     -1.07      0.00
    1   14   11     -0.20      0.00
    2   14   11      0.42      0.00
    3   14   11     -2.85      0.00
    4   14   11     -1.86      0.00
    5   14   11     -1.69      0.00
    6   14   11      0.07      0.00
    7   14   11      0.10      0.00
   11   14   11     -0.41      0.00
   -1   15   11     -1.16      0.00
    0   15   11     -1.68      0.00
    1   15   11     -1.09      0.00
    2   15   11     -0.28      0.00
    3   15   11      0.22      0.00
    4   15   11      0.70      0.00
    5   15   11     -0.93      0.00
    6   15   11      2.83      0.00
    7   15   11      0.01      0.00
    4   16   11     -0.76      0.00
    5   16   11     -0.26      0.00
    6   16   11     -1.36      0.00
    7   16   11      0.85      0.00
   -1   -6   12      1.50      0.00
    0   -6   12     -0.51      0.00
    1   -6   12      1.65      0.00
    2   -6   12      0.32      0.00
    3   -6   12      2.93      0.00
    4   -6   12     -1.10      0.00
    5   -6   12     -2.14      0.00
   -3   -5   12      0.97      0.00
   -2   -5   12     -0.85      0.00
   -1   -5   12      0.52      0.00
    0   -5   12     -1.04      0.00
    1   -5   12     -2.71      0.00
    2   -5   12     -1.03      0.00
    3   -5   12     -0.45      0.00
    4   -5   12     -0.07      0.00
    5   -5   12     -0.31      0.00
    6   -5   12     -0.17      0.00
    7   -5   12      1.56      0.00
   -5   -4   12      2.68      0.00
   -4   -4   12      0.03      0.00
   -3   -4   12      2.58      0.00
   -2   -4   12      1.48      0.00
   -1   -4   12      0.00      0.00
    0   -4   12     -0.14      0.00
    1   -4   12     -1.26      0.00
    2   -4   12     -0.68      0.00
    3   -4   12      0.03      0.00
    4   -4   12      1.54      0.00
    5   -4   12     -0.99      0.00
    6   -4   12      0.12      0.00
    7   -4   12     -1.35      0.00
    8   -4   12      1.92      0.00
    9   -4   12      0.50      0.00
   -6   -3   12     -1.37      0.00
   -5   -3   12     -2.20      0.00
   -4   -3   12     -0.06      0.00
   -3   -3   12     -1.29      0.00
   -2   -3   12     -0.07      0.00
   -1   -3   12     -1.17      0.00
    0   -3   12      1.20      0.00
    1   -3   12     -1.28      0.00
    2   -3   12     -1.57      0.00
    3   -3   12     -0.07      0.00
    4   -3   12     -0.09      0.00
    5   -3   12     -0.16      0.00
    6   -3   12     -1.73      0.00
    7   -3   12     -0.08      0.00
    8   -3   12     -0.88      0.00
    9   -3   12      2.36      0.00
   10   -3   12      1.02      0.00
   -7   -2   12      1.67      0.00
   -6   -2   12      3.71      0.00
   -5   -2   12     -0.05      0.00
   -4   -2   12      3.89      0.00
   -3   -2   12      2.17      0.00
   -2   -2   12     -1.48      0.00
   -1   -2   12      1.60      0.00
    0   -2   12     -1.93      0.00
    1   -2   12      1.77      0.00
    2   -2   12     -0.64      0.00
    3   -2   12     -0.06      0.00
    4   -2   12      0.27      0.00
    5   -2   12      0.40      0.00
    6   -2   12     -0.32      0.00
    7   -2   12      1.95      0.00
    8   -2   12     -0.71      0.00
    9   -2   12      2.12      0.00
   10   -2   12     -0.02      0.00
   11   -2   12      2.54      0.00
   -8   -1   12     -0.11      0.00
   -7   -1   12     -2.42      0.00
   -6   -1   12     -0.21      0.00
   -5   -1   12      0.13      0.00
   -4   -1   12     -1.81      0.00
   -3   -1   12     -0.22      0.00
   -2   -1   12     -0.05      0.00
   -1   -1   12     -3.21      0.00
    0   -1   12      1.83      0.00
    1   -1   12     -1.04      0.00
    2   -1   12      1.63      0.00
    3   -1   12      0.50      0.00
    4   -1   12     -1.15      0.00
    5   -1   12      0.01      0.00
    6   -1   12      0.01      0.00
    7   -1   12      2.08      0.00
    8   -1   12      3.28      0.00
    9   -1   12     -0.03      0.00
   10   -1   12      3.06      0.00
   11   -1   12      0.49      0.00
   -8    0   12     -1.52      0.00
   -7    0   12     -0.18      0.00
   -6    0   12     -2.83      0.00
   -5    0   12      2.06      0.00
   -4    0   12     -0.88      0.00
   -3    0   12     -0.34      0.00
   -2    0   12     -1.67      0.00
   -1    0   12     -1.85      0.00
    0    0   12     -1.62      0.00
    1    0   12      0.18      0.00
    2    0   12      2.06      0.00
    3    0   12      0.84      0.00
    4    0   12      0.30      0.00
    5    0   12     -2.56      0.00
    6    0   12     -1.00      0.00
    7    0   12     -0.87      0.00
    8    0   12      2.27      0.00
    9    0   12     -0.20      0.00
   10    0   12      0.92      0.00
   11    0   12     -1.36      0.00
   12    0   12      1.69      0.00
   -9    1   12     -0.38      0.00
   -8    1   12      0.67      0.00
   -7    1   12     -0.32      0.00
   -6    1   12      0.45      0.00
   -5    1   12     -1.02      0.00
   -4    1   12     -0.34      0.00
   -3    1   12     -0.57      0.00
   -2    1   12     -0.08      0.00
   -1    1   12     -2.28      0.00
    0    1   12     -1.55      0.00
    1    1   12      3.08      0.00
    2    1   12     -0.38      0.00
    3    1   12      4.28      0.00
    4    1   12      0.91      0.00
    5    1   12     -3.03      0.00
    6    1   12      0.66      0.00
    7    1   12     -0.48      0.00
    8    1   12      1.43      0.00
    9    1   12      0.96      0.00
   10    1   12     -1.28      0.00
   11    1   12      2.98      0.00
   12    1   12     -1.66      0.00
   13    1   12      3.72      0.00
   -9    2   12     -0.32      0.00
   -8    2   12     -0.57      0.00
   -7    2   12     -0.91      0.00
   -6    2   12      0.71      0.00
   -5    2   12      0.71      0.00
   -4    2   12      0.30      0.00
   -3    2   12      0.75      0.00
   -2    2   12     -1.66      0.00
   -1    2   12      0.34      0.00
    0    2   12     -3.99      0.00
    1    2   12     -0.95      0.00
    2    2   12      4.20      0.00
    3    2   12      0.64      0.00
    4    2   12      0.98      0.00
    5    2   12     -1.13      0.00
    6    2   12     -5.77      0.00
    7    2   12      1.40      0.00
    8    2   12      0.18      0.00
    9    2   12      2.16      0.00
   10    2   12     -1.00      0.00
   11    2   12     -0.33      0.00
   12    2   12      0.79      0.00
   13    2   12     -1.78      0.00
   -9    3   12      0.15      0.00
   -8    3   12     -2.36      0.00
   -7    3   12      0.47      0.00
   -6    3   12     -1.59      0.00
   -5    3   12     -1.19      0.00
   -4    3   12      2.66      0.00
   -3    3   12     -2.19      0.00
   -2    3   12      2.39      0.00
   -1    3   12     -3.79      0.00
    0    3   12     -0.37      0.00
    1    3   12     -3.85      0.00
    2    3   12      1.60      0.00
    3    3   12      2.22      0.00
    4    3   12      2.38      0.00
    5    3   12      1.80      0.00
    6    3   12     -1.45      0.00
    7    3   12     -2.27      0.00
    8    3   12      0.46      0.00
    9    3   12      0.41      0.00
   10    3   12      1.84      0.00
   11    3   12     -1.60      0.00
   12    3   12     -0.13      0.00
   13    3   12     -1.63      0.00
   -9    4   12     -1.46      0.00
   -8    4   12      1.37      0.00
   -7    4   12     -1.61      0.00
   -6    4   12     -1.35      0.00
   -5    4   12      0.78      0.00
   -4    4   12     -2.29      0.00
   -3    4   12      0.99      0.00
   -2    4   12     -2.75      0.00
   -1    4   12      0.93      0.00
    0    4   12     -2.59      0.00
    1    4   12      0.30      0.00
    2    4   12     -0.33      0.00
    3    4   12      6.85      0.00
    4    4   12      6.23      0.00
    5    4   12      1.57      0.00
    6    4   12      0.14      0.00
    7    4   12     -3.25      0.00
    8    4   12     -1.76      0.00
    9    4   12      0.51      0.00
   10    4   12      0.87      0.00
   11    4   12      0.44      0.00
   12    4   12      1.04      0.00
   13    4   12      1.50      0.00
   -9    5   12      1.14      0.00
   -8    5   12     -1.90      0.00
   -7    5   12     -0.63      0.00
   -6    5   12     -0.43      0.00
   -5    5   12     -2.79      0.00
   -4    5   12      0.16      0.00
   -3    5   12      0.06      0.00
   -2    5   12     -3.53      0.00
   -1    5   12     -0.86      0.00
    0    5   12     -0.12      0.00
    1    5   12     -2.01      0.00
    2    5   12     -2.38      0.00
    3    5   12     -0.54      0.00
    4    5   12      3.29      0.00
    5    5   12      3.94      0.00
    6    5   12     -1.48      0.00
    7    5   12     -1.60      0.00
    8    5   12     -0.38      0.00
    9    5   12     -0.34      0.00
   10    5   12      1.27      0.00
   11    5   12      2.54      0.00
   12    5   12      0.43      0.00
   13    5   12      0.54      0.00
   14    5   12     -0.86      0.00
   -9    6   12      1.52      0.00
   -8    6   12      0.58      0.00
   -7    6   12     -0.12      0.00
   -6    6   12      1.74      0.00
   -5    6   12      0.47      0.00
   -4    6   12      1.16      0.00
   -3    6   12     -0.44      0.00
   -2    6   12      2.78      0.00
   -1    6   12     -1.34      0.00
    0    6   12      2.86      0.00
    1    6   12      0.12      0.00
    2    6   12      0.42      0.00
    3    6   12     -0.97      0.00
    4    6   12      2.12      0.00
    5    6   12      3.34      0.00
    6    6   12      0.54      0.00
    7    6   12     -2.22      0.00
    8    6   12     -2.45      0.00
    9    6   12      0.08      0.00
   10    6   12     -1.51      0.00
   11    6   12      0.19      0.00
   12    6   12     -0.96      0.00
   13    6   12     -0.87      0.00
   14    6   12     -1.52      0.00
   -9    7   12      2.25      0.00
   -8    7   12      1.12      0.00
   -7    7   12      1.08      0.00
   -6    7   12      0.74      0.00
   -5    7   12      1.97      0.00
   -4    7   12     -0.51      0.00
   -3    7   12      0.58      0.00
   -2    7   12      1.93      0.00
   -1    7   12      1.13      0.00
    0    7   12     -0.84      0.00
    1    7   12      3.20      0.00
    2    7   12     -0.16      0.00
    3    7   12      3.68      0.00
    4    7   12      2.79      0.00
    5    7   12      4.08      0.00
    6    7   12      1.53      0.00
    7    7   12     -2.62      0.00
    8    7   12      0.02      0.00
    9    7   12     -0.26      0.00
   10    7   12      1.98      0.00
   11    7   12     -0.75      0.00
   12    7   12      2.08      0.00
   13    7   12      0.89      0.00
   14    7   12      0.96      0.00
   -8    8   12     -1.19      0.00
   -7    8   12     -2.31      0.00
   -6    8   12     -1.47      0.00
   -5    8   12      0.81      0.00
   -4    8   12     -2.46      0.00
   -3    8   12      1.30      0.00
   -2    8   12     -2.79      0.00
   -1    8   12      2.03      0.00
    0    8   12     -0.68      0.00
    1    8   12     -2.12      0.00
    2    8   12     -0.51      0.00
    3    8   12     -1.95      0.00
    4    8   12      0.64      0.00
    5    8   12     -1.54      0.00
    6    8   12      2.01      0.00
    7    8   12     -0.77      0.00
    8    8   12     -4.20      0.00
    9    8   12      0.26      0.00
   10    8   12      0.55      0.00
   11    8   12      0.20      0.00
   12    8   12     -0.42      0.00
   13    8   12     -0.07      0.00
   14    8   12      0.61      0.00
   -8    9   12     -1.04      0.00
   -7    9   12     -1.41      0.00
   -6    9   12      1.08      0.00
   -5    9   12     -0.80      0.00
   -4    9   12      2.85      0.00
   -3    9   12     -1.80      0.00
   -2    9   12      2.61      0.00
   -1    9   12     -0.61      0.00
    0    9   12      2.10      0.00
    1    9   12      1.15      0.00
    2    9   12      3.37      0.00
    3    9   12      0.34      0.00
    4    9   12      2.67      0.00
    5    9   12      0.77      0.00
    6    9   12      0.18      0.00
    7    9   12      0.64      0.00
    8    9   12     -1.13      0.00
    9    9   12     -3.12      0.00
   10    9   12     -0.95      0.00
   11    9   12      0.84      0.00
   12    9   12     -1.19      0.00
   13    9   12      0.21      0.00
   -7   10   12      0.72      0.00
   -6   10   12      0.49      0.00
   -5   10   12      2.28      0.00
   -4   10   12     -0.31      0.00
   -3   10   12     -0.12      0.00
   -2   10   12     -0.67      0.00
   -1   10   12     -3.23      0.00
    0   10   12     -2.63      0.00
    1   10   12     -0.54      0.00
    2   10   12     -1.40      0.00
    3   10   12      3.12      0.00
    4   10   12     -0.65      0.00
    5   10   12      2.73      0.00
    6   10   12     -1.46      0.00
    7   10   12      0.71      0.00
    8   10   12      0.70      0.00
    9   10   12     -0.61      0.00
   10   10   12     -0.39      0.00
   11   10   12      0.73      0.00
   12   10   12     -0.15      0.00
   13   10   12     -0.40      0.00
   -6   11   12      0.10      0.00
   -5   11   12      0.61      0.00
   -4   11   12     -0.66      0.00
   -3   11   12      0.00      0.00
   -2   11   12     -0.21      0.00
   -1   11   12      1.80      0.00
    0   11   12     -2.92      0.00
    1   11   12     -0.48      0.00
    2   11   12     -1.24      0.00
    3   11   12      0.52      0.00
    4   11   12      0.66      0.00
    5   11   12      1.13      0.00
    6   11   12      0.93      0.00
    7   11   12      0.74      0.00
    8   11   12     -0.96      0.00
    9   11   12      0.83      0.00
   10   11   12     -0.53      0.00
   11   11   12     -0.54      0.00
   12   11   12      0.54      0.00
   -5   12   12      0.50      0.00
   -4   12   12      1.01      0.00
   -3   12   12     -0.43      0.00
   -2   12   12     -0.65      0.00
   -1   12   12     -1.53      0.00
    0   12   12      2.18      0.00
    1   12   12     -1.32      0.00
    2   12   12      2.45      0.00
    3   12   12     -1.13      0.00
    4   12   12      3.05      0.00
    5   12   12      2.47      0.00
    6   12   12      1.46      0.00
    8   12   12      1.26      0.00
    9   12   12     -0.08      0.00
   10   12   12      0.84      0.00
   11   12   12      0.08      0.00
   12   12   12      1.72      0.00
   -4   13   12      1.88      0.00
   -3   13   12      1.06      0.00
   -2   13   12      0.71      0.00
   -1   13   12      1.09      0.00
    0   13   12     -1.93      0.00
    1   13   12      1.84      0.00
    2   13   12      0.42      0.00
    3   13   12     -0.01      0.00
    4   13   12      0.76      0.00
    5   13   12     -0.07      0.00
    6   13   12      2.16      0.00
   10   13   12      0.47      0.00
   11   13   12      0.99      0.00
   -2   14   12     -0.04      0.00
   -1   14   12      0.29      0.00
    0   14   12     -0.76      0.00
    1   14   12     -1.80      0.00
    2   14   12     -1.61      0.00
    3   14   12      0.28      0.00
    4   14   12     -0.93      0.00
    5   14   12      2.25      0.00
    6   14   12      2.24      0.00
    1   15   12     -1.69      0.00
    2   15   12      0.24      0.00
    3   15   12      0.45      0.00
    4   15   12      0.80      0.00
    5   15   12      3.50      0.00
    6   15   12      0.03      0.00
    7   15   12      1.99      0.00
    6   16   12      1.32      0.00
    7   16   12     -0.71      0.00
    0   -5   13     -2.12      0.00
    1   -5   13      1.20      0.00
    2   -5   13     -1.99      0.00
    4   -5   13     -1.24      0.00
    5   -5   13     -0.14      0.00
   -2   -4   13      0.57      0.00
   -1   -4   13     -2.26      0.00
    0   -4   13     -0.01      0.00
    1   -4   13     -0.71      0.00
    2   -4   13      1.21      0.00
    3   -4   13      1.25      0.00
    4   -4   13      0.13      0.00
    5   -4   13      1.00      0.00
    6   -4   13     -0.96      0.00
    7   -4   13      1.32      0.00
   -4   -3   13     -1.02      0.00
   -3   -3   13     -1.23      0.00
   -2   -3   13     -1.55      0.00
   -1   -3   13      0.22      0.00
    0   -3   13     -1.89      0.00
    1   -3   13     -0.68      0.00
    2   -3   13      1.65      0.00
    3   -3   13     -0.43      0.00
    4   -3   13      0.85      0.00
    5   -3   13     -0.97      0.00
    6   -3   13      0.51      0.00
    7   -3   13     -1.15      0.00
    8   -3   13      1.66      0.00
   -5   -2   13      2.48      0.00
   -4   -2   13      2.51      0.00
   -3   -2   13     -1.12      0.00
   -2   -2   13      1.13      0.00
   -1   -2   13     -1.05      0.00
    0   -2   13      0.10      0.00
    1   -2   13      0.21      0.00
    2   -2   13     -0.63      0.00
    3   -2   13      2.31      0.00
    4   -2   13     -0.69      0.00
    5   -2   13      0.58      0.00
    6   -2   13      1.13      0.00
    7   -2   13      1.15      0.00
    8   -2   13      1.04      0.00
    9   -2   13     -0.34      0.00
   -6   -1   13     -3.92      0.00
   -5   -1   13     -1.55      0.00
   -4   -1   13     -1.65      0.00
   -3   -1   13     -0.47      0.00
   -2   -1   13     -3.26      0.00
   -1   -1   13      1.30      0.00
    0   -1   13     -1.38      0.00
    1   -1   13     -0.59      0.00
    2   -1   13      0.30      0.00
    3   -1   13     -0.65      0.00
    4   -1   13      1.16      0.00
    5   -1   13     -1.47      0.00
    6   -1   13      0.99      0.00
    7   -1   13     -0.05      0.00
    8   -1   13     -0.49      0.00
    9   -1   13      0.55      0.00
   10   -1   13     -1.52      0.00
   -7    0   13     -0.27      0.00
   -6    0   13      1.87      0.00
   -5    0   13     -1.32      0.00
   -4    0   13      0.19      0.00
   -3    0   13     -0.19      0.00
   -2    0   13     -0.79      0.00
   -1    0   13     -1.79      0.00
    0    0   13      1.45      0.00
    1    0   13     -0.07      0.00
    2    0   13     -0.11      0.00
    3    0   13      0.04      0.00
    4    0   13     -0.57      0.00
    5    0   13      0.56      0.00
    6    0   13     -0.43      0.00
    7    0   13      1.42      0.00
    8    0   13     -1.13      0.00
    9    0   13     -0.77      0.00
   10    0   13     -0.05      0.00
   11    0   13      0.16      0.00
   -7    1   13      0.94      0.00
   -6    1   13      0.00      0.00
   -5    1   13      1.39      0.00
   -4    1   13     -1.05      0.00
   -3    1   13      0.42      0.00
   -2    1   13      2.30      0.00
   -1    1   13      0.45      0.00
    0    1   13      1.58      0.00
    1    1   13     -0.30      0.00
    2    1   13      0.44      0.00
    3    1   13     -1.44      0.00
    4    1   13     -1.89      0.00
    5    1   13      1.24      0.00
    6    1   13      0.26      0.00
    7    1   13      2.54      0.00
    8    1   13      1.37      0.00
    9    1   13     -0.56      0.00
   10    1   13      0.30      0.00
   11    1   13      0.54      0.00
   12    1   13      1.51      0.00
   -8    2   13     -1.94      0.00
   -7    2   13      1.01      0.00
   -6    2   13      0.45      0.00
   -5    2   13     -0.82      0.00
   -4    2   13      0.96      0.00
   -3    2   13     -0.97      0.00
   -2    2   13      0.98      0.00
   -1    2   13      0.97      0.00
    0    2   13     -0.46      0.00
    1    2   13      2.67      0.00
    2    2   13     -1.16      0.00
    3    2   13     -1.11      0.00
    4    2   13     -2.64      0.00
    5    2   13     -2.90      0.00
    6    2   13      1.84      0.00
    7    2   13     -0.16      0.00
    8    2   13      2.19      0.00
    9    2   13     -0.64      0.00
   10    2   13     -0.87      0.00
   11    2   13     -0.94      0.00
   12    2   13     -0.62      0.00
   -8    3   13      1.34      0.00
   -7    3   13     -1.43      0.00
   -6    3   13     -0.30      0.00
   -5    3   13     -0.34      0.00
   -4    3   13     -0.94      0.00
   -3    3   13      0.95      0.00
   -2    3   13     -1.36      0.00
   -1    3   13      1.05      0.00
    0    3   13      1.01      0.00
    1    3   13      1.78      0.00
    2    3   13      1.18      0.00
    3    3   13     -1.14      0.00
    4    3   13     -0.67      0.00
    5    3   13     -1.97      0.00
    6    3   13      2.01      0.00
    7    3   13      2.53      0.00
    8    3   13      1.23      0.00
    9    3   13      2.89      0.00
   10    3   13     -0.77      0.00
   11    3   13      0.49      0.00
   12    3   13      0.13      0.00
   -8    4   13      1.71      0.00
   -7    4   13      0.16      0.00
   -6    4   13      0.59      0.00
   -5    4   13     -0.61      0.00
   -4    4   13     -0.13      0.00
   -3    4   13     -0.05      0.00
   -2    4   13     -0.14      0.00
   -1    4   13     -1.37      0.00
    0    4   13      1.24      0.00
    1    4   13     -0.26      0.00
    2    4   13      4.94      0.00
    3    4   13      2.00      0.00
    4    4   13     -1.87      0.00
    5    4   13     -0.34      0.00
    6    4   13     -4.01      0.00
    7    4   13      1.54      0.00
    8    4   13      1.67      0.00
    9    4   13      0.87      0.00
   10    4   13      0.86      0.00
   11    4   13     -1.76      0.00
   12    4   13      0.50      0.00
   13    4   13      1.35      0.00
   -8    5   13     -0.91      0.00
   -7    5   13      1.49      0.00
   -6    5   13     -1.09      0.00
   -5    5   13      1.53      0.00
   -4    5   13      1.59      0.00
   -3    5   13     -0.01      0.00
   -2    5   13      0.90      0.00
   -1    5   13      0.98      0.00
    0    5   13     -0.32      0.00
    1    5   13      3.02      0.00
    2    5   13     -0.55      0.00
    3    5   13      1.61      0.00
    4    5   13     -2.03      0.00
    5    5   13     -5.36      0.00
    6    5   13     -2.02      0.00
    7    5   13      0.13      0.00
    8    5   13      2.72      0.00
    9    5   13      3.25      0.00
   10    5   13      1.78      0.00
   11    5   13      0.22      0.00
   12    5   13     -2.15      0.00
   13    5   13     -0.45      0.00
   -8    6   13     -0.11      0.00
   -7    6   13      1.84      0.00
   -6    6   13      0.28      0.00
   -5    6   13      1.18      0.00
   -4    6   13     -0.16      0.00
   -3    6   13      1.96      0.00
   -2    6   13      0.35      0.00
   -1    6   13      2.81      0.00
    0    6   13      1.58      0.00
    1    6   13      0.85      0.00
    2    6   13      2.39      0.00
    3    6   13      3.79      0.00
    4    6   13      3.76      0.00
    5    6   13     -1.73      0.00
    6    6   13     -2.15      0.00
    7    6   13     -2.01      0.00
    8    6   13      2.09      0.00
    9    6   13      0.48      0.00
   10    6   13      1.26      0.00
   11    6   13     -2.31      0.00
   12    6   13     -1.74      0.00
   13    6   13     -1.33      0.00
   -8    7   13     -0.42      0.00
   -7    7   13     -1.13      0.00
   -6    7   13      0.77      0.00
   -5    7   13     -1.67      0.00
   -4    7   13      0.78      0.00
   -3    7   13      0.66      0.00
   -2    7   13     -0.46      0.00
   -1    7   13     -1.18      0.00
    0    7   13      0.94      0.00
    1    7   13     -1.57      0.00
    2    7   13     -0.07      0.00
    3    7   13     -0.26      0.00
    4    7   13      1.76      0.00
    5    7   13      0.00      0.00
    6    7   13     -4.08      0.00
    7    7   13     -0.33      0.00
    8    7   13     -0.36      0.00
    9    7   13      3.33      0.00
   10    7   13      0.56      0.00
   11    7   13      2.23      0.00
   12    7   13     -0.04      0.00
   13    7   13     -0.67      0.00
   -7    8   13     -1.68      0.00
   -6    8   13      0.55      0.00
   -5    8   13     -2.61      0.00
   -4    8   13     -0.66      0.00
   -3    8   13     -2.22      0.00
   -2    8   13      0.50      0.00
   -1    8   13     -2.31      0.00
    0    8   13      0.37      0.00
    1    8   13      1.58      0.00
    2    8   13     -0.19      0.00
    3    8   13     -0.96      0.00
    4    8   13     -3.37      0.00
    5    8   13     -0.13      0.00
    6    8   13     -1.12      0.00
    7    8   13     -1.84      0.00
    8    8   13      1.74      0.00
    9    8   13     -0.35      0.00
   10    8   13      0.35      0.00
   11    8   13      0.36      0.00
   12    8   13     -2.12      0.00
   13    8   13     -0.34      0.00
   -7    9   13     -1.25      0.00
   -6    9   13     -0.20      0.00
   -5    9   13      2.18      0.00
   -4    9   13     -1.38      0.00
   -3    9   13      0.94      0.00
   -2    9   13     -0.25      0.00
   -1    9   13     -0.76      0.00
    0    9   13     -1.86      0.00
    1    9   13     -0.72      0.00
    2    9   13      1.30      0.00
    3    9   13      0.29      0.00
    4    9   13      0.81      0.00
    5    9   13     -1.06      0.00
    6    9   13     -0.32      0.00
    7    9   13     -0.09      0.00
    8    9   13     -0.43      0.00
    9    9   13      1.31      0.00
   10    9   13     -0.03      0.00
   11    9   13     -1.60      0.00
   12    9   13      1.45      0.00
   13    9   13     -1.95      0.00
   -6   10   13     -0.14      0.00
   -5   10   13     -0.57      0.00
   -4   10   13     -0.43      0.00
   -3   10   13     -1.16      0.00
   -2   10   13     -1.31      0.00
   -1   10   13     -0.52      0.00
    0   10   13     -1.43      0.00
    1   10   13      0.56      0.00
    2   10   13     -1.96      0.00
    3   10   13      0.92      0.00
    4   10   13     -1.07      0.00
    5   10   13     -1.97      0.00
    6   10   13     -0.64      0.00
    7   10   13     -1.46      0.00
    8   10   13     -1.25      0.00
    9   10   13      1.58      0.00
   10   10   13      1.93      0.00
   11   10   13      0.42      0.00
   12   10   13      0.18      0.00
   -5   11   13     -1.61      0.00
   -4   11   13     -1.49      0.00
   -3   11   13      0.37      0.00
   -2   11   13     -0.82      0.00
   -1   11   13     -0.64      0.00
    0   11   13     -0.11      0.00
    1   11   13     -0.43      0.00
    2   11   13      0.77      0.00
    3   11   13     -1.77      0.00
    4   11   13     -0.46      0.00
    5   11   13      0.46      0.00
    6   11   13      0.74      0.00
    7   11   13      0.37      0.00
    8   11   13      1.62      0.00
    9   11   13     -1.08      0.00
   10   11   13      1.34      0.00
   11   11   13      1.19      0.00
   12   11   13     -0.60      0.00
   -4   12   13     -0.97      0.00
   -3   12   13     -0.77      0.00
   -2   12   13     -0.98      0.00
   -1   12   13     -0.17      0.00
    0   12   13     -1.28      0.00
    1   12   13      1.40      0.00
    2   12   13      0.26      0.00
    3   12   13     -0.75      0.00
    4   12   13      1.22      0.00
    5   12   13     -1.72      0.00
    6   12   13     -0.81      0.00
    9   12   13     -1.27      0.00
   10   12   13     -0.85      0.00
   11   12   13      0.93      0.00
   -2   13   13      1.12      0.00
   -1   13   13     -1.83      0.00
    0   13   13      1.70      0.00
    1   13   13     -1.19      0.00
    2   13   13      0.29      0.00
    3   13   13      1.13      0.00
    4   13   13     -1.66      0.00
    5   13   13      0.42      0.00
    6   13   13     -2.74      0.00
   10   13   13     -0.74      0.00
   -1   14   13     -0.79      0.00
    0   14   13      0.22      0.00
    1   14   13     -0.33      0.00
    2   14   13     -0.47      0.00
    3   14   13     -1.66      0.00
    4   14   13     -0.03      0.00
    5   14   13      0.54      0.00
    6   14   13     -1.60      0.00
    2   15   13      1.86      0.00
    3   15   13      2.42      0.00
    4   15   13      2.09      0.00
    5   15   13     -0.48      0.00
    6   15   13      0.39      0.00
    1   -4   14      0.20      0.00
    2   -4   14     -0.15      0.00
    3   -4   14      0.87      0.00
    4   -4   14      0.08      0.00
   -1   -3   14     -0.82      0.00
    0   -3   14      2.71      0.00
    1   -3   14      0.86      0.00
    2   -3   14      0.78      0.00
    3   -3   14      0.19      0.00
    4   -3   14     -1.10      0.00
    5   -3   14     -0.75      0.00
    6   -3   14     -0.70      0.00
   -3   -2   14      0.80      0.00
   -2   -2   14     -1.38      0.00
   -1   -2   14     -0.41      0.00
    0   -2   14      0.88      0.00
    1   -2   14      0.59      0.00
    2   -2   14      1.33      0.00
    3   -2   14     -0.12      0.00
    4   -2   14     -0.95      0.00
    5   -2   14     -0.31      0.00
    6   -2   14      0.06      0.00
    7   -2   14      0.26      0.00
    8   -2   14      0.01      0.00
   -4   -1   14     -0.38      0.00
   -3   -1   14     -3.80      0.00
   -2   -1   14      1.01      0.00
   -1   -1   14     -0.83      0.00
    0   -1   14     -0.51      0.00
    1   -1   14      1.46      0.00
    2   -1   14      1.02      0.00
    3   -1   14      1.56      0.00
    4   -1   14      0.55      0.00
    5   -1   14     -0.76      0.00
    6   -1   14      0.10      0.00
    7   -1   14     -0.37      0.00
    8   -1   14      0.00      0.00
    9   -1   14     -0.57      0.00
   -5    0   14      2.20      0.00
   -4    0   14     -0.17      0.00
   -3    0   14     -0.36      0.00
   -2    0   14     -1.04      0.00
   -1    0   14      1.40      0.00
    0    0   14     -0.68      0.00
    1    0   14      1.11      0.00
    2    0   14     -0.21      0.00
    3    0   14      0.19      0.00
    4    0   14      0.16      0.00
    5    0   14     -0.82      0.00
    6    0   14     -0.02      0.00
    7    0   14     -0.29      0.00
    8    0   14     -0.05      0.00
    9    0   14      0.11      0.00
   10    0   14      0.70      0.00
   -5    1   14     -0.26      0.00
   -4    1   14     -0.46      0.00
   -3    1   14      0.81      0.00
   -2    1   14     -1.11      0.00
   -1    1   14      1.62      0.00
    0    1   14     -0.02      0.00
    1    1   14     -1.57      0.00
    2    1   14      0.76      0.00
    3    1   14     -0.97      0.00
    4    1   14     -0.07      0.00
    5    1   14      0.61      0.00
    6    1   14     -0.42      0.00
    7    1   14      0.62      0.00
    8    1   14     -0.71      0.00
    9    1   14      0.89      0.00
   10    1   14     -0.99      0.00
   -6    2   14      0.83      0.00
   -5    2   14      0.43      0.00
   -4    2   14     -0.28      0.00
   -3    2   14     -0.21      0.00
   -2    2   14     -0.73      0.00
   -1    2   14     -2.27      0.00
    0    2   14      2.82      0.00
    1    2   14     -0.25      0.00
    2    2   14      0.43      0.00
    3    2   14      0.84      0.00
    4    2   14     -0.45      0.00
    5    2   14      0.89      0.00
    6    2   14     -0.13      0.00
    7    2   14     -0.66      0.00
    8    2   14     -1.06      0.00
    9    2   14     -1.36      0.00
   10    2   14      0.75      0.00
   11    2   14     -0.96      0.00
   -5    3   14      0.79      0.00
   -4    3   14      0.66      0.00
   -3    3   14     -0.04      0.00
   -2    3   14     -0.74      0.00
   -1    3   14     -1.07      0.00
    0    3   14     -1.46      0.00
    1    3   14      1.59      0.00
    2    3   14     -2.32      0.00
    3    3   14      0.74      0.00
    4    3   14      0.95      0.00
    5    3   14      1.16      0.00
    6    3   14      2.22      0.00
    7    3   14      0.36      0.00
    8    3   14     -0.33      0.00
    9    3   14     -0.79      0.00
   10    3   14      0.82      0.00
   11    3   14      1.36      0.00
   12    3   14      0.55      0.00
   -6    4   14     -0.58      0.00
   -5    4   14      0.67      0.00
   -4    4   14      1.38      0.00
   -3    4   14      1.25      0.00
   -2    4   14      0.52      0.00
   -1    4   14      0.30      0.00
    0    4   14     -0.63      0.00
    1    4   14      1.29      0.00
    2    4   14      0.27      0.00
    3    4   14     -2.21      0.00
    4    4   14      1.02      0.00
    5    4   14      0.38      0.00
    6    4   14     -0.34      0.00
    7    4   14     -0.50      0.00
    8    4   14     -0.47      0.00
    9    4   14     -2.43      0.00
   10    4   14     -1.36      0.00
   11    4   14      1.39      0.00
   12    4   14      0.84      0.00
   -6    5   14      1.71      0.00
   -5    5   14      0.45      0.00
   -4    5   14      0.83      0.00
   -3    5   14     -0.95      0.00
   -2    5   14      0.16      0.00
   -1    5   14     -2.02      0.00
    0    5   14      2.40      0.00
    1    5   14     -1.28      0.00
    2    5   14      0.23      0.00
    3    5   14     -3.54      0.00
    4    5   14     -3.34      0.00
    5    5   14     -1.32      0.00
    6    5   14      1.91      0.00
    7    5   14      0.88      0.00
    8    5   14     -0.38      0.00
    9    5   14     -0.61      0.00
   10    5   14     -1.64      0.00
   11    5   14     -0.91      0.00
   12    5   14      1.91      0.00
   -6    6   14     -0.02      0.00
   -5    6   14     -0.25      0.00
   -4    6   14      0.22      0.00
   -3    6   14     -0.77      0.00
   -2    6   14     -0.45      0.00
   -1    6   14      1.55      0.00
    0    6   14     -1.74      0.00
    1    6   14      0.97      0.00
    2    6   14     -0.41      0.00
    3    6   14     -0.12      0.00
    4    6   14     -2.46      0.00
    5    6   14      0.96      0.00
    6    6   14      0.85      0.00
    7    6   14      3.31      0.00
    8    6   14      0.95      0.00
    9    6   14     -0.38      0.00
   10    6   14     -3.28      0.00
   11    6   14     -0.27      0.00
   12    6   14      0.47      0.00
   -6    7   14     -1.87      0.00
   -5    7   14      1.32      0.00
   -4    7   14     -0.43      0.00
   -3    7   14      0.60      0.00
   -2    7   14     -2.49      0.00
   -1    7   14     -0.91      0.00
    0    7   14     -0.85      0.00
    1    7   14     -0.05      0.00
    2    7   14      0.58      0.00
    3    7   14     -1.82      0.00
    4    7   14     -4.20      0.00
    5    7   14     -5.56      0.00
    6    7   14     -0.75      0.00
    7    7   14      1.48      0.00
    8    7   14      1.86      0.00
    9    7   14     -0.87      0.00
   10    7   14      0.66      0.00
   11    7   14     -1.43      0.00
   12    7   14      0.45      0.00
   -6    8   14     -0.31      0.00
   -5    8   14     -0.43      0.00
   -4    8   14      1.14      0.00
   -3    8   14     -1.68      0.00
   -2    8   14      0.83      0.00
   -1    8   14     -1.35      0.00
    0    8   14      0.28      0.00
    1    8   14     -0.57      0.00
    2    8   14      0.38      0.00
    3    8   14      1.61      0.00
    4    8   14     -0.44      0.00
    5    8   14     -3.40      0.00
    6    8   14     -1.33      0.00
    7    8   14      2.00      0.00
    8    8   14      3.27      0.00
    9    8   14      1.04      0.00
   10    8   14     -1.11      0.00
   11    8   14     -1.47      0.00
   12    8   14      0.15      0.00
   -5    9   14     -0.70      0.00
   -4    9   14      0.51      0.00
   -3    9   14      1.75      0.00
   -2    9   14     -1.18      0.00
   -1    9   14      1.93      0.00
    0    9   14     -0.33      0.00
    1    9   14      0.46      0.00
    2    9   14     -0.67      0.00
    3    9   14      1.96      0.00
    4    9   14      2.30      0.00
    5    9   14      1.92      0.00
    6    9   14     -2.33      0.00
    7    9   14     -1.54      0.00
    8    9   14      0.81      0.00
    9    9   14      1.86      0.00
   10    9   14     -0.48      0.00
   11    9   14      0.71      0.00
   12    9   14     -0.57      0.00
   -4   10   14      0.29      0.00
   -3   10   14      1.75      0.00
   -2   10   14      0.63      0.00
   -1   10   14      0.98      0.00
    0   10   14      1.70      0.00
    1   10   14     -0.88      0.00
    2   10   14      0.60      0.00
    3   10   14     -1.76      0.00
    4   10   14     -0.28      0.00
    5   10   14      0.59      0.00
    6   10   14      0.03      0.00
    7   10   14     -1.84      0.00
    8   10   14     -0.91      0.00
    9   10   14      1.12      0.00
   10   10   14      1.04      0.00
   11   10   14      0.41      0.00
   12   10   14     -0.27      0.00
   -4   11   14      0.91      0.00
   -3   11   14      1.39      0.00
   -2   11   14      2.15      0.00
   -1   11   14     -0.42      0.00
    0   11   14      2.01      0.00
    1   11   14      0.37      0.00
    2   11   14     -0.74      0.00
    3   11   14      0.29      0.00
    4   11   14      0.40      0.00
    5   11   14      0.70      0.00
    8   11   14     -0.20      0.00
    9   11   14     -0.49      0.00
   10   11   14      0.75      0.00
   11   11   14     -1.32      0.00
   -2   12   14      0.82      0.00
   -1   12   14      0.17      0.00
    0   12   14      0.97      0.00
    1   12   14      1.14      0.00
    2   12   14     -0.94      0.00
    3   12   14      1.84      0.00
    4   12   14     -0.12      0.00
    5   12   14     -1.46      0.00
    9   12   14     -0.39      0.00
   10   12   14     -1.17      0.00
   -1   13   14      2.84      0.00
    0   13   14      1.35      0.00
    1   13   14      1.75      0.00
    2   13   14      0.92      0.00
    3   13   14     -0.69      0.00
    4   13   14      2.07      0.00
    5   13   14     -0.14      0.00
    1   14   14     -0.04      0.00
    2   14   14     -0.52      0.00
    3   14   14     -1.24      0.00
    4   14   14      0.43      0.00
    5   14   14     -0.95      0.00
    6   14   14     -0.13      0.00
    4   15   14     -0.70      0.00
    5   15   14      1.71      0.00
    6   15   14     -1.26      0.00
    0   -2   15     -0.69      0.00
    1   -2   15     -1.13      0.00
    2   -2   15      0.37      0.00
    3   -2   15     -0.95      0.00
    4   -2   15      0.23      0.00
    5   -2   15      0.45      0.00
   -1   -1   15      2.64      0.00
    0   -1   15      1.57      0.00
    1   -1   15      0.61      0.00
    2   -1   15     -0.85      0.00
    3   -1   15     -0.14      0.00
    4   -1   15     -1.18      0.00
    5   -1   15      1.20      0.00
    6   -1   15      1.12      0.00
    7   -1   15      0.16      0.00
   -2    0   15      1.81      0.00
   -1    0   15      0.99      0.00
    0    0   15      2.48      0.00
    1    0   15      0.63      0.00
    2    0   15      0.27      0.00
    3    0   15     -2.18      0.00
    4    0   15     -3.43      0.00
    5    0   15     -0.08      0.00
    6    0   15     -0.30      0.00
    7    0   15      0.59      0.00
    8    0   15     -1.59      0.00
   -3    1   15     -0.38      0.00
   -2    1   15      0.52      0.00
   -1    1   15      0.08      0.00
    0    1   15      0.78      0.00
    1    1   15      1.50      0.00
    2    1   15      0.49      0.00
    3    1   15     -0.32      0.00
    4    1   15     -0.06      0.00
    5    1   15     -1.87      0.00
    6    1   15      3.18      0.00
    7    1   15      0.24      0.00
    8    1   15      1.27      0.00
    9    1   15     -2.33      0.00
   -4    2   15     -1.21      0.00
   -3    2   15      0.32      0.00
   -2    2   15     -1.49      0.00
   -1    2   15      1.06      0.00
    0    2   15     -0.17      0.00
    1    2   15      2.49      0.00
    2    2   15      1.81      0.00
    3    2   15      0.66      0.00
    4    2   15      0.52      0.00
    5    2   15     -1.27      0.00
    6    2   15     -0.06      0.00
    7    2   15      1.58      0.00
    8    2   15     -0.71      0.00
    9    2   15      0.50      0.00
   10    2   15     -0.35      0.00
   -4    3   15     -0.51      0.00
   -3    3   15     -0.97      0.00
   -2    3   15      0.60      0.00
   -1    3   15     -0.93      0.00
    0    3   15      1.32      0.00
    1    3   15     -2.22      0.00
    2    3   15      0.35      0.00
    3    3   15     -0.70      0.00
    4    3   15     -1.26      0.00
    5    3   15      1.80      0.00
    6    3   15     -1.17      0.00
    7    3   15      0.46      0.00
    8    3   15      1.62      0.00
    9    3   15     -0.27      0.00
   10    3   15     -0.35      0.00
   -5    4   15      0.91      0.00
   -4    4   15      0.42      0.00
   -3    4   15     -0.62      0.00
   -2    4   15     -0.46      0.00
   -1    4   15      0.78      0.00
    0    4   15      0.77      0.00
    1    4   15      1.65      0.00
    2    4   15     -1.19      0.00
    3    4   15      1.75      0.00
    4    4   15      0.45      0.00
    5    4   15     -1.36      0.00
    6    4   15     -0.76      0.00
    7    4   15     -0.77      0.00
    8    4   15     -2.31      0.00
    9    4   15      0.63      0.00
   10    4   15      0.03      0.00
   11    4   15     -1.07      0.00
   -5    5   15      2.88      0.00
   -4    5   15     -1.40      0.00
   -3    5   15     -1.33      0.00
   -2    5   15     -2.40      0.00
   -1    5   15      0.55      0.00
    0    5   15     -1.29      0.00
    1    5   15      0.59      0.00
    2    5   15     -0.77      0.00
    3    5   15     -0.58      0.00
    4    5   15      0.19      0.00
    5    5   15      1.47      0.00
    6    5   15      0.79      0.00
    7    5   15      0.15      0.00
    8    5   15      1.20      0.00
    9    5   15     -0.34      0.00
   10    5   15     -0.66      0.00
   11    5   15      0.95      0.00
   -5    6   15     -1.71      0.00
   -4    6   15      0.89      0.00
   -3    6   15     -0.66      0.00
   -2    6   15      0.11      0.00
   -1    6   15     -0.41      0.00
    0    6   15      1.57      0.00
    1    6   15     -1.40      0.00
    2    6   15      0.74      0.00
    3    6   15     -0.55      0.00
    4    6   15      2.46      0.00
    5    6   15      0.68      0.00
    6    6   15      1.71      0.00
    7    6   15      0.69      0.00
    8    6   15     -0.01      0.00
    9    6   15     -0.56      0.00
   10    6   15      2.33      0.00
   11    6   15     -0.58      0.00
   -4    7   15      0.84      0.00
   -3    7   15     -0.51      0.00
   -2    7   15      0.41      0.00
   -1    7   15     -0.76      0.00
    0    7   15      0.40      0.00
    1    7   15      0.72      0.00
    2    7   15     -0.58      0.00
    3    7   15      0.38      0.00
    4    7   15     -0.51      0.00
    5    7   15      0.98      0.00
    6    7   15      1.22      0.00
    7    7   15     -1.04      0.00
    8    7   15     -1.49      0.00
    9    7   15     -0.85      0.00
   10    7   15     -1.23      0.00
   11    7   15      2.25      0.00
   -4    8   15     -2.81      0.00
   -3    8   15     -0.04      0.00
   -2    8   15     -1.23      0.00
   -1    8   15      1.51      0.00
    0    8   15     -0.86      0.00
    1    8   15     -0.33      0.00
    2    8   15     -0.05      0.00
    3    8   15     -0.63      0.00
    4    8   15      0.22      0.00
    5    8   15      3.90      0.00
    6    8   15      2.03      0.00
    7    8   15      4.00      0.00
    8    8   15     -0.86      0.00
    9    8   15     -0.44      0.00
   10    8   15     -0.40      0.00
   11    8   15      0.13      0.00
   -4    9   15      1.05      0.00
   -3    9   15     -0.75      0.00
   -2    9   15      0.50      0.00
   -1    9   15     -0.10      0.00
    0    9   15      1.96      0.00
    1    9   15      0.57      0.00
    2    9   15     -0.15      0.00
    3    9   15     -0.48      0.00
    4    9   15      0.16      0.00
    5    9   15     -0.05      0.00
    6    9   15      2.55      0.00
    7    9   15      0.17      0.00
    8    9   15     -1.30      0.00
    9    9   15     -3.12      0.00
   10    9   15     -0.35      0.00
   11    9   15     -0.15      0.00
   -3   10   15      1.05      0.00
   -2   10   15      1.01      0.00
   -1   10   15     -0.07      0.00
    0   10   15     -1.24      0.00
    1   10   15     -0.02      0.00
    2   10   15     -0.19      0.00
    3   10   15     -0.78      0.00
    4   10   15     -2.43      0.00
    5   10   15     -2.42      0.00
    7   10   15      0.86      0.00
    8   10   15      3.39      0.00
    9   10   15     -2.38      0.00
   10   10   15     -0.76      0.00
   11   10   15     -0.75      0.00
   -2   11   15     -1.46      0.00
   -1   11   15     -0.24      0.00
    0   11   15     -0.67      0.00
    1   11   15     -0.36      0.00
    2   11   15      1.56      0.00
    3   11   15      0.95      0.00
    4   11   15      1.09      0.00
    5   11   15     -1.06      0.00
    8   11   15      0.49      0.00
    9   11   15      3.14      0.00
   10   11   15     -2.66      0.00
   -1   12   15     -1.30      0.00
    0   12   15      0.22      0.00
    1   12   15     -0.88      0.00
    2   12   15      0.34      0.00
    3   12   15      1.03      0.00
    4   12   15     -0.57      0.00
    5   12   15     -0.10      0.00
    1   13   15      0.53      0.00
    2   13   15      0.02      0.00
    3   13   15      0.93      0.00
    4   13   15     -0.49      0.00
    5   13   15      0.16      0.00
    3   14   15      0.07      0.00
    4   14   15     -1.57      0.00
    5   14   15     -1.58      0.00
    1   -1   16     -0.91      0.00
    2   -1   16      0.11      0.00
    3   -1   16     -1.51      0.00
   -1    0   16     -1.54      0.00
    0    0   16     -1.30      0.00
    1    0   16     -0.16      0.00
    2    0   16     -0.86      0.00
    3    0   16     -0.33      0.00
    4    0   16      1.16      0.00
    5    0   16     -0.22      0.00
    6    0   16      0.22      0.00
   -1    1   16     -0.01      0.00
    0    1   16     -1.57      0.00
    1    1   16     -0.77      0.00
    2    1   16     -2.23      0.00
    3    1   16      0.91      0.00
    4    1   16      0.58      0.00
    5    1   16      4.19      0.00
    6    1   16     -0.22      0.00
    7    1   16      0.56      0.00
   -2    2   16      0.75      0.00
   -1    2   16      0.66      0.00
    0    2   16      0.28      0.00
    1    2   16      0.38      0.00
    2    2   16     -0.35      0.00
    3    2   16     -0.62      0.00
    4    2   16     -0.37      0.00
    5    2   16      1.96      0.00
    6    2   16     -0.15      0.00
    7    2   16     -1.73      0.00
    8    2   16     -0.43      0.00
   -2    3   16      1.21      0.00
   -1    3   16      1.98      0.00
    0    3   16      0.54      0.00
    1    3   16     -1.28      0.00
    2    3   16     -1.35      0.00
    3    3   16     -2.76      0.00
    4    3   16      1.29      0.00
    5    3   16     -0.61      0.00
    6    3   16      1.88      0.00
    7    3   16     -1.14      0.00
    8    3   16     -2.00      0.00
    9    3   16      0.12      0.00
   -2    4   16      1.21      0.00
   -1    4   16     -0.01      0.00
    0    4   16      0.10      0.00
    1    4   16     -0.55      0.00
    2    4   16      1.26      0.00
    3    4   16      0.98      0.00
    4    4   16     -0.08      0.00
    5    4   16      0.06      0.00
    6    4   16      1.16      0.00
    7    4   16     -1.94      0.00
    8    4   16      0.08      0.00
    9    4   16     -0.79      0.00
   -3    5   16     -0.46      0.00
   -2    5   16     -0.54      0.00
   -1    5   16      1.78      0.00
    0    5   16     -0.07      0.00
    1    5   16     -1.06      0.00
    2    5   16     -1.14      0.00
    3    5   16     -0.08      0.00
    4    5   16     -0.23      0.00
    5    5   16     -0.17      0.00
    6    5   16     -0.30      0.00
    7    5   16      3.37      0.00
    8    5   16     -0.22      0.00
    9    5   16      0.72      0.00
   10    5   16      0.96      0.00
   -3    6   16     -0.45      0.00
   -2    6   16      0.46      0.00
   -1    6   16     -0.20      0.00
    0    6   16      0.78      0.00
    1    6   16      0.03      0.00
    2    6   16     -0.30      0.00
    3    6   16      1.09      0.00
    4    6   16     -0.34      0.00
    5    6   16      0.18      0.00
    6    6   16     -2.76      0.00
    7    6   16     -0.97      0.00
    8    6   16     -0.75      0.00
    9    6   16      0.54      0.00
   10    6   16      0.25      0.00
   -3    7   16     -1.68      0.00
   -2    7   16      2.21      0.00
   -1    7   16      0.61      0.00
    0    7   16      0.82      0.00
    2    7   16      0.32      0.00
    3    7   16      1.06      0.00
    4    7   16      1.02      0.00
    5    7   16      0.48      0.00
    6    7   16      0.33      0.00
    7    7   16     -2.23      0.00
    8    7   16      0.04      0.00
    9    7   16     -1.08      0.00
   10    7   16      0.65      0.00
   -2    8   16     -2.07      0.00
   -1    8   16      0.77      0.00
    0    8   16     -0.86      0.00
    1    8   16      0.67      0.00
    2    8   16     -0.66      0.00
    3    8   16     -1.14      0.00
    4    8   16      1.64      0.00
    5    8   16     -0.62      0.00
    6    8   16      1.11      0.00
    7    8   16     -1.68      0.00
    8    8   16     -0.41      0.00
    9    8   16      0.21      0.00
   10    8   16      0.10      0.00
   -2    9   16      1.06      0.00
   -1    9   16      1.64      0.00
    0    9   16     -0.01      0.00
    1    9   16     -0.40      0.00
    2    9   16     -0.21      0.00
    3    9   16      0.67      0.00
    4    9   16     -0.76      0.00
    6    9   16     -1.12      0.00
    7    9   16     -1.87      0.00
    8    9   16     -3.30      0.00
    9    9   16     -0.14      0.00
   10    9   16      0.25      0.00
   -1   10   16     -2.03      0.00
    0   10   16      0.74      0.00
    1   10   16     -1.30      0.00
    2   10   16      0.40      0.00
    3   10   16     -0.73      0.00
    4   10   16      0.64      0.00
    7   10   16      1.99      0.00
    8   10   16     -1.30      0.00
    9   10   16      0.70      0.00
    0   11   16     -0.64      0.00
    1   11   16      1.16      0.00
    2   11   16     -0.96      0.00
    3   11   16     -0.43      0.00
    4   11   16      0.17      0.00
    9   11   16     -1.51      0.00
    1   12   16      1.05      0.00
    2   12   16      1.02      0.00
    3   12   16     -1.13      0.00
    4   12   16     -1.61      0.00
    3   13   16     -0.35      0.00
    4   13   16     -1.37      0.00
    5   13   16      0.27      0.00
    0    2   17      0.76      0.00
    1    2   17     -0.56      0.00
    2    2   17      0.62      0.00
    3    2   17      0.72      0.00
    4    2   17      0.35      0.00
    5    2   17     -1.34      0.00
   -1    3   17      0.85      0.00
    0    3   17     -1.53      0.00
    1    3   17     -1.33      0.00
    2    3   17     -1.36      0.00
    3    3   17      0.92      0.00
    4    3   17      0.43      0.00
    5    3   17      1.34      0.00
    6    3   17     -1.30      0.00
    0    4   17     -1.64      0.00
    1    4   17      0.20      0.00
    2    4   17     -0.75      0.00
    3    4   17      1.88      0.00
    4    4   17      0.32      0.00
    5    4   17      0.87      0.00
    6    4   17     -1.40      0.00
    7    4   17      1.44      0.00
    0    5   17      1.27      0.00
    1    5   17     -1.40      0.00
    2    5   17      0.05      0.00
    3    5   17     -1.35      0.00
    4    5   17      0.28      0.00
    5    5   17     -0.93      0.00
    6    5   17      1.37      0.00
    7    5   17     -1.47      0.00
    8    5   17      1.84      0.00
   -1    6   17      1.40      0.00
    0    6   17     -0.61      0.00
    1    6   17      1.29      0.00
    2    6   17      0.82      0.00
    3    6   17      0.01      0.00
    4    6   17      1.03      0.00
    5    6   17     -0.49      0.00
    6    6   17      0.70      0.00
    7    6   17     -1.77      0.00
    8    6   17     -1.28      0.00
    0    7   17     -0.69      0.00
    1    7   17      0.95      0.00
    2    7   17      0.09      0.00
    3    7   17     -0.34      0.00
    4    7   17     -0.83      0.00
    5    7   17      1.24      0.00
    6    7   17     -0.41      0.00
    7    7   17      2.72      0.00
    8    7   17     -1.15      0.00
    0    8   17      1.12      0.00
    1    8   17     -1.12      0.00
    2    8   17     -0.57      0.00
    3    8   17     -0.14      0.00
    5    8   17     -1.15      0.00
    6    8   17     -0.50      0.00
    7    8   17     -0.23      0.00
    8    8   17      0.11      0.00
    0    9   17      0.68      0.00
    1    9   17     -0.70      0.00
    2    9   17      0.74      0.00
    3    9   17     -0.80      0.00
    7    9   17     -0.58      0.00
    8    9   17      2.10      0.00
    1   10   17      2.21      0.00
    2   10   17     -0.11      0.00
    3   10   17      1.14      0.00
    4   10   17     -0.97      0.00
    8   10   17      0.41      0.00
    2   11   17      0.27      0.00
    3   11   17     -0.37      0.00
    4   11   17      0.09      0.00
    4   12   17      0.47      0.00
    2    5   18     -0.13      0.00
    3    5   18      0.04      0.00
    4    5   18     -1.65      0.00
    2    6   18      0.00      0.00
    3    6   18      2.07      0.00
    4    6   18     -1.37      0.00
    5    6   18      0.03      0.00
    2    7   18      0.11      0.00
    4    7   18      0.81      0.00
    5    7   18     -2.04      0.00
    2    8   18     -0.68      0.00
    3    8   18     -0.91      0.00
    3    9   18      1.01      0.00
   15    0    0      1.36      0.00
   16    0    0     -0.63      0.00
  -16    1    0     -0.44      0.00
   -2    1    0    -36.67      0.00
   15    1    0      1.19      0.00
   16    1    0      0.48      0.00
  -16    2    0     -0.15      0.00
    0    2    0    -28.47      0.00
   16    2    0      0.40      0.00
    4    3    0      5.27      0.00
   16    4    0     -0.27      0.00
    1    5    0      6.74      0.00
    7    5    0      2.19      0.00
   16    5    0      0.81      0.00
  -12    6    0      1.98      0.00
  -13    8    0      0.15      0.00
    2    8    0     -1.54      0.00
   15    8    0      0.12      0.00
   13   11    0     -0.64      0.00
   -9   12    0      0.08      0.00
   12   12    0      1.09      0.00
   -7   13    0      0.27      0.00
   -6   13    0      2.24      0.00
   -5   13    0      0.61      0.00
   -6   14    0     -0.06      0.00
   -5   14    0      2.23      0.00
    8   14    0      2.21      0.00
    9   14    0      0.26      0.00
   -3   15    0     -0.60      0.00
   -2   15    0      1.29      0.00
   -1   15    0     -0.05      0.00
    0   15    0      0.27      0.00
    1   15    0      0.22      0.00
    2   15    0     -0.64      0.00
    3   15    0     -1.64      0.00
    4   15    0      0.53      0.00
    5   15    0     -0.54      0.00
    6   15    0      2.31      0.00
    7   15    0      0.02      0.00
   -5  -15    1     -1.17      0.00
   -4  -15    1     -2.10      0.00
   -3  -15    1      0.35      0.00
   -2  -15    1      0.59      0.00
   -1  -15    1      0.02      0.00
    0  -15    1     -0.09      0.00
    1  -15    1      1.24      0.00
    2  -15    1     -1.02      0.00
   -8  -14    1      0.32      0.00
   -7  -14    1     -0.49      0.00
   -6  -14    1      1.27      0.00
   -5  -14    1     -1.35      0.00
    4  -14    1      0.02      0.00
    5  -14    1      1.40      0.00
  -10  -13    1     -1.16      0.00
    5  -13    1     -1.00      0.00
    6  -13    1     -0.04      0.00
    7  -13    1      0.36      0.00
  -11  -12    1     -0.94      0.00
    5  -12    1      0.00      0.00
    6  -12    1     -0.53      0.00
   10  -11    1     -0.43      0.00
  -13  -10    1      1.05      0.00
   11  -10    1     -0.58      0.00
  -14   -9    1      0.17      0.00
   12   -9    1      2.55      0.00
   -3   -8    1     18.86      0.00
   13   -8    1      1.62      0.00
  -15   -7    1      0.93      0.00
   -7   -5    1     -2.50      0.00
  -16   -4    1      0.28      0.00
   -1   -4    1      0.67      0.00
    0   -4    1     -5.48      0.00
    1   -4    1      3.41      0.00
    2   -4    1    -10.61      0.00
    7   -4    1     -3.38      0.00
  -16   -3    1      0.40      0.00
   -3   -3    1     15.89      0.00
   -1   -3    1     11.34      0.00
  -16   -2    1     -1.06      0.00
   -2   -2    1     -3.04      0.00
   16   -2    1     -0.77      0.00
  -16   -1    1      0.31      0.00
  -15   -1    1      1.76      0.00
   -1   -1    1    -54.75      0.00
   16   -1    1     -0.23      0.00
  -16    0    1      0.35      0.00
  -15    0    1     -2.13      0.00
    2    0    1     -6.07      0.00
   16    0    1      1.21      0.00
  -16    1    1     -0.71      0.00
    0    1    1    -72.00      0.00
   15    1    1      0.40      0.00
   16    1    1     -1.30      0.00
   -3    2    1     -4.64      0.00
    3    2    1    -21.25      0.00
   16    2    1     -0.89      0.00
    0    3    1      4.74      0.00
    4    3    1     -3.77      0.00
  -15    4    1     -0.22      0.00
    0    4    1    -13.10      0.00
    3    4    1     -2.98      0.00
    8    5    1      2.52      0.00
   16    5    1     -2.20      0.00
    8    6    1      2.73      0.00
   16    6    1     -0.63      0.00
  -13    8    1     -1.43      0.00
    1    9    1      1.94      0.00
    2    9    1      5.73      0.00
   14   10    1      0.20      0.00
   -8   13    1     -0.64      0.00
   -6   13    1     -1.86      0.00
   11   13    1     -0.69      0.00
   -6   14    1      0.01      0.00
   -5   14    1     -2.22      0.00
   -4   15    1     -2.20      0.00
   -3   15    1     -0.24      0.00
    4   15    1      0.83      0.00
    5   15    1     -0.12      0.00
    6   15    1     -0.58      0.00
    7   15    1     -0.06      0.00
    8   15    1      0.78      0.00
   -1   16    1     -1.17      0.00
    0   16    1     -0.60      0.00
    1   16    1     -0.89      0.00
    2   16    1     -0.27      0.00
    3   16    1      0.23      0.00
    4   16    1     -0.08      0.00
    5   16    1      0.34      0.00
   -2  -15    2     -0.68      0.00
   -1  -15    2     -0.82      0.00
   -7  -14    2      2.30      0.00
   -6  -14    2     -0.59      0.00
   -5  -14    2      1.82      0.00
   -4  -14    2      2.71      0.00
   -3  -14    2      0.11      0.00
   -2  -14    2      0.94      0.00
    2  -14    2      1.07      0.00
    4  -14    2      1.41      0.00
   -9  -13    2     -0.58      0.00
   -8  -13    2     -2.70      0.00
    4  -13    2     -0.24      0.00
    5  -13    2     -1.73      0.00
    6  -13    2     -0.39      0.00
    5  -12    2      1.36      0.00
    6  -12    2     -1.16      0.00
    7  -12    2     -0.35      0.00
    8  -12    2     -0.32      0.00
    5  -11    2      3.49      0.00
  -14   -8    2      0.33      0.00
  -15   -6    2      0.53      0.00
   14   -6    2     -0.42      0.00
   -6   -5    2     -4.01      0.00
   15   -4    2      0.07      0.00
   -3   -3    2     -0.16      0.00
    7   -3    2     -1.34      0.00
  -16   -2    2     -0.41      0.00
  -15   -2    2      1.95      0.00
   -2   -2    2      8.39      0.00
   16   -2    2     -0.72      0.00
  -16   -1    2      1.03      0.00
  -15   -1    2      0.09      0.00
  -14   -1    2      3.60      0.00
   16   -1    2      2.64      0.00
  -16    0    2     -0.75      0.00
  -15    0    2      0.16      0.00
  -14    0    2     -1.05      0.00
    1    0    2     10.90      0.00
  -15    1    2      0.31      0.00
  -14    1    2      0.13      0.00
    2    1    2     16.77      0.00
   16    1    2      1.01      0.00
   -3    2    2     14.14      0.00
   -2    2    2      2.65      0.00
    3    2    2     23.29      0.00
   -4    3    2      5.55      0.00
    4    3    2     -1.29      0.00
    5    3    2      2.12      0.00
  -15    4    2     -2.61      0.00
   -2    4    2      2.99      0.00
    0    4    2      7.55      0.00
    3    5    2     -6.45      0.00
    8    5    2     -6.97      0.00
    8    6    2     -9.38      0.00
   16    6    2      0.22      0.00
   16    7    2     -0.20      0.00
  -13    8    2      2.83      0.00
    1    9    2      0.30      0.00
    2    9    2     -2.90      0.00
   15    9    2      0.28      0.00
   13   12    2     -0.09      0.00
   12   13    2     -1.02      0.00
   -7   14    2      1.23      0.00
   -6   14    2     -1.41      0.00
   -5   15    2     -0.25      0.00
    7   15    2     -0.51      0.00
    8   15    2     -0.44      0.00
    9   15    2     -1.23      0.00
   -2   16    2      0.22      0.00
   -1   16    2      1.11      0.00
    0   16    2      0.96      0.00
    1   16    2      0.30      0.00
    2   16    2      0.34      0.00
    3   16    2      0.74      0.00
    4   16    2     -0.19      0.00
    5   16    2      0.55      0.00
    6   16    2     -0.74      0.00
   -5  -14    3     -0.81      0.00
   -4  -14    3     -2.57      0.00
   -3  -14    3     -0.50      0.00
   -2  -14    3     -2.33      0.00
   -1  -14    3     -1.49      0.00
    0  -14    3      0.85      0.00
    1  -14    3     -0.42      0.00
    2  -14    3     -0.61      0.00
   -8  -13    3      2.22      0.00
   -7  -13    3     -0.16      0.00
   -6  -13    3      0.74      0.00
    4  -13    3     -1.82      0.00
    5  -13    3     -0.72      0.00
   -9  -12    3     -0.72      0.00
    4  -12    3     -0.56      0.00
    5  -12    3      1.31      0.00
    6  -12    3      0.38      0.00
    7  -12    3      0.28      0.00
  -11  -11    3      0.48      0.00
   -9  -11    3     -1.87      0.00
    5  -11    3     -4.18      0.00
    6  -11    3      1.81      0.00
    9  -11    3     -2.08      0.00
  -12  -10    3     -1.00      0.00
  -14   -7    3      0.12      0.00
   13   -7    3      0.41      0.00
   14   -6    3     -1.30      0.00
  -15   -5    3     -1.16      0.00
   -5   -5    3     -0.98      0.00
  -15   -4    3      1.15      0.00
   -4   -4    3     -3.72      0.00
   15   -4    3      0.31      0.00
   -3   -3    3      6.27      0.00
   -2   -3    3      8.15      0.00
    2   -3    3      1.53      0.00
    7   -3    3     -0.10      0.00
  -15   -2    3     -1.89      0.00
   -2   -2    3     13.68      0.00
  -15   -1    3     -0.09      0.00
  -14   -1    3     -2.11      0.00
   -1   -1    3     22.57      0.00
   16   -1    3     -2.04      0.00
  -15    0    3     -0.08      0.00
  -14    0    3     -2.83      0.00
  -13    0    3     -1.86      0.00
   -1    0    3    -23.41      0.00
  -15    1    3     -0.56      0.00
  -14    1    3      2.42      0.00
    2    1    3      3.49      0.00
   16    1    3      0.35      0.00
    4    2    3      1.67      0.00
  -15    3    3     -0.99      0.00
   -2    3    3    -10.85      0.00
    5    3    3     -5.19      0.00
  -15    4    3      1.18      0.00
   -4    4    3      6.85      0.00
   -2    4    3     -2.47      0.00
    0    4    3     -5.43      0.00
    7    4    3     -9.74      0.00
    3    5    3     20.66      0.00
  -14    6    3      1.02      0.00
   16    7    3     -2.09      0.00
  -13    8    3      0.94      0.00
    1    8    3     -0.81      0.00
   14   11    3      0.81      0.00
   13   12    3      0.53      0.00
   12   13    3     -0.28      0.00
   -7   14    3     -1.11      0.00
   -6   14    3      0.54      0.00
   11   14    3      1.31      0.00
   -5   15    3      1.50      0.00
   -3   16    3      0.60      0.00
   -2   16    3     -0.83      0.00
   -1   16    3      0.35      0.00
    0   16    3      0.21      0.00
    1   16    3      0.34      0.00
    2   16    3      0.55      0.00
    3   16    3     -2.10      0.00
    4   16    3      0.50      0.00
    5   16    3     -0.93      0.00
    6   16    3      1.77      0.00
    7   16    3      0.53      0.00
   -6  -13    4     -0.62      0.00
   -5  -13    4      0.45      0.00
   -4  -13    4      0.97      0.00
   -3  -13    4      2.99      0.00
   -2  -13    4      2.94      0.00
   -1  -13    4      2.35      0.00
    4  -13    4      0.83      0.00
   -8  -12    4      2.09      0.00
   -7  -12    4     -2.00      0.00
    4  -12    4      0.83      0.00
    5  -12    4     -0.09      0.00
    6  -12    4      1.63      0.00
  -10  -11    4      0.31      0.00
    0  -11    4     -0.09      0.00
    4  -11    4     -1.40      0.00
    5  -11    4      1.02      0.00
    6  -11    4     -0.95      0.00
    7  -11    4      0.11      0.00
    8  -11    4     -0.61      0.00
    5  -10    4     -2.77      0.00
  -12   -9    4      0.86      0.00
   11   -9    4      0.12      0.00
  -13   -8    4      1.03      0.00
   12   -8    4     -0.73      0.00
   13   -7    4     -0.56      0.00
  -14   -6    4      0.31      0.00
   -2   -6    4     -4.67      0.00
  -15   -3    4      0.25      0.00
   -2   -3    4      0.44      0.00
  -15   -2    4      0.46      0.00
    4   -2    4     -2.59      0.00
  -15   -1    4      0.52      0.00
  -14   -1    4      1.17      0.00
  -13   -1    4     -1.73      0.00
   -2   -1    4     10.08      0.00
   16   -1    4      0.10      0.00
  -15    0    4     -0.26      0.00
  -14    0    4      0.28      0.00
  -13    0    4      2.49      0.00
  -12    0    4     -0.11      0.00
  -15    1    4      1.01      0.00
  -14    1    4     -0.15      0.00
   -3    1    4     10.85      0.00
    2    1    4     -2.47      0.00
  -15    2    4     -1.96      0.00
    3    2    4      1.94      0.00
    4    2    4    -16.22      0.00
  -15    3    4     -0.54      0.00
  -13    3    4     -0.63      0.00
   -2    3    4      6.06      0.00
   -3    4    4      3.30      0.00
    7    4    4     13.70      0.00
   -6    5    4     -4.25      0.00
   -5    5    4     -4.58      0.00
  -14    6    4      0.86      0.00
   16    7    4      1.86      0.00
  -13    8    4      0.13      0.00
   16    8    4      0.14      0.00
    1    9    4      7.81      0.00
    1   10    4     -2.14      0.00
   15   10    4      0.11      0.00
   -7   14    4     -0.64      0.00
   10   15    4      0.44      0.00
   -3   16    4     -1.38      0.00
   -2   16    4      0.76      0.00
   -1   16    4     -1.69      0.00
    0   16    4     -1.58      0.00
    1   16    4     -0.63      0.00
    2   16    4     -2.10      0.00
    3   16    4      3.10      0.00
    4   16    4     -2.27      0.00
    5   16    4      1.40      0.00
    6   16    4     -0.67      0.00
    7   16    4      0.50      0.00
    8   16    4     -0.27      0.00
   -4  -13    5      1.33      0.00
   -3  -13    5      0.53      0.00
   -2  -13    5      0.81      0.00
   -1  -13    5     -1.09      0.00
    0  -13    5     -0.34      0.00
    1  -13    5      1.40      0.00
    2  -13    5      1.92      0.00
   -7  -12    5      0.95      0.00
   -6  -12    5     -0.27      0.00
   -5  -12    5      0.38      0.00
    4  -12    5     -1.33      0.00
    5  -12    5     -0.65      0.00
   -9  -11    5     -1.27      0.00
   -8  -11    5     -0.46      0.00
    4  -11    5      2.17      0.00
    5  -11    5      0.61      0.00
    6  -11    5     -1.17      0.00
    7  -11    5     -2.03      0.00
  -10  -10    5     -1.68      0.00
   -5  -10    5     -3.55      0.00
    4  -10    5     -3.79      0.00
    5  -10    5      1.36      0.00
    6  -10    5      1.27      0.00
    9  -10    5      1.23      0.00
  -12   -8    5      0.66      0.00
   13   -6    5     -1.34      0.00
  -14   -5    5      1.98      0.00
   14   -5    5     -0.26      0.00
  -14   -4    5     -1.48      0.00
   15   -3    5      0.49      0.00
  -14   -2    5     -0.56      0.00
   -2   -2    5     12.19      0.00
  -14   -1    5     -0.42      0.00
  -13   -1    5      0.77      0.00
  -15    0    5      0.47      0.00
  -14    0    5      0.99      0.00
  -13    0    5     -0.45      0.00
  -12    0    5      2.48      0.00
   -2    0    5     -3.64      0.00
    2    0    5     12.57      0.00
   16    0    5     -0.05      0.00
  -15    1    5     -0.66      0.00
  -14    1    5      0.76      0.00
  -13    1    5      0.30      0.00
  -14    2    5     -1.32      0.00
   -1    4    5     -1.64      0.00
   13    4    5      3.83      0.00
  -14    5    5     -0.39      0.00
   -4    5    5     -1.03      0.00
    9    5    5     15.39      0.00
   -5    6    5      2.97      0.00
    2    7    5     -0.72      0.00
   16    7    5     -1.94      0.00
    0    8    5      5.68      0.00
   16    8    5      0.51      0.00
  -12    9    5     -1.04      0.00
    0    9    5     -3.58      0.00
   15   10    5      1.47      0.00
   13   13    5      0.27      0.00
   -7   14    5     -0.54      0.00
   12   14    5      1.53      0.00
   10   15    5      0.60      0.00
   -3   16    5      0.60      0.00
   -2   16    5      1.10      0.00
   -1   16    5      0.76      0.00
    0   16    5      0.77      0.00
    6   16    5      1.16      0.00
    7   16    5     -2.24      0.00
    8   16    5     -0.92      0.00
   -5  -12    6     -0.55      0.00
   -4  -12    6      0.69      0.00
   -3  -12    6     -2.10      0.00
   -2  -12    6     -0.26      0.00
   -1  -12    6     -0.33      0.00
   -7  -11    6      0.10      0.00
   -6  -11    6      0.18      0.00
   -5  -11    6      1.24      0.00
    4  -11    6     -0.46      0.00
    5  -11    6     -0.32      0.00
    6  -11    6     -0.61      0.00
   -9  -10    6      0.88      0.00
   -8  -10    6      1.01      0.00
    4  -10    6     -3.19      0.00
    5  -10    6     -0.98      0.00
    6  -10    6     -0.37      0.00
    7  -10    6      1.04      0.00
    8  -10    6     -0.48      0.00
  -10   -9    6      0.98      0.00
    5   -9    6      1.32      0.00
  -11   -8    6      1.03      0.00
   -9   -8    6     -1.36      0.00
   11   -8    6     -0.19      0.00
  -12   -7    6      0.55      0.00
   12   -7    6     -0.24      0.00
  -12   -6    6     -0.75      0.00
  -13   -5    6      0.76      0.00
  -12   -5    6     -1.12      0.00
   14   -4    6      0.01      0.00
  -14   -3    6     -1.66      0.00
  -14   -2    6      2.43      0.00
   15   -2    6     -2.28      0.00
  -14   -1    6     -0.80      0.00
  -13   -1    6      1.48      0.00
  -14    0    6     -0.70      0.00
  -13    0    6     -1.26      0.00
  -12    0    6      0.56      0.00
  -11    0    6     -0.47      0.00
   -2    0    6      9.06      0.00
    2    0    6     -8.61      0.00
   16    0    6     -0.07      0.00
  -14    1    6     -1.13      0.00
  -13    1    6     -0.93      0.00
  -12    1    6     -1.31      0.00
    4    1    6     -7.40      0.00
   16    1    6     -1.74      0.00
  -14    2    6      0.64      0.00
  -13    2    6     -1.87      0.00
   -2    2    6    -11.37      0.00
    5    2    6     -2.59      0.00
    8    3    6     -5.63      0.00
  -14    4    6     -0.72      0.00
  -13    5    6     -0.51      0.00
   -3    5    6      4.78      0.00
   -1    5    6      9.05      0.00
    2    5    6      6.63      0.00
   -5    6    6      2.14      0.00
   -4    6    6     -4.73      0.00
  -13    7    6     -0.55      0.00
   16    7    6     -0.66      0.00
   16    8    6      0.20      0.00
  -12    9    6      0.40      0.00
   15   10    6     -0.67      0.00
   14   12    6      1.13      0.00
   13   13    6     -0.92      0.00
   -7   14    6      0.26      0.00
   12   14    6      0.17      0.00
   -5   15    6     -0.09      0.00
   10   15    6     -0.39      0.00
   -4   16    6      0.11      0.00
   -3   16    6      0.27      0.00
   -2   16    6     -0.69      0.00
   -1   16    6      0.05      0.00
    8   16    6     -0.08      0.00
    9   16    6     -0.76      0.00
   -5  -11    7      0.33      0.00
   -4  -11    7     -0.08      0.00
   -3  -11    7     -2.47      0.00
   -2  -11    7      0.47      0.00
    3  -11    7      2.99      0.00
    4  -11    7      0.72      0.00
    5  -11    7      0.59      0.00
   -7  -10    7     -0.64      0.00
   -6  -10    7     -0.60      0.00
    4  -10    7      3.13      0.00
    5  -10    7      0.63      0.00
    6  -10    7      0.48      0.00
    7  -10    7      0.07      0.00
   -9   -9    7     -0.06      0.00
   -8   -9    7     -1.33      0.00
    4   -9    7      2.70      0.00
    5   -9    7      1.09      0.00
    6   -9    7     -0.62      0.00
    7   -9    7      0.64      0.00
  -10   -8    7     -1.58      0.00
   10   -8    7     -0.07      0.00
  -11   -7    7     -0.19      0.00
   11   -7    7     -1.70      0.00
  -12   -6    7      1.49      0.00
   12   -6    7     -1.36      0.00
  -12   -5    7      1.69      0.00
   13   -5    7      0.75      0.00
  -13   -4    7      1.02      0.00
  -12   -4    7     -0.21      0.00
  -13   -3    7     -2.11      0.00
  -12   -3    7      1.44      0.00
  -13   -2    7      3.54      0.00
  -12   -2    7      0.65      0.00
  -11   -2    7      3.84      0.00
   -2   -2    7      2.08      0.00
  -13   -1    7     -2.87      0.00
  -12   -1    7      1.64      0.00
  -11   -1    7      0.58      0.00
  -14    0    7     -0.22      0.00
  -13    0    7      0.25      0.00
  -12    0    7     -2.02      0.00
  -11    0    7      1.21      0.00
  -14    1    7     -0.14      0.00
  -13    1    7      0.50      0.00
  -12    1    7      1.60      0.00
  -11    1    7     -1.77      0.00
   -2    1    7      0.73      0.00
   16    1    7     -0.05      0.00
  -14    2    7     -0.18      0.00
  -13    2    7      0.82      0.00
   11    2    7     -0.03      0.00
   16    2    7     -0.68      0.00
   -2    3    7      2.88      0.00
    7    4    7      3.02      0.00
  -13    6    7      0.81      0.00
   -4    6    7     -5.46      0.00
   -1    6    7      1.57      0.00
    1    6    7    -16.07      0.00
   16    6    7     -0.98      0.00
   16    7    7      0.29      0.00
   16    8    7      0.28      0.00
  -11   10    7     -0.47      0.00
   15   10    7     -0.52      0.00
   14   12    7     -2.21      0.00
   13   13    7     -0.93      0.00
   -7   14    7      1.06      0.00
   12   14    7     -0.79      0.00
   -5   15    7     -0.99      0.00
    9   15    7      0.32      0.00
   10   15    7     -0.36      0.00
   11   15    7     -0.60      0.00
   -4   16    7     -0.28      0.00
   -3   16    7     -0.28      0.00
   -2   16    7     -1.17      0.00
   -1   16    7      0.00      0.00
    9   16    7      0.38      0.00
   -2  -11    8     -1.04      0.00
   -1  -11    8      0.52      0.00
    0  -11    8      1.35      0.00
    1  -11    8     -0.60      0.00
    2  -11    8      1.60      0.00
   -6  -10    8     -1.79      0.00
   -5  -10    8     -1.08      0.00
   -4  -10    8     -0.49      0.00
   -3  -10    8      0.28      0.00
    3  -10    8      0.97      0.00
    4  -10    8     -0.76      0.00
    5  -10    8     -0.46      0.00
   -7   -9    8      0.33      0.00
   -6   -9    8     -1.19      0.00
    4   -9    8      0.03      0.00
    5   -9    8     -1.33      0.00
    6   -9    8      0.33      0.00
    7   -9    8     -0.03      0.00
   -9   -8    8     -2.14      0.00
   -8   -8    8      1.16      0.00
    9   -8    8     -2.45      0.00
  -10   -7    8      0.46      0.00
   -9   -7    8      0.76      0.00
  -11   -6    8     -0.38      0.00
    6   -5    8     -0.12      0.00
  -12   -4    8     -0.56      0.00
   13   -4    8      0.48      0.00
  -12   -3    8     -0.41      0.00
   14   -3    8      0.16      0.00
  -13   -2    8     -0.07      0.00
  -12   -2    8      2.74      0.00
  -13   -1    8     -1.13      0.00
  -12   -1    8     -1.75      0.00
    3   -1    8      0.39      0.00
   12   -1    8      0.74      0.00
   15   -1    8     -1.03      0.00
  -13    0    8      0.88      0.00
  -12    0    8      1.96      0.00
  -11    0    8      0.33      0.00
   -2    0    8      6.78      0.00
    3    0    8      1.94      0.00
    4    0    8     -3.42      0.00
  -13    1    8      1.19      0.00
  -12    1    8     -0.34      0.00
  -11    1    8      1.14      0.00
    4    1    8      2.15      0.00
    5    1    8     -7.63      0.00
    6    1    8      5.52      0.00
  -13    2    8      0.08      0.00
  -12    2    8     -0.52      0.00
    7    2    8     -3.59      0.00
  -13    3    8      0.17      0.00
    6    3    8     -2.85      0.00
   16    3    8     -0.28      0.00
  -13    4    8     -0.59      0.00
   16    4    8      0.94      0.00
  -13    5    8      0.72      0.00
   16    5    8     -1.11      0.00
   -2    6    8      0.82      0.00
   16    6    8      2.11      0.00
   16    7    8     -0.08      0.00
  -12    8    8     -1.00      0.00
   15   10    8     -0.17      0.00
  -10   11    8      1.41      0.00
   -9   12    8     -0.90      0.00
   14   12    8      1.34      0.00
   -8   13    8     -0.86      0.00
   13   13    8      1.05      0.00
   -7   14    8     -0.12      0.00
    9   14    8      0.94      0.00
   12   14    8      0.06      0.00
   -4   15    8      0.07      0.00
    9   15    8      0.59      0.00
   10   15    8      1.37      0.00
   11   15    8      0.98      0.00
   -3   16    8     -0.60      0.00
   -2   16    8     -0.37      0.00
   -1   16    8     -0.33      0.00
    9   16    8     -0.77      0.00
   -3  -10    9     -1.21      0.00
   -2  -10    9     -0.33      0.00
   -1  -10    9     -0.11      0.00
    0  -10    9     -1.29      0.00
    1  -10    9     -1.67      0.00
    2  -10    9      0.50      0.00
    3  -10    9     -0.62      0.00
   -6   -9    9      2.86      0.00
   -5   -9    9      3.41      0.00
   -4   -9    9     -0.07      0.00
   -3   -9    9      3.13      0.00
    5   -9    9      0.59      0.00
    6   -9    9      0.90      0.00
   -7   -8    9     -1.00      0.00
   -6   -8    9     -1.10      0.00
    6   -8    9      0.62      0.00
    7   -8    9     -0.11      0.00
    8   -8    9      0.00      0.00
   -9   -7    9      1.24      0.00
   -8   -7    9      1.53      0.00
    7   -7    9      0.31      0.00
  -10   -6    9      0.79      0.00
   -9   -6    9     -2.87      0.00
  -10   -5    9     -0.23      0.00
   10   -5    9     -0.16      0.00
  -11   -4    9     -0.52      0.00
   11   -4    9      0.32      0.00
   13   -3    9     -0.22      0.00
  -12   -2    9     -1.00      0.00
   14   -2    9      1.40      0.00
  -12   -1    9      0.03      0.00
  -12    0    9      1.72      0.00
    4    0    9      0.00      0.00
  -12    1    9     -1.19      0.00
  -11    1    9     -0.99      0.00
    4    1    9     -4.63      0.00
    5    1    9     -0.16      0.00
   15    1    9      0.30      0.00
  -12    2    9     -0.48      0.00
  -11    2    9      0.13      0.00
  -12    3    9      0.33      0.00
  -11    3    9     -0.39      0.00
   -2    5    9     -4.46      0.00
  -12    6    9     -0.69      0.00
   -1    6    9     -2.16      0.00
   -2    7    9    -11.88      0.00
  -11    9    9      1.70      0.00
   15    9    9      0.04      0.00
   15   10    9      0.36      0.00
   12   12    9      0.44      0.00
   13   13    9      0.04      0.00
    9   14    9      0.98      0.00
   12   14    9     -0.37      0.00
   -5   15    9      2.11      0.00
   -4   15    9     -2.03      0.00
    9   15    9      0.45      0.00
   10   15    9      1.93      0.00
   11   15    9      0.94      0.00
   -3   16    9     -0.37      0.00
   -2   16    9      0.89      0.00
   -1   16    9      1.81      0.00
    0   16    9     -1.67      0.00
    9   16    9     -1.02      0.00
   -3   -9   10     -2.17      0.00
   -2   -9   10      0.40      0.00
   -1   -9   10      0.45      0.00
    0   -9   10     -1.05      0.00
    1   -9   10      2.55      0.00
    3   -9   10     -0.14      0.00
   -6   -8   10     -1.17      0.00
   -5   -8   10     -2.01      0.00
   -4   -8   10     -2.52      0.00
   -3   -8   10      0.05      0.00
    6   -8   10     -1.49      0.00
   -7   -7   10     -0.01      0.00
   -6   -7   10      2.44      0.00
   -5   -7   10      1.04      0.00
    8   -7   10     -0.79      0.00
   -8   -6   10     -0.73      0.00
   -7   -6   10     -2.80      0.00
    9   -6   10     -0.71      0.00
   -9   -5   10      1.07      0.00
   -8   -5   10      1.29      0.00
   10   -5   10      1.32      0.00
  -10   -4   10      1.53      0.00
  -11   -2   10     -0.87      0.00
   13   -2   10     -0.26      0.00
   14    0   10      1.03      0.00
  -12    1   10      0.05      0.00
  -12    2   10      0.07      0.00
  -11    2   10      0.66      0.00
   15    2   10      1.84      0.00
  -12    3   10      0.74      0.00
  -11    3   10      1.90      0.00
    9    3   10      0.09      0.00
   15    3   10     -1.22      0.00
  -12    4   10     -0.21      0.00
  -11    4   10      0.13      0.00
  -11    5   10      1.19      0.00
  -11    8   10     -0.07      0.00
   15    8   10      0.02      0.00
   15    9   10     -1.83      0.00
   -9   11   10      1.04      0.00
   14   11   10      0.10      0.00
   -8   12   10     -1.02      0.00
   -7   13   10     -2.65      0.00
    8   13   10     -1.44      0.00
   13   13   10      0.26      0.00
   -6   14   10     -0.64      0.00
   -5   14   10      1.21      0.00
    8   14   10     -1.23      0.00
    9   14   10     -1.54      0.00
   10   14   10      0.69      0.00
   12   14   10     -0.05      0.00
   -4   15   10      0.97      0.00
   -3   15   10     -0.32      0.00
    2   15   10      0.18      0.00
    8   15   10      1.06      0.00
    9   15   10     -0.86      0.00
   10   15   10      0.25      0.00
   -3   16   10      1.43      0.00
   -2   16   10      1.15      0.00
   -1   16   10      0.16      0.00
    0   16   10      0.62      0.00
    1   16   10     -0.07      0.00
    8   16   10      1.10      0.00
    9   16   10      1.05      0.00
   -3   -8   11      1.61      0.00
   -2   -8   11      1.60      0.00
   -1   -8   11      1.15      0.00
    0   -8   11      0.10      0.00
    1   -8   11     -0.73      0.00
    2   -8   11      1.16      0.00
    3   -8   11     -0.07      0.00
    4   -8   11      2.58      0.00
   -5   -7   11     -0.84      0.00
   -4   -7   11      0.41      0.00
   -3   -7   11     -0.44      0.00
    6   -7   11      0.40      0.00
   -7   -6   11      0.16      0.00
   -6   -6   11     -0.58      0.00
   -5   -6   11     -3.10      0.00
    8   -6   11     -0.16      0.00
   -8   -5   11      0.69      0.00
   -7   -5   11      2.35      0.00
   -9   -4   11     -0.96      0.00
   -8   -4   11      0.57      0.00
   -9   -3   11     -1.14      0.00
   10   -3   11      0.15      0.00
  -10   -2   11      0.68      0.00
  -10   -1   11      0.86      0.00
   13   -1   11     -0.79      0.00
  -11    0   11      0.59      0.00
  -11    1   11      0.11      0.00
   14    1   11      1.28      0.00
  -11    2   11      0.17      0.00
    9    2   11     -0.53      0.00
  -11    3   11     -0.64      0.00
  -11    4   11     -1.62      0.00
   15    4   11     -0.44      0.00
  -11    5   11     -0.94      0.00
   15    5   11      1.23      0.00
  -11    6   11      0.43      0.00
   15    6   11     -0.87      0.00
  -10    7   11      1.99      0.00
   15    7   11     -0.49      0.00
  -10    8   11     -0.68      0.00
   15    8   11     -1.15      0.00
   -9   10   11      0.02      0.00
   14   10   11      1.41      0.00
   -8   11   11      1.72      0.00
   -7   12   11     -0.57      0.00
   13   12   11     -0.23      0.00
   -6   13   11     -1.15      0.00
    8   13   11      0.01      0.00
   -5   14   11      0.40      0.00
   -4   14   11      1.01      0.00
    8   14   11      2.15      0.00
    9   14   11     -1.10      0.00
   10   14   11     -1.05      0.00
   -4   15   11     -0.34      0.00
   -3   15   11     -1.09      0.00
   -2   15   11     -1.92      0.00
    8   15   11      0.92      0.00
    9   15   11      2.03      0.00
   10   15   11     -1.26      0.00
   -2   16   11      0.45      0.00
   -1   16   11     -1.11      0.00
    0   16   11      0.82      0.00
    1   16   11      0.09      0.00
    2   16   11      1.73      0.00
    3   16   11      1.73      0.00
    8   16   11     -1.68      0.00
   -2   -7   12     -0.63      0.00
   -1   -7   12     -1.14      0.00
    0   -7   12     -0.92      0.00
    1   -7   12     -0.62      0.00
    2   -7   12      1.61      0.00
    3   -7   12     -2.49      0.00
   -5   -6   12      1.67      0.00
   -4   -6   12      0.21      0.00
   -3   -6   12      0.73      0.00
   -2   -6   12      1.60      0.00
    6   -6   12      0.15      0.00
   -6   -5   12      2.60      0.00
   -5   -5   12     -1.44      0.00
   -4   -5   12      2.96      0.00
    8   -5   12      2.11      0.00
   -7   -4   12      0.00      0.00
   -6   -4   12     -3.91      0.00
   -8   -3   12      0.86      0.00
   -7   -3   12     -1.04      0.00
   -9   -2   12      1.50      0.00
   -8   -2   12      0.61      0.00
   -9   -1   12     -1.67      0.00
   12   -1   12      0.69      0.00
  -10    0   12      0.66      0.00
   -9    0   12      0.87      0.00
   13    0   12     -2.08      0.00
  -10    1   12      0.87      0.00
  -10    2   12     -0.71      0.00
  -10    3   12      0.14      0.00
   14    3   12     -0.74      0.00
  -10    4   12      0.18      0.00
   14    4   12      0.97      0.00
  -10    5   12      1.38      0.00
  -10    6   12      1.66      0.00
  -10    7   12     -0.31      0.00
   -9    8   12     -0.94      0.00
   -9    9   12     -0.92      0.00
   14    9   12      0.45      0.00
   -8   10   12      0.44      0.00
   -8   11   12     -0.12      0.00
   -7   11   12      0.94      0.00
   13   11   12     -1.70      0.00
   -7   12   12     -0.29      0.00
   -6   12   12      0.31      0.00
    7   12   12      1.30      0.00
   13   12   12      0.82      0.00
   -6   13   12      1.43      0.00
   -5   13   12      0.44      0.00
    7   13   12     -3.49      0.00
    8   13   12      1.47      0.00
    9   13   12     -1.60      0.00
   12   13   12     -0.77      0.00
   -5   14   12      0.85      0.00
   -4   14   12      0.03      0.00
   -3   14   12      0.90      0.00
    7   14   12      1.40      0.00
    8   14   12     -0.85      0.00
    9   14   12      2.56      0.00
   10   14   12      0.92      0.00
   11   14   12      1.77      0.00
   -3   15   12     -0.64      0.00
   -2   15   12      0.36      0.00
   -1   15   12     -1.46      0.00
    0   15   12      2.00      0.00
    8   15   12     -1.66      0.00
    9   15   12      0.00      0.00
   10   15   12      0.01      0.00
   -1   16   12      2.00      0.00
    0   16   12      0.61      0.00
    1   16   12      2.79      0.00
    2   16   12     -0.48      0.00
    3   16   12     -1.09      0.00
    4   16   12      0.07      0.00
    5   16   12     -1.06      0.00
    8   16   12     -0.34      0.00
   -1   -6   13     -1.25      0.00
    0   -6   13      1.46      0.00
    1   -6   13     -0.93      0.00
    2   -6   13      1.12      0.00
    3   -6   13     -0.98      0.00
   -4   -5   13      1.47      0.00
   -3   -5   13      0.07      0.00
   -2   -5   13     -1.04      0.00
   -1   -5   13      0.07      0.00
    3   -5   13     -0.38      0.00
    6   -5   13      1.32      0.00
   -5   -4   13     -0.12      0.00
   -4   -4   13     -0.47      0.00
   -3   -4   13      1.49      0.00
    8   -4   13     -2.14      0.00
   -6   -3   13     -0.08      0.00
   -5   -3   13      1.08      0.00
    9   -3   13     -1.07      0.00
   -7   -2   13     -1.42      0.00
   -6   -2   13      1.84      0.00
   10   -2   13      0.02      0.00
   -8   -1   13     -2.07      0.00
   -7   -1   13     -1.20      0.00
   11   -1   13     -1.76      0.00
   -8    0   13      0.85      0.00
   12    0   13     -1.82      0.00
   -9    1   13     -1.88      0.00
   -8    1   13      0.30      0.00
   -9    2   13      1.25      0.00
   13    2   13     -0.51      0.00
   -9    3   13     -0.80      0.00
   13    3   13      0.51      0.00
   -9    4   13      0.03      0.00
   -9    5   13      0.86      0.00
   -9    6   13     -0.51      0.00
   14    6   13      0.47      0.00
   -9    7   13     -1.12      0.00
   14    7   13      1.62      0.00
   -8    8   13     -3.08      0.00
   -8    9   13      0.98      0.00
   -7   10   13      1.42      0.00
   13   10   13      0.59      0.00
   -7   11   13     -0.31      0.00
   -6   11   13     -1.35      0.00
   13   11   13      0.41      0.00
   -6   12   13      0.24      0.00
   -5   12   13     -1.06      0.00
    7   12   13     -1.22      0.00
    8   12   13     -1.86      0.00
   12   12   13     -0.11      0.00
   -5   13   13     -0.13      0.00
   -4   13   13     -1.68      0.00
   -3   13   13     -1.89      0.00
    7   13   13     -1.47      0.00
    8   13   13     -3.07      0.00
    9   13   13     -0.07      0.00
   11   13   13     -0.70      0.00
   -4   14   13     -0.35      0.00
   -3   14   13     -1.51      0.00
   -2   14   13     -1.77      0.00
    7   14   13      0.93      0.00
    8   14   13     -0.51      0.00
    9   14   13     -0.33      0.00
   10   14   13     -0.07      0.00
   -2   15   13     -2.02      0.00
   -1   15   13     -0.06      0.00
    0   15   13     -2.18      0.00
    1   15   13      3.81      0.00
    7   15   13     -2.52      0.00
    8   15   13      0.41      0.00
    9   15   13     -1.94      0.00
    0   16   13      0.35      0.00
    1   16   13     -0.63      0.00
    2   16   13      0.69      0.00
    3   16   13      0.71      0.00
    4   16   13     -0.20      0.00
    5   16   13      0.28      0.00
    6   16   13     -0.96      0.00
    7   16   13     -1.54      0.00
   -3   -4   14     -1.04      0.00
   -2   -4   14     -1.00      0.00
   -1   -4   14      1.78      0.00
    0   -4   14     -1.53      0.00
    5   -4   14      0.34      0.00
   -4   -3   14     -0.64      0.00
   -3   -3   14     -2.36      0.00
   -2   -3   14     -1.25      0.00
    7   -3   14      0.88      0.00
   -6   -2   14     -0.26      0.00
   -5   -2   14      0.78      0.00
   -4   -2   14     -2.04      0.00
    9   -2   14     -0.49      0.00
   -6   -1   14      0.87      0.00
   -5   -1   14     -2.83      0.00
   10   -1   14     -1.56      0.00
   -7    0   14      2.82      0.00
   -6    0   14      1.71      0.00
   -7    1   14      0.92      0.00
   -6    1   14      1.73      0.00
   11    1   14     -0.22      0.00
   -8    2   14      2.22      0.00
   -7    2   14     -0.17      0.00
   12    2   14     -1.22      0.00
   -8    3   14     -0.54      0.00
   -7    3   14      0.02      0.00
   -6    3   14     -0.96      0.00
   -8    4   14     -1.19      0.00
   -7    4   14      1.81      0.00
   -8    5   14     -0.16      0.00
   -7    5   14     -2.37      0.00
   13    5   14      0.24      0.00
   -8    6   14      1.03      0.00
   -7    6   14     -0.83      0.00
   13    6   14      1.08      0.00
   -8    7   14     -0.35      0.00
   -7    7   14      0.58      0.00
   13    7   14      2.00      0.00
   -7    8   14      1.90      0.00
   13    8   14     -1.01      0.00
   -7    9   14      1.72      0.00
   -6    9   14      2.21      0.00
   13    9   14      1.57      0.00
   -6   10   14      1.86      0.00
   -5   10   14      0.64      0.00
   -6   11   14      0.42      0.00
   -5   11   14      0.63      0.00
    6   11   14      0.81      0.00
    7   11   14      2.40      0.00
   12   11   14      0.87      0.00
   -5   12   14      1.35      0.00
   -4   12   14      0.12      0.00
   -3   12   14      0.17      0.00
    6   12   14     -1.13      0.00
    7   12   14     -4.85      0.00
    8   12   14     -1.49      0.00
   11   12   14     -0.05      0.00
   -4   13   14      0.85      0.00
   -3   13   14      1.05      0.00
   -2   13   14      1.31      0.00
    6   13   14     -0.84      0.00
    7   13   14      0.71      0.00
    8   13   14      0.46      0.00
    9   13   14      1.24      0.00
   10   13   14      1.78      0.00
   -3   14   14      0.58      0.00
   -2   14   14      0.72      0.00
   -1   14   14      0.65      0.00
    0   14   14     -0.11      0.00
    7   14   14      0.75      0.00
    8   14   14      0.58      0.00
    9   14   14      0.49      0.00
   -1   15   14     -0.06      0.00
    0   15   14      1.11      0.00
    1   15   14      0.08      0.00
    2   15   14     -0.69      0.00
    3   15   14      1.67      0.00
    7   15   14     -0.20      0.00
    8   15   14      0.25      0.00
    3   16   14     -3.39      0.00
    4   16   14     -0.70      0.00
    5   16   14     -1.39      0.00
   -1   -3   15     -0.01      0.00
    0   -3   15     -0.58      0.00
    1   -3   15      1.82      0.00
    2   -3   15      0.06      0.00
    3   -3   15     -0.71      0.00
    4   -3   15     -0.55      0.00
   -3   -2   15      1.06      0.00
   -2   -2   15      2.60      0.00
   -1   -2   15      1.32      0.00
    6   -2   15      0.68      0.00
   -4   -1   15     -1.51      0.00
   -3   -1   15      1.05      0.00
   -2   -1   15      1.01      0.00
    8   -1   15      0.52      0.00
   -5    0   15     -0.23      0.00
   -4    0   15      1.68      0.00
   -3    0   15     -0.15      0.00
    9    0   15      1.72      0.00
   -6    1   15     -1.69      0.00
   -5    1   15     -2.29      0.00
   -4    1   15     -0.95      0.00
   10    1   15      1.41      0.00
   -6    2   15     -2.94      0.00
   -5    2   15     -0.59      0.00
   -7    3   15     -1.25      0.00
   -6    3   15      0.33      0.00
   -5    3   15     -2.26      0.00
   11    3   15      1.19      0.00
   -7    4   15      0.07      0.00
   -6    4   15      1.35      0.00
   -7    5   15      0.21      0.00
   -6    5   15     -1.17      0.00
   12    5   15     -1.37      0.00
   -7    6   15      0.15      0.00
   -6    6   15      0.10      0.00
   12    6   15      0.62      0.00
   -7    7   15     -0.11      0.00
   -6    7   15      0.86      0.00
   -5    7   15     -0.46      0.00
   12    7   15     -0.18      0.00
   -6    8   15     -0.38      0.00
   -5    8   15      1.01      0.00
   12    8   15      1.46      0.00
   -6    9   15     -1.40      0.00
   -5    9   15      0.01      0.00
   12    9   15      0.03      0.00
   -5   10   15     -0.90      0.00
   -4   10   15      1.42      0.00
    6   10   15      0.83      0.00
   -5   11   15     -1.24      0.00
   -4   11   15     -0.40      0.00
   -3   11   15     -1.65      0.00
    6   11   15     -0.35      0.00
    7   11   15      1.09      0.00
   11   11   15      1.40      0.00
   -4   12   15     -0.63      0.00
   -3   12   15     -0.85      0.00
   -2   12   15     -2.03      0.00
    6   12   15     -4.03      0.00
    7   12   15     -1.09      0.00
    8   12   15     -1.12      0.00
    9   12   15      0.05      0.00
   10   12   15      1.33      0.00
   -3   13   15      1.48      0.00
   -2   13   15     -0.19      0.00
   -1   13   15      1.15      0.00
    0   13   15      0.53      0.00
    6   13   15      1.61      0.00
    7   13   15      2.56      0.00
    8   13   15      2.18      0.00
    9   13   15      1.80      0.00
   -1   14   15     -2.59      0.00
    0   14   15     -2.52      0.00
    1   14   15     -1.18      0.00
    2   14   15     -2.19      0.00
    6   14   15      0.28      0.00
    7   14   15     -1.00      0.00
    8   14   15      1.44      0.00
    1   15   15     -1.52      0.00
    2   15   15      0.82      0.00
    3   15   15     -0.69      0.00
    4   15   15      2.00      0.00
    5   15   15     -0.97      0.00
    6   15   15      0.61      0.00
   -1   -1   16     -1.48      0.00
    0   -1   16      0.59      0.00
    4   -1   16      0.91      0.00
    5   -1   16      0.14      0.00
   -3    0   16      1.65      0.00
   -2    0   16     -0.29      0.00
    7    0   16     -1.29      0.00
   -4    1   16      0.46      0.00
   -3    1   16     -1.07      0.00
   -2    1   16      1.09      0.00
    8    1   16     -0.57      0.00
   -4    2   16      2.05      0.00
   -3    2   16      1.07      0.00
    9    2   16      0.61      0.00
   -5    3   16      1.09      0.00
   -4    3   16      0.54      0.00
   -3    3   16      2.15      0.00
   10    3   16      0.83      0.00
   -5    4   16      1.19      0.00
   -4    4   16      0.82      0.00
   -3    4   16     -0.19      0.00
   10    4   16      0.59      0.00
   -5    5   16     -3.03      0.00
   -4    5   16     -1.13      0.00
   -5    6   16      1.08      0.00
   -4    6   16     -3.54      0.00
   11    6   16      0.85      0.00
   -5    7   16      0.38      0.00
   -4    7   16      0.69      0.00
    1    7   16      0.03      0.00
   11    7   16     -0.34      0.00
   -5    8   16     -1.41      0.00
   -4    8   16     -0.26      0.00
   -3    8   16     -1.24      0.00
   11    8   16      0.41      0.00
   -4    9   16      0.42      0.00
   -3    9   16      2.60      0.00
    5    9   16      1.24      0.00
   11    9   16     -0.06      0.00
   -4   10   16     -0.71      0.00
   -3   10   16     -1.15      0.00
   -2   10   16      0.95      0.00
    5   10   16     -0.32      0.00
    6   10   16     -0.83      0.00
   10   10   16      0.61      0.00
   -3   11   16     -1.60      0.00
   -2   11   16     -2.33      0.00
   -1   11   16     -0.36      0.00
    5   11   16      1.58      0.00
    6   11   16      0.64      0.00
    7   11   16     -1.34      0.00
    8   11   16      0.71      0.00
   10   11   16      1.75      0.00
   -2   12   16      0.42      0.00
   -1   12   16      1.41      0.00
    0   12   16     -0.18      0.00
    5   12   16     -0.62      0.00
    6   12   16      1.08      0.00
    7   12   16     -0.06      0.00
    8   12   16     -0.30      0.00
    9   12   16     -0.88      0.00
   -1   13   16      0.42      0.00
    0   13   16     -0.25      0.00
    1   13   16     -0.50      0.00
    2   13   16     -0.03      0.00
    6   13   16      1.65      0.00
    7   13   16      2.58      0.00
    8   13   16      2.06      0.00
    1   14   16     -2.23      0.00
    2   14   16      0.10      0.00
    3   14   16     -0.14      0.00
    4   14   16     -0.58      0.00
    5   14   16     -0.85      0.00
    6   14   16     -0.24      0.00
   -1    1   17      0.45      0.00
    0    1   17     -0.05      0.00
    1    1   17     -0.82      0.00
    2    1   17      0.51      0.00
    3    1   17     -0.34      0.00
    4    1   17      1.46      0.00
    5    1   17     -0.77      0.00
   -2    2   17      0.27      0.00
   -1    2   17     -1.13      0.00
    6    2   17     -0.40      0.00
    7    2   17     -1.19      0.00
   -3    3   17     -0.49      0.00
   -2    3   17     -0.22      0.00
    7    3   17      0.33      0.00
    8    3   17     -0.15      0.00
   -3    4   17      0.37      0.00
   -2    4   17     -2.16      0.00
   -1    4   17     -1.76      0.00
    8    4   17      0.68      0.00
   -3    5   17     -0.97      0.00
   -2    5   17      2.60      0.00
   -1    5   17     -1.19      0.00
    9    5   17      0.20      0.00
   -3    6   17      0.83      0.00
   -2    6   17      0.18      0.00
    9    6   17     -0.23      0.00
   -3    7   17      3.22      0.00
   -2    7   17      0.91      0.00
   -1    7   17      2.48      0.00
    9    7   17      0.55      0.00
   -3    8   17     -0.59      0.00
   -2    8   17      0.45      0.00
   -1    8   17     -1.43      0.00
    4    8   17     -1.85      0.00
    9    8   17     -0.48      0.00
   -3    9   17      0.79      0.00
   -2    9   17      3.25      0.00
   -1    9   17      0.00      0.00
    4    9   17      1.02      0.00
    5    9   17     -0.19      0.00
    6    9   17     -0.40      0.00
    9    9   17     -0.05      0.00
   -2   10   17     -2.96      0.00
   -1   10   17      0.55      0.00
    0   10   17     -1.51      0.00
    5   10   17     -0.23      0.00
    6   10   17      0.20      0.00
    7   10   17     -0.04      0.00
    9   10   17      1.93      0.00
   -1   11   17      0.46      0.00
    0   11   17      0.96      0.00
    1   11   17     -0.26      0.00
    5   11   17     -0.39      0.00
    6   11   17      0.16      0.00
    7   11   17      0.27      0.00
    8   11   17     -0.44      0.00
    0   12   17      1.40      0.00
    1   12   17      0.29      0.00
    2   12   17      0.46      0.00
    3   12   17      0.73      0.00
    5   12   17      0.12      0.00
    6   12   17     -0.52      0.00
    7   12   17      0.44      0.00
    2   13   17     -1.49      0.00
    3   13   17     -1.24      0.00
    4   13   17      1.04      0.00
    5   13   17      0.54      0.00
    2    3   18     -0.94      0.00
    3    3   18     -0.01      0.00
    0    4   18      0.80      0.00
    1    4   18     -0.59      0.00
    2    4   18      2.78      0.00
    3    4   18     -1.51      0.00
    4    4   18     -0.59      0.00
    5    4   18     -1.66      0.00
    0    5   18     -0.52      0.00
    1    5   18      1.65      0.00
    5    5   18     -0.06      0.00
    6    5   18     -1.43      0.00
   -1    6   18     -0.91      0.00
    0    6   18      0.09      0.00
    1    6   18      0.90      0.00
    6    6   18      0.30      0.00
    7    6   18     -0.59      0.00
   -1    7   18     -1.68      0.00
    0    7   18     -0.37      0.00
    1    7   18     -2.42      0.00
    3    7   18     -1.51      0.00
    6    7   18      0.51      0.00
    7    7   18      0.23      0.00
   -1    8   18     -0.72      0.00
    0    8   18     -1.08      0.00
    1    8   18     -0.37      0.00
    4    8   18     -0.03      0.00
    5    8   18      0.76      0.00
    6    8   18     -1.21      0.00
    7    8   18      0.02      0.00
    0    9   18     -1.15      0.00
    1    9   18     -0.09      0.00
    2    9   18     -0.86      0.00
    4    9   18     -0.08      0.00
    5    9   18     -0.24      0.00
    6    9   18      0.47      0.00
    7    9   18      0.32      0.00
    1   10   18      0.01      0.00
    2   10   18      0.57      0.00
    3   10   18     -0.64      0.00
    4   10   18      0.01      0.00
    5   10   18     -0.39      0.00
    6   10   18     -0.56      0.00
    2   11   18     -0.94      0.00
    3   11   18      0.21      0.00
    4   11   18     -0.62      0.00
    5   11   18      0.81      0.00
    0    0    0      0.00      0.00
;
_platon_squeeze_void_probe_radius 1.20
_shelx_shelxl_version_number     2014/7
_olex2_submission_special_instructions 'No special instructions were received'
loop_
_space_group_symop_operation_xyz
'x, y, z'
'-x, -y, -z'
loop_
_atom_site_label
_atom_site_type_symbol
_atom_site_fract_x
_atom_site_fract_y
_atom_site_fract_z
_atom_site_U_iso_or_equiv
_atom_site_adp_type
_atom_site_occupancy
_atom_site_site_symmetry_order
_atom_site_calc_flag
_atom_site_refinement_flags_posn
_atom_site_refinement_flags_adp
Zn1 Zn 1.54116(5) 0.92546(6) -0.11370(5) 0.0153(3) Uani 1 1 d . .
Zn2 Zn 1.08889(5) 0.53397(5) 0.53935(5) 0.0133(3) Uani 1 1 d . .
O1 O 1.4042(3) 0.8556(4) -0.0813(4) 0.0217(9) Uani 1 1 d . .
O2 O 1.4417(4) 0.6880(4) 0.0581(5) 0.0392(14) Uani 1 1 d . .
O3 O 1.1215(4) 0.6190(4) 0.3740(3) 0.0249(10) Uani 1 1 d . .
O4 O 0.9888(4) 0.5713(4) 0.3151(4) 0.0230(10) Uani 1 1 d . .
O5 O 0.6488(3) 0.8784(3) -0.0123(3) 0.0190(9) Uani 1 1 d . U
O6 O 0.5227(3) 0.9167(4) 0.1127(3) 0.0178(9) Uani 1 1 d . .
O7 O 0.5890(4) 0.9753(4) 0.7275(4) 0.0248(10) Uani 1 1 d . .
O8 O 0.6703(5) 0.7999(5) 0.8057(4) 0.0478(16) Uani 1 1 d . .
O9 O 0.8337(4) 0.6131(4) 0.4775(4) 0.0332(12) Uani 1 1 d . .
O10 O 0.9649(4) 0.6648(4) 0.5366(4) 0.0288(11) Uani 1 1 d . .
O11 O 1.2081(5) 0.5793(5) 0.5855(5) 0.0490(16) Uani 1 1 d . .
H11A H 1.2265 0.6236 0.5167 0.074 Uiso 1 1 d R .
H11B H 1.2296 0.5055 0.6137 0.074 Uiso 1 1 d R .
C1 C 1.3777(5) 0.7710(6) 0.0022(6) 0.0236(14) Uani 1 1 d . .
C2 C 1.2534(5) 0.7710(5) 0.0430(5) 0.0157(12) Uani 1 1 d . .
C3 C 1.1798(5) 0.8561(5) -0.0271(5) 0.0180(12) Uani 1 1 d . .
H3 H 1.2060 0.9068 -0.0988 0.022 Uiso 1 1 calc R .
C4 C 1.0658(5) 0.8614(5) 0.0152(5) 0.0183(12) Uani 1 1 d . .
H4 H 1.0133 0.9130 -0.0315 0.022 Uiso 1 1 calc R .
C5 C 1.0273(4) 0.7945(4) 0.1218(4) 0.0099(10) Uani 1 1 d . U
C6 C 1.1029(5) 0.7088(5) 0.1879(5) 0.0154(12) Uani 1 1 d . .
C7 C 1.2149(5) 0.6993(5) 0.1462(5) 0.0188(13) Uani 1 1 d . .
H7 H 1.2660 0.6416 0.1905 0.023 Uiso 1 1 calc R .
C8 C 1.0666(5) 0.6268(5) 0.3023(5) 0.0193(13) Uani 1 1 d . .
C9 C 0.9082(5) 0.8178(5) 0.1670(5) 0.0148(12) Uani 1 1 d . .
C10 C 0.8226(5) 0.8377(5) 0.1045(5) 0.0162(12) Uani 1 1 d . .
H10 H 0.8385 0.8314 0.0361 0.019 Uiso 1 1 calc R .
C11 C 0.7146(5) 0.8667(5) 0.1441(5) 0.0138(11) Uani 1 1 d . .
C12 C 0.6901(5) 0.8743(5) 0.2440(5) 0.0172(12) Uani 1 1 d . .
H12 H 0.6148 0.8934 0.2699 0.021 Uiso 1 1 calc R .
C13 C 0.7743(5) 0.8541(5) 0.3072(5) 0.0143(12) Uani 1 1 d . .
C14 C 0.8832(5) 0.8287(5) 0.2648(5) 0.0159(12) Uani 1 1 d . .
H14 H 0.9425 0.8185 0.3050 0.019 Uiso 1 1 calc R .
C15 C 0.6207(5) 0.8902(5) 0.0798(5) 0.0151(12) Uani 1 1 d . .
C16 C 0.7487(5) 0.8659(5) 0.4125(5) 0.0154(12) Uani 1 1 d . .
C17 C 0.6747(5) 0.9565(6) 0.4206(5) 0.0197(13) Uani 1 1 d . .
H17 H 0.6442 1.0134 0.3576 0.024 Uiso 1 1 calc R .
C18 C 0.6434(5) 0.9660(5) 0.5213(5) 0.0166(12) Uani 1 1 d . U
H18 H 0.5914 1.0288 0.5262 0.020 Uiso 1 1 calc R .
C19 C 0.6880(5) 0.8842(5) 0.6135(5) 0.0220(13) Uani 1 1 d . U
C20 C 0.7668(6) 0.7947(6) 0.6041(5) 0.0286(16) Uani 1 1 d . .
H20 H 0.8007 0.7406 0.6662 0.034 Uiso 1 1 calc R .
C21 C 0.7962(5) 0.7835(6) 0.5056(5) 0.0230(14) Uani 1 1 d . .
C22 C 0.8700(6) 0.6789(6) 0.5059(5) 0.0242(14) Uani 1 1 d . .
C23 C 0.6475(6) 0.8872(6) 0.7249(5) 0.0218(13) Uani 1 1 d . .
N1 N 1.6625(15) 0.6148(16) 0.0208(16) 0.145(5) Uani 1 1 d . U
H1A H 1.7062 0.6671 -0.0316 0.174 Uiso 1 1 calc R .
H1B H 1.5913 0.6499 0.0259 0.174 Uiso 1 1 calc R .
C24 C 1.706(3) 0.568(3) 0.126(3) 0.216(11) Uani 1 1 d . U
H24A H 1.7321 0.4850 0.1473 0.325 Uiso 1 1 calc GR .
H24B H 1.6470 0.5776 0.1821 0.325 Uiso 1 1 calc GR .
H24C H 1.7691 0.6088 0.1201 0.325 Uiso 1 1 calc GR .
C25 C 1.6654(17) 0.5120(18) -0.004(2) 0.137(6) Uani 1 1 d . U
H25A H 1.6705 0.5366 -0.0834 0.206 Uiso 1 1 calc GR .
H25B H 1.5970 0.4748 0.0312 0.206 Uiso 1 1 calc GR .
H25C H 1.7306 0.4568 0.0226 0.206 Uiso 1 1 calc GR .
loop_
_atom_site_aniso_label
_atom_site_aniso_U_11
_atom_site_aniso_U_22
_atom_site_aniso_U_33
_atom_site_aniso_U_23
_atom_site_aniso_U_13
_atom_site_aniso_U_12
Zn1 0.0091(4) 0.0288(4) 0.0105(4) -0.0123(3) -0.0006(3) 0.0027(3)
Zn2 0.0105(4) 0.0171(4) 0.0136(4) -0.0076(3) -0.0053(3) 0.0028(3)
O1 0.012(2) 0.038(3) 0.013(2) -0.008(2) 0.0005(17) -0.0061(18)
O2 0.012(2) 0.037(3) 0.050(4) -0.004(3) -0.004(2) 0.007(2)
O3 0.024(2) 0.039(3) 0.009(2) -0.008(2) 0.0002(18) -0.0013(19)
O4 0.018(2) 0.026(2) 0.016(2) -0.0030(19) 0.0071(18) -0.0049(18)
O5 0.0194(12) 0.0221(12) 0.0154(12) -0.0094(9) -0.0021(9) 0.0021(9)
O6 0.015(2) 0.021(2) 0.014(2) -0.0062(18) -0.0012(17) 0.0034(16)
O7 0.025(2) 0.040(3) 0.013(2) -0.018(2) 0.0055(18) -0.002(2)
O8 0.066(4) 0.057(3) 0.018(3) -0.023(3) -0.012(3) 0.026(3)
O9 0.036(3) 0.037(3) 0.028(3) -0.022(2) -0.011(2) 0.022(2)
O10 0.027(2) 0.026(2) 0.029(3) -0.010(2) -0.013(2) 0.0171(19)
O11 0.047(3) 0.047(3) 0.052(4) -0.001(3) -0.034(3) -0.023(3)
C1 0.011(3) 0.035(4) 0.030(4) -0.018(3) -0.004(3) 0.000(3)
C2 0.011(3) 0.019(3) 0.019(3) -0.012(2) 0.002(2) 0.002(2)
C3 0.018(3) 0.024(3) 0.011(3) -0.010(3) 0.003(2) 0.003(2)
C4 0.013(3) 0.026(3) 0.015(3) -0.010(3) -0.005(2) 0.008(2)
C5 0.0104(13) 0.0104(13) 0.0093(13) -0.0054(9) -0.0005(9) 0.0004(9)
C6 0.012(3) 0.019(3) 0.015(3) -0.010(2) 0.000(2) 0.004(2)
C7 0.013(3) 0.021(3) 0.015(3) -0.003(2) -0.001(2) 0.003(2)
C8 0.011(3) 0.019(3) 0.024(3) -0.010(3) -0.005(2) 0.012(2)
C9 0.017(3) 0.015(3) 0.013(3) -0.009(2) -0.004(2) 0.007(2)
C10 0.016(3) 0.018(3) 0.014(3) -0.009(2) -0.005(2) 0.007(2)
C11 0.014(3) 0.018(3) 0.008(3) -0.007(2) 0.000(2) 0.004(2)
C12 0.015(3) 0.024(3) 0.020(3) -0.018(3) -0.005(2) 0.007(2)
C13 0.016(3) 0.014(3) 0.009(3) -0.003(2) -0.003(2) 0.007(2)
C14 0.016(3) 0.020(3) 0.012(3) -0.010(2) -0.002(2) 0.009(2)
C15 0.014(3) 0.025(3) 0.010(3) -0.014(2) -0.001(2) 0.004(2)
C16 0.015(3) 0.020(3) 0.007(3) -0.003(2) -0.003(2) 0.002(2)
C17 0.018(3) 0.031(3) 0.011(3) -0.012(3) -0.006(2) 0.008(2)
C18 0.0167(14) 0.0171(14) 0.0158(15) -0.0083(10) -0.0002(9) 0.0006(9)
C19 0.0233(16) 0.0226(16) 0.0207(16) -0.0107(10) -0.0017(9) -0.0005(9)
C20 0.041(4) 0.030(3) 0.009(3) -0.008(3) -0.005(3) 0.014(3)
C21 0.027(3) 0.031(3) 0.007(3) -0.008(3) -0.007(2) 0.012(3)
C22 0.037(4) 0.021(3) 0.007(3) -0.003(2) -0.002(3) 0.008(3)
C23 0.031(3) 0.027(3) 0.005(3) -0.006(3) 0.003(3) -0.005(3)
N1 0.135(9) 0.148(8) 0.169(9) -0.081(7) -0.033(7) 0.001(7)
C24 0.26(2) 0.224(17) 0.198(13) -0.104(11) -0.088(12) 0.012(14)
C25 0.125(12) 0.139(10) 0.167(13) -0.083(10) -0.039(11) 0.010(9)
loop_
_atom_type_symbol
_atom_type_description
_atom_type_scat_dispersion_real
_atom_type_scat_dispersion_imag
_atom_type_scat_source
C C 0.0033 0.0016 'International Tables Vol C Tables 4.2.6.8 and 6.1.1.4'
H H 0.0000 0.0000 'International Tables Vol C Tables 4.2.6.8 and 6.1.1.4'
N N 0.0061 0.0033 'International Tables Vol C Tables 4.2.6.8 and 6.1.1.4'
O O 0.0106 0.0060 'International Tables Vol C Tables 4.2.6.8 and 6.1.1.4'
Zn Zn 0.2839 1.4301 'International Tables Vol C Tables 4.2.6.8 and 6.1.1.4'
loop_
_geom_angle_atom_site_label_1
_geom_angle_atom_site_label_2
_geom_angle_atom_site_label_3
_geom_angle
_geom_angle_site_symmetry_1
_geom_angle_site_symmetry_3
O1 Zn1 O6 99.92(18) . 2_775
O1 Zn1 O7 107.08(19) . 1_654
O1 Zn1 C23 104.6(2) . 1_654
O5 Zn1 O1 123.52(18) 1_655 .
O5 Zn1 O6 100.06(17) 1_655 2_775
O5 Zn1 O7 121.22(18) 1_655 1_654
O5 Zn1 C23 104.6(2) 1_655 1_654
O6 Zn1 C23 126.35(19) 2_775 1_654
O7 Zn1 O6 98.49(18) 1_654 2_775
O7 Zn1 C23 28.66(19) 1_654 1_654
Zn2 Zn2 H11A 153.6 2_766 .
Zn2 Zn2 H11B 155.3 2_766 .
O3 Zn2 Zn2 77.83(14) . 2_766
O3 Zn2 H11A 75.8 . .
O3 Zn2 H11B 111.3 . .
O4 Zn2 Zn2 80.03(14) 2_766 2_766
O4 Zn2 O3 157.9(2) 2_766 .
O4 Zn2 O10 89.29(19) 2_766 .
O4 Zn2 H11A 126.3 2_766 .
O4 Zn2 H11B 88.8 2_766 .
O9 Zn2 Zn2 78.12(16) 2_766 2_766
O9 Zn2 O3 87.8(2) 2_766 .
O9 Zn2 O4 86.8(2) 2_766 2_766
O9 Zn2 O10 158.3(2) 2_766 .
O9 Zn2 H11A 101.7 2_766 .
O9 Zn2 H11B 79.4 2_766 .
O10 Zn2 Zn2 80.19(15) . 2_766
O10 Zn2 O3 87.8(2) . .
O10 Zn2 H11A 97.8 . .
O10 Zn2 H11B 121.9 . .
O11 Zn2 Zn2 177.9(2) . 2_766
O11 Zn2 O3 100.3(2) . .
O11 Zn2 O4 101.9(2) . 2_766
O11 Zn2 O9 101.0(3) . 2_766
O11 Zn2 O10 100.6(2) . .
O11 Zn2 H11A 24.5 . .
O11 Zn2 H11B 24.8 . .
H11A Zn2 H11B 43.1 . .
C1 O1 Zn1 125.3(4) . .
C8 O3 Zn2 128.5(4) . .
C8 O4 Zn2 126.2(4) . 2_766
C15 O5 Zn1 120.1(4) . 1_455
C15 O6 Zn1 125.3(4) . 2_775
C23 O7 Zn1 100.9(4) . 1_456
C22 O9 Zn2 129.5(4) . 2_766
C22 O10 Zn2 125.8(4) . .
Zn2 O11 H11A 87.6 . .
Zn2 O11 H11B 84.3 . .
H11A O11 H11B 122.8 . .
O1 C1 O2 127.3(6) . .
O1 C1 C2 115.6(5) . .
O2 C1 C2 117.0(6) . .
C3 C2 C1 117.0(5) . .
C7 C2 C1 121.6(5) . .
C7 C2 C3 121.2(5) . .
C2 C3 H3 121.8 . .
C4 C3 C2 116.5(5) . .
C4 C3 H3 121.8 . .
C3 C4 H4 118.7 . .
C5 C4 C3 122.6(5) . .
C5 C4 H4 118.7 . .
C4 C5 C6 118.9(5) . .
C4 C5 C9 119.9(5) . .
C6 C5 C9 121.2(5) . .
C5 C6 C8 122.4(5) . .
C7 C6 C5 119.1(5) . .
C7 C6 C8 118.5(5) . .
C2 C7 C6 121.5(5) . .
C2 C7 H7 119.2 . .
C6 C7 H7 119.2 . .
O3 C8 C6 116.2(6) . .
O4 C8 O3 126.8(6) . .
O4 C8 C6 116.9(6) . .
C10 C9 C5 119.4(5) . .
C14 C9 C5 120.9(5) . .
C14 C9 C10 119.5(5) . .
C9 C10 H10 120.7 . .
C11 C10 C9 118.6(5) . .
C11 C10 H10 120.7 . .
C10 C11 C12 121.3(5) . .
C10 C11 C15 120.6(5) . .
C12 C11 C15 118.1(5) . .
C11 C12 H12 119.7 . .
C11 C12 C13 120.7(5) . .
C13 C12 H12 119.7 . .
C12 C13 C14 117.4(5) . .
C12 C13 C16 120.7(5) . .
C14 C13 C16 121.8(5) . .
C9 C14 C13 122.4(5) . .
C9 C14 H14 118.8 . .
C13 C14 H14 118.8 . .
O5 C15 C11 115.1(5) . .
O6 C15 O5 122.5(5) . .
O6 C15 C11 122.4(5) . .
C17 C16 C13 119.3(5) . .
C17 C16 C21 119.5(5) . .
C21 C16 C13 121.2(5) . .
C16 C17 H17 119.7 . .
C16 C17 C18 120.5(5) . .
C18 C17 H17 119.7 . .
C17 C18 H18 119.8 . .
C19 C18 C17 120.3(5) . .
C19 C18 H18 119.8 . .
C18 C19 C20 119.0(6) . .
C18 C19 C23 120.9(5) . .
C20 C19 C23 119.9(6) . .
C19 C20 H20 119.6 . .
C21 C20 C19 120.8(6) . .
C21 C20 H20 119.6 . .
C16 C21 C22 123.0(5) . .
C20 C21 C16 119.7(6) . .
C20 C21 C22 117.1(5) . .
O9 C22 O10 126.3(6) . .
O9 C22 C21 117.6(6) . .
O10 C22 C21 116.0(6) . .
O7 C23 Zn1 50.4(3) . 1_456
O7 C23 C19 117.4(5) . .
O8 C23 Zn1 74.4(4) . 1_456
O8 C23 O7 124.7(6) . .
O8 C23 C19 117.8(6) . .
C19 C23 Zn1 165.9(5) . 1_456
H1A N1 H1B 108.9 . .
C24 N1 H1A 110.8 . .
C24 N1 H1B 110.9 . .
C24 N1 C25 104.5(19) . .
C25 N1 H1A 110.9 . .
C25 N1 H1B 110.9 . .
N1 C24 H24A 109.5 . .
N1 C24 H24B 109.5 . .
N1 C24 H24C 109.5 . .
H24A C24 H24B 109.5 . .
H24A C24 H24C 109.5 . .
H24B C24 H24C 109.5 . .
N1 C25 H25A 109.5 . .
N1 C25 H25B 109.5 . .
N1 C25 H25C 109.5 . .
H25A C25 H25B 109.5 . .
H25A C25 H25C 109.5 . .
H25B C25 H25C 109.5 . .
loop_
_geom_bond_atom_site_label_1
_geom_bond_atom_site_label_2
_geom_bond_distance
_geom_bond_site_symmetry_2
Zn1 O1 1.934(4) .
Zn1 O5 1.927(4) 1_655
Zn1 O6 2.038(4) 2_775
Zn1 O7 1.982(4) 1_654
Zn1 C23 2.524(6) 1_654
Zn2 Zn2 3.0032(15) 2_766
Zn2 O3 2.042(4) .
Zn2 O4 2.037(4) 2_766
Zn2 O9 2.035(5) 2_766
Zn2 O10 2.041(4) .
Zn2 O11 1.958(5) .
Zn2 H11A 2.1126 .
Zn2 H11B 2.0626 .
O1 C1 1.234(8) .
O2 C1 1.252(8) .
O3 C8 1.249(8) .
O4 Zn2 2.037(4) 2_766
O4 C8 1.234(8) .
O5 Zn1 1.927(4) 1_455
O5 C15 1.302(7) .
O6 Zn1 2.038(4) 2_775
O6 C15 1.239(7) .
O7 Zn1 1.982(4) 1_456
O7 C23 1.233(8) .
O8 C23 1.227(8) .
O9 Zn2 2.035(5) 2_766
O9 C22 1.240(9) .
O10 C22 1.266(8) .
O11 H11A 0.8775 .
O11 H11B 0.8686 .
C1 C2 1.518(8) .
C2 C3 1.417(8) .
C2 C7 1.363(8) .
C3 H3 0.9500 .
C3 C4 1.408(8) .
C4 H4 0.9500 .
C4 C5 1.379(8) .
C5 C6 1.410(7) .
C5 C9 1.501(7) .
C6 C7 1.387(8) .
C6 C8 1.502(9) .
C7 H7 0.9500 .
C9 C10 1.396(8) .
C9 C14 1.371(8) .
C10 H10 0.9500 .
C10 C11 1.379(8) .
C11 C12 1.379(8) .
C11 C15 1.488(8) .
C12 H12 0.9500 .
C12 C13 1.388(8) .
C13 C14 1.389(8) .
C13 C16 1.475(8) .
C14 H14 0.9500 .
C16 C17 1.368(8) .
C16 C21 1.411(8) .
C17 H17 0.9500 .
C17 C18 1.404(8) .
C18 H18 0.9500 .
C18 C19 1.386(9) .
C19 C20 1.392(9) .
C19 C23 1.520(9) .
C20 H20 0.9500 .
C20 C21 1.384(9) .
C21 C22 1.474(9) .
C23 Zn1 2.524(6) 1_456
N1 H1A 0.9100 .
N1 H1B 0.9100 .
N1 C24 1.47(3) .
N1 C25 1.49(2) .
C24 H24A 0.9800 .
C24 H24B 0.9800 .
C24 H24C 0.9800 .
C25 H25A 0.9800 .
C25 H25B 0.9800 .
C25 H25C 0.9800 .
loop_
_geom_torsion_atom_site_label_1
_geom_torsion_atom_site_label_2
_geom_torsion_atom_site_label_3
_geom_torsion_atom_site_label_4
_geom_torsion
_geom_torsion_site_symmetry_1
_geom_torsion_site_symmetry_4
Zn1 O1 C1 O2 -31.3(10) . .
Zn1 O1 C1 C2 146.3(4) . .
Zn1 O5 C15 O6 9.6(8) 1_455 .
Zn1 O5 C15 C11 -171.7(4) 1_455 .
Zn1 O6 C15 O5 -106.1(6) 2_775 .
Zn1 O6 C15 C11 75.3(7) 2_775 .
Zn1 O7 C23 O8 -4.4(8) 1_456 .
Zn1 O7 C23 C19 171.6(5) 1_456 .
Zn2 O3 C8 O4 -10.8(9) . .
Zn2 O3 C8 C6 172.0(4) . .
Zn2 O4 C8 O3 9.1(9) 2_766 .
Zn2 O4 C8 C6 -173.7(3) 2_766 .
Zn2 O9 C22 O10 -3.7(10) 2_766 .
Zn2 O9 C22 C21 177.0(4) 2_766 .
Zn2 O10 C22 O9 3.8(10) . .
Zn2 O10 C22 C21 -176.9(4) . .
O1 C1 C2 C3 10.3(8) . .
O1 C1 C2 C7 -164.0(6) . .
O2 C1 C2 C3 -171.9(6) . .
O2 C1 C2 C7 13.8(9) . .
C1 C2 C3 C4 -174.9(5) . .
C1 C2 C7 C6 172.2(6) . .
C2 C3 C4 C5 5.1(9) . .
C3 C2 C7 C6 -1.9(9) . .
C3 C4 C5 C6 -7.0(9) . .
C3 C4 C5 C9 170.1(5) . .
C4 C5 C6 C7 4.3(8) . .
C4 C5 C6 C8 -175.7(5) . .
C4 C5 C9 C10 44.3(8) . .
C4 C5 C9 C14 -130.5(6) . .
C5 C6 C7 C2 0.0(9) . .
C5 C6 C8 O3 -129.0(6) . .
C5 C6 C8 O4 53.5(8) . .
C5 C9 C10 C11 -175.6(5) . .
C5 C9 C14 C13 177.7(5) . .
C6 C5 C9 C10 -138.7(6) . .
C6 C5 C9 C14 46.5(8) . .
C7 C2 C3 C4 -0.6(9) . .
C7 C6 C8 O3 51.0(8) . .
C7 C6 C8 O4 -126.5(6) . .
C8 C6 C7 C2 -179.9(6) . .
C9 C5 C6 C7 -172.7(5) . .
C9 C5 C6 C8 7.2(8) . .
C9 C10 C11 C12 -1.1(9) . .
C9 C10 C11 C15 179.3(5) . .
C10 C9 C14 C13 2.9(9) . .
C10 C11 C12 C13 0.8(9) . .
C10 C11 C15 O5 1.5(8) . .
C10 C11 C15 O6 -179.9(6) . .
C11 C12 C13 C14 1.3(9) . .
C11 C12 C13 C16 178.0(5) . .
C12 C11 C15 O5 -178.1(5) . .
C12 C11 C15 O6 0.5(9) . .
C12 C13 C14 C9 -3.2(9) . .
C12 C13 C16 C17 -41.4(9) . .
C12 C13 C16 C21 136.5(6) . .
C13 C16 C17 C18 176.1(6) . .
C13 C16 C21 C20 -177.4(6) . .
C13 C16 C21 C22 -2.5(10) . .
C14 C9 C10 C11 -0.7(9) . .
C14 C13 C16 C17 135.2(6) . .
C14 C13 C16 C21 -46.9(9) . .
C15 C11 C12 C13 -179.5(6) . .
C16 C13 C14 C9 -179.9(5) . .
C16 C17 C18 C19 0.6(10) . .
C16 C21 C22 O9 -55.6(9) . .
C16 C21 C22 O10 125.0(7) . .
C17 C16 C21 C20 0.5(10) . .
C17 C16 C21 C22 175.4(6) . .
C17 C18 C19 C20 2.0(10) . .
C17 C18 C19 C23 -174.6(6) . .
C18 C19 C20 C21 -3.4(11) . .
C18 C19 C23 Zn1 15(2) . 1_456
C18 C19 C23 O7 -12.5(9) . .
C18 C19 C23 O8 163.8(7) . .
C19 C20 C21 C16 2.1(11) . .
C19 C20 C21 C22 -173.0(7) . .
C20 C19 C23 Zn1 -161.4(16) . 1_456
C20 C19 C23 O7 171.0(6) . .
C20 C19 C23 O8 -12.7(10) . .
C20 C21 C22 O9 119.4(7) . .
C20 C21 C22 O10 -60.0(9) . .
C21 C16 C17 C18 -1.8(9) . .
C23 C19 C20 C21 173.3(7) . .
loop_
_platon_squeeze_void_nr
_platon_squeeze_void_average_x
_platon_squeeze_void_average_y
_platon_squeeze_void_average_z
_platon_squeeze_void_volume
_platon_squeeze_void_count_electrons
_platon_squeeze_void_content
1 0.027 0.031 0.442 840 233 ' '
loop_
_refln_index_h
_refln_index_k
_refln_index_l
_refln_F_squared_meas
_refln_F_squared_sigma
-1 0 0 0.05 0.04
-2 0 0 93.71 5.06
-3 0 0 0.29 0.11
3 0 0 0.68 0.11
3 0 0 0.44 0.12
-4 0 0 25.04 1.51
4 0 0 27.56 1.41
4 0 0 27.73 1.17
-5 0 0 15.39 0.93
5 0 0 15.17 0.88
-6 0 0 11.58 0.82
6 0 0 14.66 0.69
6 0 0 13.75 0.81
7 0 0 21.79 1.04
7 0 0 21.4 1.24
-8 0 0 9.41 0.71
8 0 0 10.54 0.73
8 0 0 9.79 0.6
9 0 0 41.24 1.91
9 0 0 42.23 2.29
10 0 0 0.01 0.24
10 0 0 0.2 0.28
11 0 0 37.86 2.26
11 0 0 41.46 1.9
12 0 0 0.25 0.34
12 0 0 0.08 0.3
13 0 0 14.91 1.18
13 0 0 14.98 1.02
14 0 0 10 0.89
15 -1 0 1.64 0.54
14 -1 0 5.41 0.7
13 -1 0 0.11 0.38
12 -1 0 22 1.27
11 -1 0 -0.16 0.29
11 -1 0 0.01 0.27
10 -1 0 31.07 1.51
10 -1 0 29.47 1.75
9 -1 0 14.87 0.99
9 -1 0 14.97 0.86
8 -1 0 15.36 0.85
8 -1 0 15.78 0.98
7 -1 0 56.49 2.91
7 -1 0 55.02 2.45
-7 1 0 56.75 3.13
6 -1 0 5.52 0.44
6 -1 0 5.41 0.4
-6 1 0 5.65 0.42
5 -1 0 0.66 0.15
5 -1 0 0.81 0.17
-5 1 0 0.65 0.15
4 -1 0 37.67 1.94
-4 1 0 37.62 2.11
3 -1 0 42.88 1.87
3 -1 0 44.21 2.23
-3 1 0 45.51 2.44
-1 1 0 159.75 8.6
0 1 0 0 0.01
1 1 0 496.96 26.84
-2 -1 0 20.87 1.15
2 1 0 20.72 1.07
2 1 0 19.45 1.14
3 1 0 8.66 0.53
-4 -1 0 3.24 0.3
4 1 0 3.01 0.22
4 1 0 2.72 0.29
-5 -1 0 33.03 1.73
5 1 0 28.56 1.32
5 1 0 29.05 1.62
-6 -1 0 65.78 3.32
6 1 0 55.04 2.51
6 1 0 57.24 3.06
-7 -1 0 8.55 0.63
7 1 0 7.82 0.49
7 1 0 8.86 0.64
-8 -1 0 1.55 0.29
8 1 0 0.92 0.29
8 1 0 1.27 0.24
9 1 0 11.49 0.68
9 1 0 10.95 0.84
10 1 0 32.58 1.92
10 1 0 33.58 1.58
11 1 0 0.97 0.38
11 1 0 1.65 0.34
12 1 0 16.95 1.02
12 1 0 17.37 1.24
13 1 0 0.99 0.46
13 1 0 1.41 0.4
14 1 0 6.94 0.87
15 -2 0 -0.08 0.46
14 -2 0 2.27 0.54
13 -2 0 4.92 0.64
12 -2 0 2.98 0.52
11 -2 0 29.23 1.54
10 -2 0 1.15 0.34
10 -2 0 1.52 0.35
9 -2 0 5.25 0.52
9 -2 0 5.29 0.55
8 -2 0 169.07 7.11
8 -2 0 172.65 8.52
7 -2 0 0.93 0.23
7 -2 0 0.96 0.24
-7 2 0 1 0.2
6 -2 0 78.61 3.41
6 -2 0 79.28 4.06
-6 2 0 83.35 4.42
5 -2 0 0 0.12
5 -2 0 0.23 0.12
-5 2 0 0.23 0.13
4 -2 0 20.5 1.11
-4 2 0 21.39 1.21
3 -2 0 58.16 2.96
-3 2 0 60.52 3.27
2 -2 0 3.79 0.24
-2 2 0 3.45 0.29
1 -2 0 108.76 4.47
-1 2 0 110.15 5.94
1 2 0 243.16 13.11
2 2 0 146.61 7.94
3 2 0 0.95 0.15
3 2 0 0.17 0.08
-4 -2 0 26.52 1.67
4 2 0 30.47 1.57
4 2 0 30.23 1.24
-5 -2 0 103.55 5.74
5 2 0 105.49 4.3
5 2 0 104.45 5.26
-6 -2 0 39.09 2.11
6 2 0 33.17 1.95
-7 -2 0 14.28 0.9
7 2 0 13.58 0.89
7 2 0 12.84 0.68
8 2 0 83.47 3.48
8 2 0 81.57 4.27
9 2 0 2.55 0.41
9 2 0 2.39 0.31
10 2 0 10.96 0.9
10 2 0 12.07 0.72
11 2 0 10.72 0.73
11 2 0 11.19 0.93
12 2 0 1.49 0.46
13 2 0 15.73 1.24
14 2 0 6.81 0.89
15 2 0 1.33 0.6
15 -3 0 0.55 0.51
14 -3 0 1.63 0.54
13 -3 0 3.53 0.6
12 -3 0 12.12 0.93
11 -3 0 0.93 0.38
10 -3 0 23.67 1.31
9 -3 0 72.55 3.78
9 -3 0 73.5 3.23
8 -3 0 1.61 0.32
8 -3 0 1.47 0.3
7 -3 0 176.95 8.82
7 -3 0 178.2 7.38
-7 3 0 178.04 9.67
6 -3 0 2.99 0.31
6 -3 0 2.49 0.3
-6 3 0 2.89 0.32
5 -3 0 40.78 2.11
-5 3 0 41.53 2.33
4 -3 0 9.31 0.56
4 -3 0 9.16 0.52
-4 3 0 9.73 0.63
3 -3 0 5.21 0.34
3 -3 0 5.32 0.34
-3 3 0 5.2 0.4
2 -3 0 97.27 4.08
-2 3 0 100.78 5.42
1 -3 0 11.54 0.55
-1 3 0 11.99 0.74
0 3 0 127.57 6.94
1 3 0 221.93 9.88
1 3 0 179.74 10.87
2 3 0 1000 53.9
2 3 0 995.3 48.98
3 3 0 93.99 5.16
-5 -3 0 0.36 0.19
5 3 0 0.32 0.1
5 3 0 0.47 0.19
6 3 0 63.49 3.37
6 3 0 66.17 2.71
-7 -3 0 8.74 0.71
7 3 0 9.92 0.71
-8 -3 0 2.14 0.37
8 3 0 1.25 0.32
8 3 0 1.37 0.21
9 3 0 46.37 2.59
9 3 0 47.87 2.07
10 3 0 7.59 0.74
11 3 0 16.13 1.19
12 3 0 7.84 0.86
13 3 0 0.53 0.44
14 3 0 0.38 0.49
15 3 0 13.77 1.31
16 3 0 0.22 0.58
15 -4 0 2.58 0.67
14 -4 0 3.29 0.68
13 -4 0 1.53 0.54
12 -4 0 4.78 0.65
11 -4 0 5.12 0.62
10 -4 0 1.09 0.38
9 -4 0 9.11 0.71
8 -4 0 10.87 0.72
7 -4 0 0.79 0.22
-7 4 0 0.58 0.21
6 -4 0 83.98 3.73
6 -4 0 90.55 4.39
5 -4 0 23.26 1.29
5 -4 0 25.68 1.18
4 -4 0 4 0.31
4 -4 0 4.09 0.35
3 -4 0 107.77 4.53
3 -4 0 110.42 5.39
2 -4 0 0.13 0.11
-2 4 0 -0.03 0.13
1 -4 0 3.96 0.26
-1 4 0 3.15 0.35
0 4 0 38.76 2.22
1 4 0 0.28 0.12
2 4 0 10.12 0.69
2 4 0 13.1 0.8
3 4 0 39.04 2.06
4 4 0 3.06 0.35
4 4 0 3.31 0.36
5 4 0 59.32 3.35
-6 -4 0 3.12 0.39
6 4 0 0.41 0.19
7 4 0 25.58 1.49
7 4 0 24.73 1.11
-8 -4 0 34.56 2.13
8 4 0 34.26 1.96
-9 -4 0 0.56 0.34
9 4 0 0.24 0.28
10 4 0 41.25 2.36
11 4 0 0.07 0.33
12 4 0 8.26 0.9
13 4 0 0.99 0.52
14 4 0 1.15 0.57
15 4 0 0.7 0.59
14 -5 0 2.52 0.65
13 -5 0 21.77 1.41
12 -5 0 -0.12 0.4
11 -5 0 8.47 0.81
10 -5 0 1.8 0.41
9 -5 0 0.83 0.33
8 -5 0 9.93 0.72
-7 5 0 43.88 2.56
6 -5 0 0.57 0.24
6 -5 0 0.68 0.2
-6 5 0 0.42 0.23
5 -5 0 57.11 2.46
5 -5 0 55.23 2.82
-5 5 0 55.06 3.17
4 -5 0 78.78 3.9
4 -5 0 78.14 3.32
-4 5 0 77.19 4.36
3 -5 0 18.3 0.89
3 -5 0 17.59 0.96
-3 5 0 17.92 1.15
2 -5 0 216.33 9
-2 5 0 224.43 12
1 -5 0 4.97 0.33
-1 5 0 5.07 0.47
0 -5 0 23.64 1.04
0 5 0 24.16 1.46
2 5 0 3.5 0.32
3 5 0 1.58 0.26
3 5 0 1.55 0.29
4 5 0 58.62 3.32
4 5 0 57.86 3.04
5 5 0 14.86 0.94
5 5 0 14.14 0.99
6 5 0 13.85 0.93
6 5 0 13.59 0.96
-8 -5 0 0.89 0.39
-9 -5 0 34.23 2.07
9 5 0 29.05 1.87
10 5 0 0.32 0.34
11 5 0 14.03 1.13
12 5 0 12.86 1.15
13 5 0 0.99 0.52
14 5 0 11.51 1.18
15 5 0 2.1 0.68
14 -6 0 8.03 0.96
13 -6 0 -0.32 0.48
11 -6 0 13.76 1.05
10 -6 0 1.32 0.42
9 -6 0 41.91 2.06
8 -6 0 31.94 1.62
7 -6 0 0.79 0.31
6 -6 0 31.71 1.52
-6 6 0 30.32 1.89
5 -6 0 7.01 0.55
-5 6 0 6.38 0.62
4 -6 0 46.46 2.33
4 -6 0 47.32 2.04
-4 6 0 42.92 2.65
3 -6 0 85.52 3.45
3 -6 0 78.6 4.05
-3 6 0 79.6 4.56
2 -6 0 4.24 0.35
-2 6 0 4.89 0.49
1 -6 0 126.58 5.17
-1 6 0 124.17 6.93
0 -6 0 0.46 0.13
0 6 0 0.36 0.21
-1 -6 0 15.84 0.64
1 6 0 14 0.82
1 6 0 10.61 0.91
2 6 0 69.34 3.85
2 6 0 66.05 3.46
3 6 0 32.73 1.82
3 6 0 34.08 2.02
4 6 0 7.63 0.66
4 6 0 6.96 0.6
5 6 0 21.45 1.42
5 6 0 21.92 1.33
6 6 0 4.12 0.51
6 6 0 4.25 0.53
-7 -6 0 0.54 0.37
7 6 0 0.23 0.27
7 6 0 -0.02 0.14
8 6 0 11.53 0.87
-9 -6 0 8.73 1.01
9 6 0 10.52 0.87
10 6 0 23.31 1.54
11 6 0 2.02 0.52
12 6 0 5.51 0.79
13 6 0 18.56 1.47
14 6 0 0.16 0.55
15 6 0 13.18 1.38
13 -7 0 9.51 1.01
12 -7 0 2.87 0.62
11 -7 0 1.41 0.49
10 -7 0 35.09 1.85
9 -7 0 2.17 0.47
8 -7 0 15.26 0.99
7 -7 0 0.37 0.3
6 -7 0 0.99 0.31
-6 7 0 1.13 0.34
5 -7 0 2.21 0.36
-5 7 0 2.31 0.42
4 -7 0 23.5 1.15
-4 7 0 22.37 1.49
3 -7 0 0.47 0.16
3 -7 0 -0.01 0.18
-3 7 0 0.37 0.26
2 -7 0 41.18 1.77
-2 7 0 37.9 2.37
1 -7 0 2.37 0.26
-1 7 0 2.49 0.4
0 -7 0 2.2 0.22
0 7 0 2.29 0.4
-1 -7 0 38.28 1.61
1 7 0 37.2 2.28
2 7 0 17.89 1.35
2 7 0 24.02 1.24
3 7 0 31.49 2.01
3 7 0 33.6 1.82
4 7 0 0.72 0.25
4 7 0 0.61 0.29
5 7 0 26.36 1.7
5 7 0 25.82 1.55
6 7 0 3.69 0.52
6 7 0 3.68 0.53
7 7 0 0.48 0.32
7 7 0 -0.16 0.28
-8 -7 0 7.11 0.86
8 7 0 7.44 0.77
-9 -7 0 16.19 1.4
9 7 0 18.59 1.26
10 7 0 1.06 0.41
11 7 0 6.1 0.81
12 7 0 9.09 1.02
13 7 0 0.19 0.53
14 7 0 23.55 1.78
15 7 0 -0.05 0.59
12 -8 0 12.2 1.12
11 -8 0 16.95 1.23
10 -8 0 0.57 0.45
9 -8 0 51.01 2.49
8 -8 0 0.4 0.38
7 -8 0 24.51 1.35
6 -8 0 0.31 0.29
-6 8 0 0.33 0.32
5 -8 0 0.29 0.27
-5 8 0 -0.07 0.29
4 -8 0 6.07 0.51
-4 8 0 6.22 0.67
3 -8 0 28.66 1.4
-3 8 0 30.01 1.88
2 -8 0 4.17 0.38
-2 8 0 4.37 0.57
1 -8 0 7.03 0.48
-1 8 0 7.78 0.72
0 -8 0 7.31 0.45
0 8 0 7.16 0.71
1 8 0 1.28 0.37
3 8 0 2.86 0.49
3 8 0 3.51 0.44
4 8 0 74.95 4.43
4 8 0 79.35 4.05
5 8 0 1.66 0.37
5 8 0 1.71 0.43
6 8 0 1.54 0.41
6 8 0 1.39 0.37
7 8 0 15.21 1.21
7 8 0 16.18 1.15
-8 -8 0 0.36 0.48
8 8 0 2.08 0.48
8 8 0 1.63 0.46
-9 -8 0 -0.15 0.5
9 8 0 0.28 0.36
10 8 0 1.15 0.45
11 8 0 1.25 0.5
12 8 0 0.89 0.51
13 8 0 13.12 1.29
14 8 0 0.24 0.59
12 -9 0 0.03 0.58
11 -9 0 0.69 0.55
10 -9 0 21.98 1.46
9 -9 0 0.24 0.43
8 -9 0 35.38 1.87
7 -9 0 1.28 0.41
6 -9 0 7.1 0.68
-6 9 0 7.76 0.81
5 -9 0 7.5 0.63
-5 9 0 6.74 0.78
4 -9 0 0.32 0.27
-4 9 0 0.55 0.34
3 -9 0 7.96 0.61
-3 9 0 8.96 0.82
2 -9 0 13.87 0.78
-2 9 0 13.76 1.09
1 -9 0 0.62 0.21
-1 9 0 0.79 0.36
0 9 0 1.7 0.44
1 9 0 6.06 0.69
2 9 0 -0.02 0.11
3 9 0 108.76 6.88
3 9 0 136.54 6.27
4 9 0 0.39 0.33
4 9 0 0.7 0.3
5 9 0 16.13 1.13
5 9 0 15.11 1.22
6 9 0 16.25 1.31
6 9 0 17.24 1.21
7 9 0 1.57 0.49
7 9 0 1.59 0.43
8 9 0 7.85 0.89
8 9 0 5.81 0.74
-9 -9 0 2.63 0.72
9 9 0 2.13 0.53
-10 -9 0 6.53 0.99
10 9 0 4.64 0.74
11 9 0 0.25 0.45
12 9 0 0.83 0.53
13 9 0 3.5 0.78
14 9 0 7 1.03
11 -10 0 1.3 0.64
10 -10 0 0.69 0.53
9 -10 0 3.8 0.66
8 -10 0 0.46 0.47
7 -10 0 7.72 0.77
6 -10 0 15.36 1.04
5 -10 0 0.53 0.35
-5 10 0 0.47 0.41
4 -10 0 50.29 2.32
-4 10 0 50.29 3.1
3 -10 0 0.02 0.26
-3 10 0 0.05 0.37
2 -10 0 1.87 0.37
-2 10 0 2.31 0.52
-1 10 0 0.41 0.36
0 10 0 1.55 0.47
1 10 0 13.6 1.13
2 10 0 12.04 1.04
3 10 0 0.73 0.38
4 10 0 34.75 1.99
4 10 0 32.17 2.18
5 10 0 10.2 0.89
5 10 0 10.85 1.06
6 10 0 0.25 0.35
6 10 0 -0.29 0.36
7 10 0 18.61 1.41
7 10 0 20.58 1.55
8 10 0 0.25 0.45
8 10 0 0.57 0.42
-9 -10 0 13.8 1.39
9 10 0 13.1 1.18
-10 -10 0 0.22 0.65
10 10 0 1.43 0.53
11 10 0 0.89 0.55
12 10 0 5.79 0.9
13 10 0 2.64 0.73
10 -11 0 4.13 0.74
9 -11 0 -0.41 0.47
8 -11 0 4.14 0.68
7 -11 0 3.46 0.6
6 -11 0 0.46 0.42
5 -11 0 62.2 2.78
-5 11 0 57.77 3.66
4 -11 0 2.55 0.45
-4 11 0 1.56 0.54
-3 11 0 36.65 2.43
-2 11 0 0.23 0.42
-1 11 0 1.94 0.53
0 11 0 0.07 0.4
1 11 0 7.11 0.89
2 11 0 54.92 3.39
3 11 0 8.42 0.94
4 11 0 2.1 0.55
5 11 0 0.26 0.36
5 11 0 0.31 0.47
6 11 0 18.67 1.38
6 11 0 20.47 1.6
7 11 0 0.51 0.45
7 11 0 0.68 0.49
8 11 0 12.65 1.26
8 11 0 13.83 1.21
-9 -11 0 1.09 0.74
9 11 0 3.1 0.67
-10 -11 0 0.31 0.7
10 11 0 -0.47 0.5
11 11 0 11.54 1.28
12 11 0 2.07 0.73
8 -12 0 -0.5 0.48
7 -12 0 0.03 0.45
6 -12 0 13.51 1.05
-5 12 0 0.93 0.51
-4 12 0 26.95 1.97
-3 12 0 0.23 0.46
-2 12 0 8.17 1.01
-1 12 0 3.34 0.69
0 12 0 8.93 1.06
1 12 0 23.01 1.76
2 12 0 1.54 0.54
3 12 0 18.88 1.51
4 12 0 0.2 0.43
5 12 0 8.75 1.09
6 12 0 0.87 0.56
6 12 0 0.58 0.41
7 12 0 21.76 1.61
7 12 0 22.73 1.81
8 12 0 0.17 0.45
8 12 0 -0.66 0.45
-9 -12 0 3.34 0.94
9 12 0 2.76 0.71
-10 -12 0 0.4 0.77
10 12 0 2.22 0.72
11 12 0 0.05 0.58
-4 13 0 -0.3 0.44
-3 13 0 5.14 0.86
-2 13 0 10.34 1.17
-1 13 0 -0.14 0.46
0 13 0 15.35 1.4
1 13 0 0.89 0.53
2 13 0 0.78 0.52
3 13 0 29.07 2.13
4 13 0 0.54 0.52
5 13 0 1.67 0.64
6 13 0 12.7 1.33
7 13 0 0.3 0.57
8 13 0 4.29 0.78
8 13 0 3.54 0.85
-9 -13 0 0.24 0.81
9 13 0 0.16 0.53
-10 -13 0 1.08 0.84
10 13 0 -0.53 0.53
-4 14 0 6.42 1
-3 14 0 0.04 0.51
-2 14 0 0.38 0.53
-1 14 0 11.8 1.32
0 14 0 0.23 0.51
1 14 0 1.67 0.64
2 14 0 0.37 0.51
3 14 0 2.01 0.67
4 14 0 22.17 1.88
5 14 0 4.94 0.94
6 14 0 1.31 0.69
7 14 0 0.29 0.61
4 14 -1 0.67 0.61
3 14 -1 1.75 0.69
2 14 -1 6.05 0.99
1 14 -1 0.38 0.59
0 14 -1 9.61 1.22
-1 14 -1 0.39 0.56
-2 14 -1 1.84 0.67
-3 14 -1 2.29 0.69
-9 -13 1 1.86 0.97
-8 -13 1 0.12 0.86
7 13 -1 6.56 1.06
6 13 -1 0.35 0.61
5 13 -1 4.97 0.9
4 13 -1 1.81 0.65
3 13 -1 0.46 0.52
2 13 -1 3.57 0.77
1 13 -1 12.3 1.27
0 13 -1 0.29 0.49
-1 13 -1 1.46 0.6
-2 13 -1 1.67 0.61
-3 13 -1 -0.71 0.43
-4 13 -1 12.13 1.29
10 12 -1 0.72 0.6
-10 -12 1 2.1 0.91
9 12 -1 -0.14 0.51
-9 -12 1 0.43 0.8
8 12 -1 5.91 0.86
-8 -12 1 5.3 1.12
7 12 -1 0.35 0.57
6 12 -1 18.6 1.64
5 12 -1 0.03 0.45
4 12 -1 0.11 0.48
3 12 -1 0.05 0.44
2 12 -1 4.51 0.78
1 12 -1 1.51 0.56
0 12 -1 5.15 0.81
-1 12 -1 0.79 0.46
-2 12 -1 0.11 0.43
-3 12 -1 8.4 1.04
-4 12 -1 1.05 0.53
7 -12 1 7.17 0.83
8 -12 1 0.07 0.51
12 11 -1 0.5 0.65
11 11 -1 1.34 0.64
10 11 -1 -0.18 0.53
-10 -11 1 -0.17 0.76
9 11 -1 4.13 0.77
8 11 -1 1.39 0.56
-8 -11 1 1.39 0.78
7 11 -1 18.68 1.48
7 11 -1 20.93 1.64
6 11 -1 1.44 0.51
6 11 -1 2.43 0.64
5 11 -1 7.91 1
4 11 -1 6.08 0.86
3 11 -1 4.48 0.74
2 11 -1 22.2 1.68
1 11 -1 0.52 0.45
0 11 -1 4.03 0.69
-1 11 -1 2.16 0.57
-2 11 -1 2.1 0.56
-3 11 -1 9.93 1.05
-4 11 -1 26.23 1.89
-5 11 -1 -0.1 0.43
5 -11 1 0.05 0.36
6 -11 1 16.7 1.13
7 -11 1 11.1 0.96
8 -11 1 0.77 0.5
9 -11 1 0.46 0.49
12 10 -1 4.37 0.85
11 10 -1 -0.45 0.49
10 10 -1 0.43 0.52
-10 -10 1 -0.48 0.68
9 10 -1 -0.33 0.42
-9 -10 1 -0.22 0.66
8 10 -1 6.52 0.86
-8 -10 1 6.7 1.06
7 10 -1 5.92 0.87
7 10 -1 6.16 0.78
6 10 -1 13.9 1.11
6 10 -1 13.41 1.22
5 10 -1 3.62 0.67
5 10 -1 3.68 0.59
4 10 -1 2.26 0.55
3 10 -1 30.71 2.06
2 10 -1 7.56 0.84
1 10 -1 60.37 3.63
0 10 -1 0.26 0.36
-1 10 -1 8.76 0.93
-2 10 -1 1.69 0.49
-3 10 -1 9.31 0.93
3 -10 1 8.93 0.66
-4 10 -1 16.27 1.32
4 -10 1 16.26 0.98
-5 10 -1 25.93 1.79
5 -10 1 24.13 1.35
6 -10 1 0.09 0.36
7 -10 1 5.9 0.68
8 -10 1 28.49 1.64
9 -10 1 1.04 0.53
10 -10 1 1.86 0.62
13 9 -1 4.06 0.83
12 9 -1 0.68 0.51
11 9 -1 3.23 0.69
10 9 -1 1.65 0.55
-10 -9 1 1.85 0.79
9 9 -1 0.92 0.5
-9 -9 1 2.73 0.8
8 9 -1 16.03 1.25
-8 -9 1 13.93 1.45
7 9 -1 9.64 1.04
7 9 -1 9.58 0.94
6 9 -1 0.34 0.37
6 9 -1 0.48 0.41
5 9 -1 2.04 0.44
5 9 -1 1.42 0.45
4 9 -1 40.65 2.57
4 9 -1 40.99 2.32
3 9 -1 0.25 0.29
2 9 -1 28.77 1.89
1 9 -1 0.97 0.4
0 9 -1 8.68 0.84
-1 9 -1 1.67 0.43
-2 9 -1 15.56 1.21
2 -9 1 15.47 0.87
-3 9 -1 26.58 1.84
3 -9 1 29.32 1.39
-4 9 -1 0.99 0.41
4 -9 1 1.15 0.33
-5 9 -1 4.63 0.68
5 -9 1 5.39 0.56
6 -9 1 0.13 0.34
7 -9 1 7.88 0.75
8 -9 1 0 0.41
9 -9 1 20.26 1.3
10 -9 1 0.91 0.56
11 -9 1 -0.55 0.51
14 8 -1 5.68 0.95
13 8 -1 -0.25 0.49
12 8 -1 3.46 0.68
11 8 -1 12.52 1.13
10 8 -1 0.01 0.37
-10 -8 1 0.13 0.62
9 8 -1 46.61 2.58
-9 -8 1 40.39 2.86
8 8 -1 2.29 0.51
-8 -8 1 3.64 0.74
7 8 -1 13.7 1.14
7 8 -1 12.99 1.05
6 8 -1 1.13 0.38
6 8 -1 1.02 0.41
5 8 -1 8.82 0.88
5 8 -1 9.69 0.81
4 8 -1 3.16 0.54
4 8 -1 3.68 0.5
2 8 -1 0.02 0.11
1 8 -1 3.89 0.55
0 8 -1 25.94 1.72
0 -8 1 26.09 1.2
-1 8 -1 0.26 0.28
1 -8 1 0.12 0.18
-2 8 -1 40.95 2.47
2 -8 1 39.56 1.81
-3 8 -1 5.87 0.66
3 -8 1 4.78 0.46
-4 8 -1 34.49 2.15
4 -8 1 33.18 1.61
-5 8 -1 15.55 1.17
5 -8 1 15.14 0.93
-6 8 -1 1.66 0.44
6 -8 1 0.93 0.34
7 -8 1 2.04 0.43
8 -8 1 38.04 1.95
9 -8 1 0.23 0.41
10 -8 1 17.16 1.23
11 -8 1 0.11 0.49
12 -8 1 0.9 0.56
14 7 -1 1.39 0.64
13 7 -1 12.09 1.19
12 7 -1 2.89 0.65
11 7 -1 2.19 0.57
10 7 -1 27.03 1.82
-10 -7 1 30.97 2.14
9 7 -1 0.13 0.31
-9 -7 1 0.14 0.5
8 7 -1 3.08 0.52
-8 -7 1 1.69 0.58
7 7 -1 0.2 0.29
-7 -7 1 0.63 0.47
6 7 -1 0.38 0.27
6 7 -1 0.06 0.29
5 7 -1 16.86 1.13
5 7 -1 16.69 1.22
4 7 -1 31.42 2.02
4 7 -1 32.87 1.85
3 7 -1 0.27 0.21
3 7 -1 0.46 0.27
2 7 -1 0 0.07
1 7 -1 0.13 0.25
-1 -7 1 0.1 0.11
0 7 -1 0.31 0.26
0 -7 1 0 0.13
-1 7 -1 69.51 3.92
1 -7 1 66.94 2.89
-2 7 -1 4.28 0.55
2 -7 1 4.48 0.39
-3 7 -1 19.24 1.31
3 -7 1 19.07 0.98
-4 7 -1 4.29 0.52
4 -7 1 2.7 0.36
-5 7 -1 15.87 1.1
5 -7 1 14.16 0.87
-6 7 -1 13.58 1.03
6 -7 1 13.6 0.86
7 -7 1 1.69 0.39
8 -7 1 12.2 0.89
9 -7 1 32.56 1.72
10 -7 1 0.3 0.4
11 -7 1 5.42 0.72
12 -7 1 4.31 0.71
13 -7 1 2.3 0.65
15 6 -1 6.74 0.99
14 6 -1 5.77 0.91
13 6 -1 0.25 0.51
12 6 -1 2.42 0.62
11 6 -1 5.81 0.81
10 6 -1 1.16 0.45
9 6 -1 12.58 1
-9 -6 1 11.93 1.18
8 6 -1 0.82 0.33
-8 -6 1 -0.27 0.39
7 6 -1 -0.05 0.12
-7 -6 1 0.32 0.41
6 6 -1 39.07 2.29
6 6 -1 37.09 2.48
-6 -6 1 49.22 2.62
5 6 -1 9.96 0.79
5 6 -1 8.87 0.72
4 6 -1 47.24 2.48
4 6 -1 44.17 2.7
3 6 -1 0.29 0.23
3 6 -1 0.3 0.19
2 6 -1 4.22 0.43
1 6 -1 1.91 0.35
-1 -6 1 2.17 0.19
0 6 -1 11.1 0.84
0 -6 1 11.32 0.56
-1 6 -1 4.68 0.51
1 -6 1 4.58 0.33
-2 6 -1 69.62 3.97
2 -6 1 69.88 2.96
-3 6 -1 0.18 0.21
3 -6 1 -0.13 0.15
-4 6 -1 22.25 1.4
4 -6 1 21.99 1.21
4 -6 1 21.06 1.09
-5 6 -1 60.98 3.53
5 -6 1 63.58 2.72
5 -6 1 60.36 3.15
-6 6 -1 11.38 0.85
6 -6 1 10.66 0.74
7 -6 1 19.15 1.09
8 -6 1 1.42 0.37
9 -6 1 3.72 0.53
10 -6 1 6.13 0.68
11 -6 1 1.87 0.51
12 -6 1 0.46 0.43
13 -6 1 8.37 0.93
14 -6 1 -0.75 0.5
15 5 -1 1.66 0.68
14 5 -1 8.84 1.08
13 5 -1 -0.03 0.47
12 5 -1 0.82 0.49
11 5 -1 0.18 0.39
10 5 -1 13.8 1.08
9 5 -1 0.71 0.34
-9 -5 1 0.25 0.41
8 5 -1 28.53 1.8
-8 -5 1 33.26 2.05
-6 -5 1 0.83 0.37
5 5 -1 197.66 10.87
5 5 -1 199.22 9.91
4 5 -1 2.56 0.35
4 5 -1 2.81 0.4
3 5 -1 60.82 3.4
3 5 -1 58.09 3.09
2 5 -1 48.05 2.71
2 5 -1 45.72 2.44
1 5 -1 13.96 0.96
-1 -5 1 14.3 0.64
0 5 -1 8.68 0.68
0 -5 1 8.96 0.46
-1 5 -1 55.46 3.08
1 -5 1 52.03 2.27
-2 5 -1 27.18 1.64
2 -5 1 26.72 1.22
-3 5 -1 101.91 5.58
3 -5 1 97.08 5.01
3 -5 1 103.36 4.22
-4 5 -1 34.05 1.99
4 -5 1 33.74 1.54
4 -5 1 32.72 1.76
-5 5 -1 4.47 0.47
5 -5 1 4.83 0.43
5 -5 1 4.72 0.4
-6 5 -1 113.02 6.14
6 -5 1 106.65 5.55
6 -5 1 113.54 4.71
7 -5 1 3.38 0.43
8 -5 1 42.68 2.03
9 -5 1 1.29 0.36
10 -5 1 0.15 0.3
11 -5 1 1.31 0.44
12 -5 1 9.04 0.9
13 -5 1 4.58 0.72
14 -5 1 4.06 0.75
15 4 -1 9.2 1.1
14 4 -1 0.92 0.54
13 4 -1 1.82 0.54
12 4 -1 2.37 0.54
11 4 -1 3.74 0.62
10 4 -1 1.72 0.45
9 4 -1 27.66 1.71
-9 -4 1 28.94 1.87
8 4 -1 7.92 0.72
7 4 -1 3.03 0.44
-7 -4 1 3.94 0.54
6 4 -1 33.9 1.98
6 4 -1 32.97 1.52
-6 -4 1 42.75 2.23
5 4 -1 -0.03 0.04
-5 -4 1 -0.15 0.23
4 4 -1 151.51 8.34
4 4 -1 152.76 7.61
3 4 -1 4.98 0.41
3 4 -1 4.75 0.45
2 4 -1 22.35 1.23
3 -4 1 1.29 0.2
3 -4 1 1.55 0.21
-4 4 -1 -0.04 0.11
4 -4 1 0.06 0.13
4 -4 1 0.05 0.14
5 -4 1 46.52 2.03
5 -4 1 44.42 2.34
-6 4 -1 -0.02 0.11
6 -4 1 0.32 0.19
6 -4 1 0.49 0.18
8 -4 1 0.69 0.25
8 -4 1 2.17 0.33
9 -4 1 35.83 1.77
10 -4 1 31.69 1.64
11 -4 1 1.11 0.4
12 -4 1 21.06 1.32
13 -4 1 3.08 0.62
14 -4 1 7.04 0.86
15 -4 1 2.03 0.68
15 3 -1 0.26 0.51
14 3 -1 5.73 0.82
13 3 -1 14.08 1.2
12 3 -1 1.45 0.48
11 3 -1 15.67 1.17
10 3 -1 8.63 0.81
9 3 -1 5.82 0.64
-9 -3 1 4.91 0.6
8 3 -1 12.39 0.85
8 3 -1 10.75 0.61
-8 -3 1 9.62 0.87
7 3 -1 34.84 2.06
-7 -3 1 39.66 2.26
6 3 -1 54.53 2.19
6 3 -1 52.42 2.76
-6 -3 1 48.62 3
5 3 -1 54.64 2.98
5 3 -1 54 2.37
-5 -3 1 63.42 3.28
4 3 -1 0.84 0.16
-4 -3 1 0.13 0.14
2 3 -1 31 1.77
2 3 -1 30.02 1.6
0 3 -1 1.82 0.25
-1 3 -1 2.33 0.27
-2 3 -1 3.58 0.33
-3 3 -1 48.13 2.64
3 -3 1 45.88 2.02
3 -3 1 46.92 2.39
-4 3 -1 3.28 0.32
4 -3 1 3.14 0.3
4 -3 1 3.1 0.29
-5 3 -1 4.69 0.38
5 -3 1 4.76 0.37
5 -3 1 3.57 0.35
-6 3 -1 130.78 7.06
6 -3 1 127.96 6.45
-7 3 -1 -0.02 0.15
7 -3 1 -0.11 0.16
7 -3 1 -0.06 0.13
8 -3 1 96.44 4.78
8 -3 1 91.06 4.03
9 -3 1 77.69 4
9 -3 1 76.83 3.41
10 -3 1 2.01 0.42
11 -3 1 32.44 1.69
12 -3 1 0.48 0.41
13 -3 1 6.86 0.78
14 -3 1 -0.11 0.46
15 -3 1 0.3 0.5
15 2 -1 11.75 1.2
14 2 -1 4.53 0.76
13 2 -1 2.29 0.59
12 2 -1 34.13 2.08
11 2 -1 6.88 0.76
10 2 -1 31.29 1.86
10 2 -1 31.62 1.49
9 2 -1 4.18 0.39
9 2 -1 3.84 0.5
-9 -2 1 4.29 0.54
8 2 -1 0.36 0.24
8 2 -1 0.32 0.18
-8 -2 1 -0.08 0.24
7 2 -1 2.06 0.23
7 2 -1 1.57 0.29
-7 -2 1 1.36 0.31
6 2 -1 57.94 3.02
5 2 -1 6.17 0.36
5 2 -1 6.44 0.5
4 2 -1 66.29 3.49
4 2 -1 66.7 2.83
-4 -2 1 72.73 3.83
3 2 -1 17.67 1.02
-3 -2 1 18.93 1.12
1 2 -1 158.31 7.79
0 2 -1 40.07 2.24
-1 2 -1 166.91 9.03
-2 2 -1 5.62 0.39
2 -2 1 5.53 0.36
-3 2 -1 14.51 0.87
3 -2 1 14.65 0.81
-4 2 -1 26.82 1.51
4 -2 1 26.2 1.4
-5 2 -1 19.31 1.09
5 -2 1 17.86 1.03
-6 2 -1 19.85 1.14
6 -2 1 19.28 1.1
6 -2 1 18.98 0.97
-7 2 -1 116.59 6.29
7 -2 1 115.67 4.86
7 -2 1 114.14 5.8
8 -2 1 1.74 0.31
8 -2 1 1.66 0.31
9 -2 1 41.01 1.95
9 -2 1 42.05 2.27
10 -2 1 46.1 2.53
10 -2 1 46.02 2.18
11 -2 1 -0.04 0.3
11 -2 1 0.09 0.33
12 -2 1 17.8 1.15
13 -2 1 -0.19 0.37
14 -2 1 0.4 0.42
15 -2 1 15.33 1.23
14 1 -1 0.62 0.47
13 1 -1 18.94 1.38
12 1 -1 0.13 0.33
12 1 -1 -0.06 0.28
11 1 -1 31.75 1.94
11 1 -1 34.03 1.61
10 1 -1 1.36 0.38
10 1 -1 1.31 0.3
9 1 -1 3.72 0.5
9 1 -1 5.32 0.45
8 1 -1 1.9 0.34
8 1 -1 1.85 0.27
-8 -1 1 2.64 0.4
7 1 -1 0.77 0.23
7 1 -1 1.25 0.22
6 1 -1 2.34 0.25
6 1 -1 2.53 0.33
-6 -1 1 3.32 0.36
5 1 -1 8.7 0.59
5 1 -1 9.32 0.46
-5 -1 1 7.65 0.6
4 1 -1 39.17 2.05
4 1 -1 38.01 1.66
-4 -1 1 40.85 2.24
3 1 -1 52.91 2.89
3 1 -1 54.6 2.36
-3 -1 1 63.72 3.18
2 1 -1 190.54 9.74
-2 -1 1 206.13 10.72
0 1 -1 115.85 6.27
-1 1 -1 95.8 5.18
-2 1 -1 283.43 15.24
-3 1 -1 71.38 3.82
3 -1 1 69.58 3.52
-4 1 -1 3.81 0.27
4 -1 1 3.86 0.32
-5 1 -1 54.75 3.01
5 -1 1 54.93 2.36
5 -1 1 55.63 2.81
-6 1 -1 38.5 2.15
6 -1 1 39.17 1.74
6 -1 1 39.28 2.05
-7 1 -1 20.26 1.18
7 -1 1 20.31 1.03
7 -1 1 21.22 1.19
8 -1 1 36.93 1.71
8 -1 1 36.6 2.01
9 -1 1 -0.04 0.22
9 -1 1 -0.04 0.22
10 -1 1 4.42 0.54
10 -1 1 5.12 0.53
11 -1 1 52.73 2.84
11 -1 1 50.48 2.41
12 -1 1 1.25 0.43
12 -1 1 1.63 0.43
13 -1 1 13.69 1
14 -1 1 8.55 0.84
15 -1 1 3.97 0.68
14 0 -1 3.97 0.62
13 0 -1 1.52 0.42
12 0 -1 14.92 1.13
12 0 -1 15.83 0.99
11 0 -1 0.58 0.34
11 0 -1 0.74 0.32
10 0 -1 24.03 1.26
10 0 -1 25.41 1.51
9 0 -1 4.37 0.43
9 0 -1 4.09 0.49
8 0 -1 12.53 0.71
8 0 -1 12.72 0.85
7 0 -1 41.56 1.72
7 0 -1 41.01 2.07
-7 0 1 32.83 2.2
6 0 -1 0.75 0.21
6 0 -1 0.88 0.18
-6 0 1 1.53 0.26
5 0 -1 57.02 2.85
-5 0 1 54.25 3.11
4 0 -1 0.72 0.16
4 0 -1 0.73 0.14
-4 0 1 0.45 0.18
3 0 -1 85.86 4.23
3 0 -1 85.1 3.49
-3 0 1 83.73 4.64
-2 0 1 0.16 0.09
-1 0 1 192.3 10.44
0 0 1 8.69 0.51
1 0 1 296.21 15.93
3 0 1 20.84 1.1
-4 0 -1 72.65 3.87
4 0 1 70.37 3.59
-5 0 -1 0.29 0.08
5 0 1 0.61 0.17
5 0 1 0.24 0.12
-6 0 -1 39.49 2.54
6 0 1 49.55 2.43
6 0 1 52.08 2.03
-7 0 -1 0.29 0.12
7 0 1 0.21 0.16
7 0 1 -0.01 0.17
8 0 1 1.76 0.32
8 0 1 1.86 0.28
9 0 1 14.39 0.95
9 0 1 13.05 0.8
10 0 1 37.59 1.76
10 0 1 35.8 2.08
11 0 1 4.02 0.56
11 0 1 4.75 0.53
12 0 1 20.49 1.41
12 0 1 22.12 1.23
13 0 1 5.57 0.64
13 0 1 4.68 0.7
14 0 1 2.61 0.53
15 0 1 8.89 0.88
15 -1 -1 0.24 0.45
14 -1 -1 -0.15 0.38
13 -1 -1 8.67 0.8
12 -1 -1 2.72 0.49
11 -1 -1 25.3 1.61
11 -1 -1 28.6 1.43
10 -1 -1 0.33 0.28
10 -1 -1 0.17 0.25
9 -1 -1 0.49 0.24
9 -1 -1 0.61 0.26
8 -1 -1 52.41 2.69
8 -1 -1 48.67 2.25
7 -1 -1 2.96 0.34
7 -1 -1 2.66 0.31
-7 1 1 1.63 0.31
6 -1 -1 164.02 8.25
6 -1 -1 162.8 6.85
-6 1 1 171.76 9.08
5 -1 -1 35.41 1.52
5 -1 -1 35.3 1.79
-5 1 1 31.98 1.96
4 -1 -1 6.61 0.43
-4 1 1 6.26 0.49
3 -1 -1 22.16 1.14
3 -1 -1 22.32 0.97
-3 1 1 21.22 1.27
2 -1 -1 3.43 0.21
-2 1 1 3.08 0.29
-1 1 1 60.46 3.3
1 1 1 30.37 1.66
2 1 1 145.91 7.86
-3 -1 -1 309.54 17.38
3 1 1 337.46 15.85
-4 -1 -1 15.36 0.87
4 1 1 14.35 0.85
-5 -1 -1 35.22 1.87
5 1 1 31.31 1.77
-6 -1 -1 0.21 0.14
6 1 1 0.22 0.16
6 1 1 0.12 0.12
-7 -1 -1 38.87 2.13
7 1 1 36.92 1.67
7 1 1 36.77 2.03
8 1 1 41.98 1.87
8 1 1 41.65 2.27
9 1 1 -0.07 0.24
9 1 1 0.09 0.2
10 1 1 51.75 2.79
10 1 1 50 2.29
11 1 1 24.58 1.28
11 1 1 24.21 1.54
12 1 1 1.02 0.36
12 1 1 0.62 0.39
13 1 1 5.15 0.72
13 1 1 4.97 0.58
14 1 1 6.78 0.85
14 1 1 6.83 0.71
15 -2 -1 2.74 0.63
14 -2 -1 -0.54 0.39
13 -2 -1 13.63 1.03
12 -2 -1 9.62 0.83
11 -2 -1 5.6 0.6
10 -2 -1 16.41 0.97
10 -2 -1 15.85 1.07
9 -2 -1 14.56 0.87
9 -2 -1 14.74 0.97
8 -2 -1 5.62 0.51
8 -2 -1 5.43 0.49
7 -2 -1 88.92 3.74
7 -2 -1 86.55 4.43
6 -2 -1 2.93 0.32
6 -2 -1 3.04 0.31
-6 2 1 2.82 0.34
5 -2 -1 15.95 0.82
5 -2 -1 15.88 0.91
-5 2 1 17.51 1.03
4 -2 -1 13.91 0.76
4 -2 -1 16.18 0.86
-4 2 1 17.38 0.98
2 -2 -1 55.43 2.52
-2 2 1 65.59 3.34
1 -2 -1 130.19 5.38
-1 2 1 134.28 7.16
0 2 1 -0.01 0.01
1 2 1 1.38 0.16
2 2 1 4.31 0.31
2 2 1 3.97 0.3
4 2 1 518.16 27.94
4 2 1 520.4 25.43
-5 -2 -1 1.35 0.21
5 2 1 1.21 0.23
5 2 1 1.46 0.17
-6 -2 -1 183.86 9.55
6 2 1 167.58 8.74
-7 -2 -1 38.91 2.14
7 2 1 36.88 1.65
7 2 1 36.37 2.03
-8 -2 -1 0.11 0.18
8 2 1 0.08 0.16
8 2 1 0.18 0.23
9 2 1 69.72 3.03
9 2 1 71.46 3.72
10 2 1 0.53 0.24
10 2 1 0.46 0.33
11 2 1 20.32 1.09
11 2 1 19.47 1.35
12 2 1 13.08 0.85
12 2 1 12.98 1.07
13 2 1 2.76 0.58
14 2 1 0.31 0.47
15 2 1 5.58 0.87
15 -3 -1 0.47 0.53
14 -3 -1 17.86 1.24
13 -3 -1 3.19 0.59
12 -3 -1 15.39 1.05
11 -3 -1 6.28 0.68
10 -3 -1 0.55 0.33
9 -3 -1 0.88 0.32
8 -3 -1 56.4 2.54
8 -3 -1 57.5 2.96
7 -3 -1 17.96 1.05
7 -3 -1 18.73 0.97
6 -3 -1 98.58 4.11
6 -3 -1 95.94 4.86
5 -3 -1 20.56 1.07
5 -3 -1 15.9 0.93
-5 3 1 22.46 1.21
4 -3 -1 0.59 0.12
-4 3 1 0.44 0.16
3 -3 -1 138.68 5.77
-3 3 1 141.89 7.64
2 -3 -1 0.11 0.11
-2 3 1 0.01 0.13
1 -3 -1 572.41 23.38
-1 3 1 582.32 31.32
1 3 1 99.56 5.41
1 3 1 98.63 4.9
2 3 1 174.83 8.63
2 3 1 175.21 9.49
3 3 1 277.91 14.9
3 3 1 273.99 13.56
5 3 1 202.95 10.78
5 3 1 211.15 8.09
5 3 1 182.49 9.85
-6 -3 -1 1.7 0.28
6 3 1 2.05 0.31
6 3 1 1.94 0.2
7 3 1 2.51 0.36
7 3 1 1.86 0.21
8 3 1 107.32 5.43
8 3 1 104.89 4.41
9 3 1 4.11 0.38
9 3 1 4.91 0.57
10 3 1 47.29 2.66
10 3 1 48.31 2.13
11 3 1 8.43 0.82
12 3 1 4.21 0.66
13 3 1 0.63 0.46
14 3 1 1.08 0.53
15 3 1 1.4 0.62
16 3 1 1.03 0.63
14 -4 -1 0.33 0.45
13 -4 -1 5.61 0.74
12 -4 -1 1.1 0.45
11 -4 -1 8.35 0.78
10 -4 -1 0.72 0.35
9 -4 -1 7.04 0.65
8 -4 -1 38.26 1.82
7 -4 -1 8.66 0.6
-7 4 1 8.63 0.68
6 -4 -1 3.22 0.31
-6 4 1 3.26 0.39
5 -4 -1 39.45 2.05
5 -4 -1 41.16 1.81
4 -4 -1 104.82 5.18
4 -4 -1 105.34 4.39
-3 4 1 15.66 0.99
2 -4 -1 303.47 11.41
-2 4 1 257.7 15.17
1 -4 -1 2.66 0.22
-1 4 1 2.49 0.29
1 4 1 21.21 1.07
1 4 1 18.43 1.19
2 4 1 6.76 0.45
2 4 1 6.28 0.5
4 4 1 117.43 6.25
4 4 1 109.98 5.7
5 4 1 4.92 0.44
5 4 1 4.92 0.43
5 4 1 4.79 0.27
6 4 1 3.13 0.22
6 4 1 2.29 0.32
7 4 1 3.34 0.25
7 4 1 3.33 0.43
-8 -4 -1 2.31 0.42
8 4 1 3.1 0.28
8 4 1 3.34 0.47
9 4 1 42.42 2.38
10 4 1 0.12 0.31
11 4 1 61.21 3.36
12 4 1 7.32 0.85
13 4 1 4.63 0.75
14 4 1 6.66 0.89
15 4 1 0.66 0.57
16 4 1 6.88 1.03
14 -5 -1 1.91 0.64
13 -5 -1 0.1 0.44
12 -5 -1 6.66 0.76
11 -5 -1 7.55 0.76
10 -5 -1 0.31 0.33
9 -5 -1 29.71 1.54
8 -5 -1 1.67 0.35
-7 5 1 2.76 0.4
6 -5 -1 0.7 0.21
-6 5 1 1.5 0.31
5 -5 -1 21.41 1.07
5 -5 -1 20.96 1.12
-5 5 1 20.78 1.33
4 -5 -1 0.82 0.13
4 -5 -1 0.6 0.19
-4 5 1 0.84 0.23
3 -5 -1 255.7 10.75
-3 5 1 270.94 14.3
2 -5 -1 8.2 0.47
-2 5 1 8.54 0.64
1 -5 -1 155.33 6.42
-1 5 1 158.61 8.59
0 -5 -1 177.13 7.02
0 5 1 170.72 9.41
0 5 1 169.16 8.47
-1 -5 -1 18.31 0.8
1 5 1 18.41 1
2 5 1 8.21 0.54
3 5 1 3.3 0.34
3 5 1 2.57 0.36
4 5 1 19.38 1.13
4 5 1 19.14 1.22
5 5 1 66.11 3.72
5 5 1 65.94 3.43
6 5 1 11.05 0.85
6 5 1 12 0.83
6 5 1 12.34 0.55
-7 -5 -1 0.31 0.29
7 5 1 2.73 0.36
-9 -5 -1 0.24 0.35
9 5 1 0.22 0.28
10 5 1 22.87 1.49
11 5 1 3.03 0.58
12 5 1 28.86 1.86
13 5 1 17.15 1.39
14 5 1 1.31 0.61
15 5 1 6.43 0.98
14 -6 -1 2.12 0.69
13 -6 -1 12.41 1.12
12 -6 -1 0.89 0.47
11 -6 -1 1.26 0.47
10 -6 -1 28.99 1.58
9 -6 -1 1.96 0.41
8 -6 -1 11.58 0.8
7 -6 -1 2.06 0.36
-7 6 1 2.7 0.42
6 -6 -1 1.53 0.3
-6 6 1 1.89 0.36
5 -6 -1 5.51 0.46
-5 6 1 4.2 0.51
4 -6 -1 76.52 3.22
-4 6 1 73.51 4.23
3 -6 -1 9.25 0.56
3 -6 -1 8.98 0.52
-3 6 1 8.9 0.71
2 -6 -1 52.09 2.26
-2 6 1 53.06 3.03
1 -6 -1 2.59 0.25
-1 6 1 3.18 0.41
0 -6 -1 38.66 1.72
0 6 1 42.35 2.38
-1 -6 -1 158.29 5.99
1 6 1 135.12 7.27
2 6 1 0.34 0.15
2 6 1 0.32 0.2
3 6 1 20.23 1.18
3 6 1 20.47 1.31
4 6 1 1.88 0.33
4 6 1 1.44 0.29
5 6 1 0.33 0.23
5 6 1 0.29 0.22
6 6 1 0.56 0.26
6 6 1 0.37 0.24
7 6 1 5.8 0.58
7 6 1 5.01 0.58
-9 -6 -1 12.27 1.03
9 6 1 11.48 0.94
10 6 1 1.17 0.39
11 6 1 4.66 0.69
12 6 1 24.87 1.72
13 6 1 1.21 0.58
14 6 1 22.37 1.69
15 6 1 0.24 0.59
13 -7 -1 0.62 0.54
12 -7 -1 1.38 0.53
11 -7 -1 7.52 0.82
10 -7 -1 1.03 0.43
9 -7 -1 50.8 2.43
8 -7 -1 3.65 0.51
7 -7 -1 47.26 2.27
-7 7 1 49.34 2.89
6 -7 -1 3.33 0.43
-6 7 1 3.42 0.5
5 -7 -1 0.8 0.26
-5 7 1 0.65 0.29
4 -7 -1 1.7 0.3
-4 7 1 1.8 0.37
3 -7 -1 2.82 0.32
-3 7 1 2.55 0.43
2 -7 -1 15.78 0.8
-2 7 1 15.17 1.08
1 -7 -1 3.82 0.32
-1 7 1 4.11 0.5
0 -7 -1 4.29 0.31
0 7 1 3.66 0.48
-1 -7 -1 46.66 1.94
1 7 1 45.08 2.38
-2 -7 -1 117.35 4.83
2 7 1 120.67 6.6
2 7 1 117.37 5.94
3 7 1 0.63 0.27
3 7 1 0.71 0.22
4 7 1 75.36 4.36
4 7 1 78.15 3.98
5 7 1 17.81 1.21
5 7 1 16.97 1.11
6 7 1 0.09 0.24
6 7 1 0.41 0.27
7 7 1 27.41 1.72
7 7 1 29.53 1.82
8 7 1 -0.04 0.28
8 7 1 0.35 0.32
-9 -7 -1 28.17 1.82
9 7 1 23.64 1.64
10 7 1 18.21 1.31
11 7 1 -0.33 0.34
12 7 1 0.48 0.47
13 7 1 27.24 1.9
14 7 1 0.32 0.55
15 7 1 10.18 1.21
12 -8 -1 1.33 0.55
11 -8 -1 0.21 0.48
10 -8 -1 17.39 1.19
9 -8 -1 4.54 0.64
8 -8 -1 39.03 1.95
7 -8 -1 11.74 0.87
6 -8 -1 13.71 0.88
-6 8 1 13.55 1.08
5 -8 -1 30.65 1.55
-5 8 1 32.44 2.02
4 -8 -1 0.85 0.27
-4 8 1 0.76 0.32
3 -8 -1 6.03 0.5
-3 8 1 6.77 0.68
2 -8 -1 0.32 0.2
-2 8 1 0.36 0.3
1 -8 -1 0.52 0.19
-1 8 1 0.52 0.29
0 -8 -1 8.21 0.47
0 8 1 7.24 0.7
-1 -8 -1 76.41 3.1
1 8 1 72.07 4.26
2 8 1 15.54 1.24
2 8 1 21.59 1.13
3 8 1 76.74 4.41
3 8 1 76.99 3.97
4 8 1 9.66 0.75
4 8 1 10.7 0.89
5 8 1 5.99 0.6
5 8 1 5.32 0.62
6 8 1 28.16 1.71
6 8 1 28.23 1.83
7 8 1 3.29 0.53
7 8 1 3.44 0.55
8 8 1 20.29 1.37
8 8 1 19.12 1.4
-9 -8 -1 0.82 0.49
9 8 1 1.46 0.45
10 8 1 2.93 0.6
11 8 1 0.51 0.42
12 8 1 0.22 0.46
13 8 1 2.44 0.65
14 8 1 10.8 1.24
15 8 1 -0.34 0.6
12 -9 -1 -0.39 0.52
11 -9 -1 2.18 0.62
10 -9 -1 2.4 0.61
9 -9 -1 19.84 1.28
8 -9 -1 -0.16 0.39
7 -9 -1 8.72 0.78
6 -9 -1 8.83 0.76
-6 9 1 10.49 0.96
5 -9 -1 1.18 0.35
-5 9 1 0.98 0.39
4 -9 -1 23.66 1.24
-4 9 1 23.81 1.63
3 -9 -1 4.2 0.45
-3 9 1 5.2 0.66
2 -9 -1 1.26 0.27
-2 9 1 1.08 0.37
1 -9 -1 6.2 0.47
-1 9 1 5.9 0.67
0 -9 -1 3.19 0.31
0 9 1 3.66 0.54
3 9 1 -0.09 0.26
3 9 1 0.13 0.22
4 9 1 16.04 1.08
4 9 1 15.97 1.21
5 9 1 7.53 0.7
5 9 1 6.68 0.77
6 9 1 0.68 0.37
6 9 1 0.52 0.32
7 9 1 19.81 1.48
7 9 1 20.86 1.4
8 9 1 0.91 0.42
8 9 1 0.9 0.42
9 9 1 6.3 0.82
9 9 1 6.85 0.83
10 9 1 18.36 1.4
11 9 1 -0.5 0.41
12 9 1 13.91 1.29
13 9 1 0.99 0.6
14 9 1 0.59 0.6
11 -10 -1 5.8 0.85
10 -10 -1 3.31 0.67
9 -10 -1 4.92 0.73
8 -10 -1 6.9 0.77
7 -10 -1 1.34 0.45
6 -10 -1 2.03 0.45
-6 10 1 1.85 0.51
5 -10 -1 40.06 1.96
-5 10 1 40.78 2.57
4 -10 -1 4.06 0.48
-4 10 1 3.24 0.61
3 -10 -1 14.11 0.87
-3 10 1 14.05 1.17
2 -10 -1 2.33 0.36
-2 10 1 2.14 0.48
-1 10 1 6.02 0.75
0 10 1 10.24 0.94
1 10 1 2.39 0.52
2 10 1 21.32 1.52
3 10 1 37.16 2.15
3 10 1 39.87 2.45
4 10 1 5.2 0.62
4 10 1 5.96 0.76
5 10 1 2.12 0.49
5 10 1 1.65 0.43
6 10 1 15.75 1.26
6 10 1 15.43 1.14
7 10 1 -0.18 0.39
7 10 1 -0.03 0.35
8 10 1 14.28 1.22
8 10 1 13.17 1.13
9 10 1 8.71 0.99
9 10 1 9.62 1.05
10 10 1 10.24 1.11
11 10 1 4.44 0.79
12 10 1 -0.1 0.5
13 10 1 10.83 1.22
10 -11 -1 3.82 0.75
9 -11 -1 0.62 0.49
8 -11 -1 0.1 0.46
7 -11 -1 0.61 0.46
6 -11 -1 10.83 0.9
5 -11 -1 0.32 0.38
-5 11 1 0.24 0.42
4 -11 -1 44.37 2.09
-4 11 1 42.44 2.76
3 -11 -1 3.74 0.48
-3 11 1 3.28 0.64
-2 11 1 2.98 0.61
-1 11 1 6.51 0.85
0 11 1 0.3 0.39
1 11 1 18.17 1.41
2 11 1 -0.09 0.34
3 11 1 8.37 0.92
4 11 1 1.9 0.52
4 11 1 1.45 0.4
5 11 1 3.31 0.56
5 11 1 4.06 0.69
6 11 1 4.43 0.72
6 11 1 2.86 0.57
7 11 1 14.22 1.26
7 11 1 13.53 1.16
8 11 1 0.37 0.45
8 11 1 0.24 0.41
9 11 1 8.68 1.03
9 11 1 6.76 0.91
10 11 1 4.74 0.78
11 11 1 -0.12 0.5
12 11 1 8.52 1.07
13 11 1 -0.45 0.58
9 -12 -1 3.22 0.71
8 -12 -1 -0.24 0.46
7 -12 -1 1.93 0.57
6 -12 -1 1.25 0.5
5 -12 -1 11.03 0.92
-5 12 1 9.59 1.1
-4 12 1 7.99 1
-3 12 1 15.46 1.34
-2 12 1 1.05 0.5
-1 12 1 0.74 0.49
0 12 1 14.05 1.29
1 12 1 -0.29 0.36
2 12 1 24.51 1.79
3 12 1 1.77 0.54
4 12 1 0.23 0.43
5 12 1 12.59 1.06
5 12 1 12.78 1.26
6 12 1 5.08 0.74
6 12 1 5.27 0.86
7 12 1 0.62 0.46
7 12 1 1.07 0.56
8 12 1 5.79 0.88
8 12 1 5.57 0.8
9 12 1 0.48 0.55
9 12 1 1.31 0.6
-10 -12 -1 0 0.83
10 12 1 0.88 0.59
11 12 1 17.86 1.55
12 12 1 2.27 0.73
7 -13 -1 1.92 0.65
-5 13 1 13.05 1.34
-4 13 1 3.34 0.76
-3 13 1 0.93 0.53
-2 13 1 1.17 0.55
-1 13 1 11.6 1.23
0 13 1 0 0.45
1 13 1 29.99 2.15
2 13 1 0.79 0.51
3 13 1 3.34 0.71
4 13 1 6.56 0.94
5 13 1 0.21 0.5
6 13 1 6.06 0.93
6 13 1 5.38 0.77
7 13 1 1.39 0.61
7 13 1 1.41 0.55
8 13 1 0.12 0.54
8 13 1 0.36 0.5
9 13 1 0.15 0.54
9 13 1 -0.09 0.51
-10 -13 -1 0.99 0.87
10 13 1 5.38 0.91
-4 14 1 2.02 0.68
-3 14 1 0.5 0.55
-2 14 1 6.99 1.02
-1 14 1 1.1 0.59
0 14 1 23.07 1.88
1 14 1 1.79 0.65
2 14 1 0.55 0.54
3 14 1 11.98 1.3
4 14 1 2.51 0.72
5 14 1 15.69 1.55
6 14 1 0.2 0.62
7 14 1 4.04 0.88
8 14 1 0.2 0.52
8 14 1 -0.05 0.6
9 14 1 0.41 0.58
-10 -14 -1 0.64 0.9
-2 15 1 1.71 0.69
-1 15 1 7.16 1.09
0 15 1 5.18 0.96
1 15 1 0.66 0.6
2 15 1 1.15 0.64
3 15 1 0.21 0.54
1 14 -2 0.67 0.63
0 14 -2 1.85 0.71
-1 14 -2 1.04 0.63
-3 14 -2 0.34 0.6
-7 -13 2 0.65 0.88
6 13 -2 5.58 0.98
-6 -13 2 1.48 0.92
5 13 -2 -0.12 0.58
4 13 -2 0.73 0.59
3 13 -2 5.03 0.9
2 13 -2 0.1 0.49
1 13 -2 7.56 1.07
0 13 -2 4.08 0.81
-1 13 -2 -0.28 0.47
-2 13 -2 0.31 0.53
-3 13 -2 6.72 0.99
-10 -12 2 0.69 0.88
-9 -12 2 2.22 0.99
-8 -12 2 0.72 0.86
-7 -12 2 4.03 1.06
6 12 -2 -0.25 0.55
5 12 -2 0.43 0.55
4 12 -2 0.93 0.56
3 12 -2 -0.29 0.45
2 12 -2 8.44 1.08
1 12 -2 0.5 0.5
0 12 -2 8.16 1.05
-1 12 -2 1.93 0.61
-2 12 -2 7.12 0.98
-3 12 -2 2.73 0.68
-4 12 -2 13.49 1.3
11 11 -2 0.77 0.63
10 11 -2 -0.41 0.52
-10 -11 2 -0.1 0.87
9 11 -2 6.65 0.94
-9 -11 2 3.56 1.06
8 11 -2 0.22 0.49
-8 -11 2 2.1 0.83
-7 -11 2 -0.37 0.67
6 11 -2 4.53 0.84
5 11 -2 -0.37 0.46
4 11 -2 0.18 0.45
3 11 -2 12.89 1.21
2 11 -2 1.24 0.53
1 11 -2 3.06 0.67
0 11 -2 15.01 1.33
-1 11 -2 6.6 0.88
-2 11 -2 2.83 0.62
-3 11 -2 6.44 0.87
-4 11 -2 5.81 0.83
6 -11 2 6.24 0.69
7 -11 2 -0.5 0.41
8 -11 2 -0.08 0.47
9 -11 2 0.3 0.54
12 10 -2 1.02 0.61
11 10 -2 2.36 0.72
10 10 -2 5.4 0.85
-10 -10 2 5.29 1.12
9 10 -2 -0.11 0.45
-9 -10 2 0.63 0.78
8 10 -2 21.96 1.47
-8 -10 2 13.46 1.65
7 10 -2 6 0.8
-7 -10 2 3.34 0.86
6 10 -2 2.3 0.62
5 10 -2 2.47 0.63
4 10 -2 9.29 0.98
3 10 -2 3.25 0.63
2 10 -2 22.24 1.67
1 10 -2 2.16 0.54
0 10 -2 14.33 1.24
-1 10 -2 5.83 0.79
-2 10 -2 2.1 0.54
-3 10 -2 3.87 0.67
-4 10 -2 9.55 1.02
4 -10 2 10.7 0.78
-5 10 -2 1.48 0.52
5 -10 2 1.62 0.44
6 -10 2 -0.17 0.36
7 -10 2 12.19 1.01
8 -10 2 4.81 0.69
9 -10 2 2.71 0.61
10 -10 2 1.78 0.61
13 9 -2 0.2 0.55
12 9 -2 0.69 0.58
11 9 -2 4.65 0.81
10 9 -2 0.08 0.44
-10 -9 2 -0.1 0.71
9 9 -2 13.32 1.16
-9 -9 2 10.52 1.36
8 9 -2 2.4 0.57
-8 -9 2 1.46 0.75
7 9 -2 30.96 1.97
6 9 -2 4.67 0.65
6 9 -2 4.04 0.7
-6 -9 2 1.38 0.64
5 9 -2 2.98 0.62
4 9 -2 2.09 0.5
3 9 -2 6.35 0.79
2 9 -2 11.92 1.07
1 9 -2 20 1.46
0 9 -2 1.18 0.42
-1 9 -2 2.91 0.54
-2 9 -2 48.95 2.99
-3 9 -2 7.68 0.84
3 -9 2 7.86 0.63
-4 9 -2 7.16 0.81
4 -9 2 7.24 0.62
-5 9 -2 -0.2 0.31
5 -9 2 0.19 0.31
6 -9 2 6.43 0.65
7 -9 2 0.91 0.43
8 -9 2 11.73 1
9 -9 2 11.38 1.01
10 -9 2 6.5 0.81
11 -9 2 5.3 0.81
13 8 -2 0.7 0.59
12 8 -2 0.39 0.54
11 8 -2 0.75 0.51
10 8 -2 11.08 1.12
-10 -8 2 14.28 1.52
9 8 -2 0.79 0.43
-9 -8 2 0.06 0.66
8 8 -2 46.02 2.45
-8 -8 2 34.34 2.69
7 8 -2 1.43 0.45
-7 -8 2 1.32 0.62
6 8 -2 6.87 0.77
6 8 -2 7.91 0.85
5 8 -2 1.82 0.42
5 8 -2 2.3 0.52
4 8 -2 11.84 1.01
3 8 -2 0.66 0.24
2 8 -2 0.52 0.25
1 8 -2 0.21 0.29
0 8 -2 3.59 0.55
-1 8 -2 45.83 2.81
1 -8 2 47.04 2.04
-2 8 -2 0.14 0.3
2 -8 2 0.15 0.2
-3 8 -2 66.31 3.83
3 -8 2 64.32 2.85
-4 8 -2 0.31 0.31
4 -8 2 0.72 0.28
-5 8 -2 1.92 0.45
5 -8 2 1.55 0.36
6 -8 2 20.27 1.18
7 -8 2 0.47 0.35
8 -8 2 4.41 0.61
9 -8 2 2.8 0.57
10 -8 2 1.37 0.52
11 -8 2 0.33 0.51
12 -8 2 16.71 1.35
14 7 -2 0.43 0.61
13 7 -2 0.49 0.56
12 7 -2 0.26 0.47
11 7 -2 5.7 0.81
10 7 -2 0.88 0.42
-10 -7 2 -0.08 0.6
9 7 -2 41.75 2.46
-9 -7 2 41.63 2.82
8 7 -2 8.46 0.82
-8 -7 2 6.11 0.93
-7 -7 2 16.46 1.4
6 7 -2 24.8 1.55
-6 -7 2 23.64 1.75
5 7 -2 0.81 0.37
5 7 -2 0.93 0.32
4 7 -2 11.29 0.94
4 7 -2 10.38 0.82
3 7 -2 0.01 0.12
2 7 -2 -0.04 0.11
1 7 -2 5.46 0.61
0 7 -2 34.05 2.1
0 -7 2 33.48 1.49
-1 7 -2 28.93 1.83
1 -7 2 28.32 1.31
-2 7 -2 107.55 6.01
2 -7 2 106.33 4.48
-3 7 -2 0.18 0.27
3 -7 2 0.2 0.21
-4 7 -2 10.55 0.86
4 -7 2 9.77 0.72
4 -7 2 10.31 0.68
-5 7 -2 0.66 0.32
5 -7 2 0.47 0.26
6 -7 2 0.09 0.28
7 -7 2 39.83 1.94
8 -7 2 6.24 0.66
9 -7 2 2.39 0.53
10 -7 2 0.17 0.41
11 -7 2 0.12 0.47
12 -7 2 -0.43 0.43
13 -7 2 7.11 0.89
14 6 -2 3.44 0.76
13 6 -2 0.21 0.49
12 6 -2 0.67 0.5
11 6 -2 8.35 0.94
10 6 -2 13.29 1.14
-10 -6 2 15.71 1.39
9 6 -2 10.96 0.92
-9 -6 2 9.26 1.11
8 6 -2 0.7 0.33
-8 -6 2 0.85 0.54
7 6 -2 18.9 1.26
6 6 -2 1.74 0.37
-6 -6 2 0.43 0.4
5 6 -2 103.2 5.05
5 6 -2 102.11 5.52
-5 -6 2 86.41 5.55
4 6 -2 1.68 0.38
4 6 -2 1.93 0.35
3 6 -2 39.26 2.06
3 6 -2 35.37 2.25
2 6 -2 0.09 0.07
-2 -6 2 0.06 0.09
1 6 -2 5.1 0.56
-1 -6 2 5.14 0.32
0 6 -2 34.57 2.13
0 -6 2 35.92 1.54
-1 6 -2 63.82 3.73
1 -6 2 66.35 2.76
-2 6 -2 53.29 3.16
2 -6 2 56.11 2.37
-3 6 -2 38.4 2.37
3 -6 2 41.53 1.8
-4 6 -2 26.4 1.72
4 -6 2 29.36 1.35
4 -6 2 27.47 1.53
-5 6 -2 0.19 0.24
5 -6 2 0.28 0.22
5 -6 2 0.08 0.19
-6 6 -2 8.52 0.72
6 -6 2 7.94 0.65
7 -6 2 7.59 0.66
8 -6 2 44.4 2.13
9 -6 2 0.79 0.37
10 -6 2 3.89 0.58
11 -6 2 3.34 0.59
12 -6 2 0.88 0.49
13 -6 2 3.4 0.69
15 5 -2 5.78 0.91
14 5 -2 0.97 0.55
13 5 -2 8.17 0.99
12 5 -2 9.16 1
11 5 -2 0.45 0.42
10 5 -2 10.28 0.95
-10 -5 2 9.75 1.05
9 5 -2 0.45 0.33
-9 -5 2 0.89 0.5
8 5 -2 1.97 0.44
-8 -5 2 5.26 0.72
7 5 -2 -0.13 0.09
-7 -5 2 0.04 0.4
5 5 -2 1.17 0.29
-5 -5 2 0.2 0.33
4 5 -2 115.21 6.24
4 5 -2 117.12 5.69
-4 -5 2 102.52 6.26
3 5 -2 0.15 0.19
3 5 -2 -0.08 0.15
2 5 -2 0 0.06
1 5 -2 39.05 2.31
0 5 -2 18.93 1.23
-1 5 -2 36.64 2.17
-2 5 -2 17.74 1.16
-3 5 -2 4.26 0.45
3 -5 2 3.54 0.34
-4 5 -2 0.23 0.2
4 -5 2 0.63 0.21
4 -5 2 0.3 0.17
-5 5 -2 29.04 1.73
5 -5 2 28.48 1.56
5 -5 2 27.4 1.36
-6 5 -2 2.92 0.41
6 -5 2 3.49 0.42
6 -5 2 3.62 0.4
7 -5 2 27.74 1.57
7 -5 2 28.39 1.42
8 -5 2 27.42 1.44
9 -5 2 1.26 0.37
10 -5 2 5.25 0.62
11 -5 2 0.48 0.38
12 -5 2 19.36 1.29
13 -5 2 2.67 0.62
14 -5 2 3.24 0.7
15 4 -2 -0.38 0.47
14 4 -2 8.91 1.07
13 4 -2 8.86 1.03
12 4 -2 1.88 0.55
11 4 -2 23.82 1.61
10 4 -2 0.34 0.35
9 4 -2 5.08 0.64
-9 -4 2 4.55 0.68
8 4 -2 1.93 0.41
-8 -4 2 1.73 0.47
7 4 -2 7.93 0.7
6 4 -2 21.79 1.25
-6 -4 2 18.07 1.38
-5 -4 2 99.33 5.59
-4 -4 2 1.8 0.36
3 4 -2 25.75 1.57
3 4 -2 25.37 1.43
2 4 -2 1.82 0.29
2 4 -2 1.94 0.27
1 4 -2 0.11 0.16
0 4 -2 25.09 1.52
-1 4 -2 5.92 0.49
-2 4 -2 29.76 1.76
-3 4 -2 0.05 0.13
3 -4 2 0.27 0.16
4 -4 2 5.08 0.42
4 -4 2 4.67 0.4
5 -4 2 27.72 1.48
5 -4 2 26.23 1.29
6 -4 2 27.92 1.56
6 -4 2 29.25 1.39
7 -4 2 20.79 1.21
8 -4 2 46.08 2.21
8 -4 2 48.95 2.55
9 -4 2 24.93 1.33
10 -4 2 0.1 0.31
11 -4 2 25.62 1.45
12 -4 2 0.34 0.41
13 -4 2 23.3 1.49
14 -4 2 -0.5 0.43
15 3 -2 6.62 0.92
14 3 -2 1.61 0.61
13 3 -2 0.81 0.5
12 3 -2 25.19 1.7
11 3 -2 1.31 0.44
10 3 -2 40.34 2.33
9 3 -2 0.51 0.3
-9 -3 2 0.25 0.35
8 3 -2 0.47 0.28
-8 -3 2 1.17 0.38
7 3 -2 44.29 2.4
-7 -3 2 42.58 2.61
6 3 -2 26.26 1.18
6 3 -2 26.33 1.54
-6 -3 2 26.83 1.68
5 3 -2 11.43 0.55
5 3 -2 11.11 0.77
4 3 -2 11.34 0.73
-4 -3 2 11.13 0.83
2 3 -2 22.7 1.24
1 3 -2 0.04 0.07
0 3 -2 9.85 0.67
-1 3 -2 34.95 2.01
-2 3 -2 1.89 0.26
-3 3 -2 5.23 0.43
3 -3 2 5.3 0.4
-4 3 -2 118.06 6.34
4 -3 2 113.74 5.78
-5 3 -2 2.67 0.3
5 -3 2 2.49 0.3
5 -3 2 2.33 0.29
-6 3 -2 31.66 1.72
6 -3 2 29.61 1.41
6 -3 2 27.49 1.6
8 -3 2 0.27 0.17
8 -3 2 1.23 0.3
9 -3 2 96.37 4.2
9 -3 2 97.25 4.97
10 -3 2 42.75 2.07
10 -3 2 43.12 2.42
11 -3 2 6.4 0.68
12 -3 2 31.04 1.69
13 -3 2 0.1 0.44
14 -3 2 14.05 1.19
15 -3 2 0.9 0.56
14 2 -2 2.09 0.59
13 2 -2 14.1 1.2
12 2 -2 0.97 0.44
11 2 -2 20.89 1.4
10 2 -2 2.1 0.43
9 2 -2 21.21 1.35
9 2 -2 23.49 1.09
-9 -2 2 19.12 1.45
8 2 -2 21.98 1.07
8 2 -2 24.05 1.37
-8 -2 2 20.22 1.44
7 2 -2 7.35 0.46
7 2 -2 6.74 0.6
-7 -2 2 7.88 0.67
6 2 -2 65.18 3.31
-6 -2 2 61.48 3.6
5 2 -2 22.61 1.37
5 2 -2 22.71 1.07
-5 -2 2 27.73 1.53
4 2 -2 3.08 0.34
4 2 -2 2.7 0.22
3 2 -2 1.5 0.23
1 2 -2 0.01 0.03
0 2 -2 49.33 2.76
-1 2 -2 123.2 6.7
-2 2 -2 14.77 0.89
-3 2 -2 82.44 4.46
3 -2 2 80.82 4.09
-4 2 -2 8.21 0.52
4 -2 2 7.53 0.52
-5 2 -2 83.92 4.45
5 -2 2 78.64 4.1
-6 2 -2 9.8 0.6
6 -2 2 8.33 0.56
6 -2 2 9.46 0.64
7 -2 2 55.48 2.48
7 -2 2 56.67 2.93
8 -2 2 18.78 1.03
8 -2 2 19.01 1.16
9 -2 2 55.84 3.02
9 -2 2 58.31 2.59
10 -2 2 0.67 0.31
10 -2 2 0.43 0.29
11 -2 2 28.47 1.7
11 -2 2 26.89 1.48
12 -2 2 3.9 0.57
13 -2 2 4.94 0.68
14 -2 2 5.02 0.72
15 -2 2 1.95 0.6
13 1 -2 1.29 0.47
12 1 -2 11.36 0.98
11 1 -2 2.96 0.43
11 1 -2 2.69 0.51
10 1 -2 24.24 1.47
10 1 -2 22.06 1.18
9 1 -2 8.74 0.79
9 1 -2 10.85 0.67
-9 -1 2 11.91 0.92
8 1 -2 0.74 0.22
8 1 -2 0.76 0.28
-8 -1 2 0.48 0.32
7 1 -2 47.09 2.55
7 1 -2 48.05 2.08
-7 -1 2 47.69 2.78
6 1 -2 0.22 0.18
6 1 -2 0.28 0.14
-6 -1 2 -0.07 0.2
5 1 -2 90.71 4.04
5 1 -2 105.04 4.94
4 1 -2 0.79 0.14
4 1 -2 0.89 0.19
-4 -1 2 0.47 0.18
3 1 -2 25.35 1.36
3 1 -2 25.62 1.1
-3 -1 2 24.6 1.49
2 1 -2 13.58 0.81
-2 -1 2 16.04 0.93
-1 -1 2 0.01 0.03
0 -1 2 98.13 5.35
-1 1 -2 41.06 2.27
-2 1 -2 98.52 5.44
2 -1 2 102.53 4.98
-3 1 -2 0.07 0.08
3 -1 2 0.31 0.13
-4 1 -2 18.02 1
4 -1 2 17.33 0.99
-5 1 -2 0.04 0.08
5 -1 2 -0.04 0.13
6 -1 2 144.54 7.21
7 -1 2 0.42 0.2
7 -1 2 0.04 0.17
8 -1 2 23.86 1.4
8 -1 2 23.75 1.2
9 -1 2 19.57 1.2
9 -1 2 17.88 1.04
10 -1 2 27.86 1.65
10 -1 2 27.13 1.41
11 -1 2 0.19 0.32
11 -1 2 0.49 0.33
12 -1 2 4.22 0.56
12 -1 2 4.13 0.61
13 -1 2 1.98 0.49
14 -1 2 1.57 0.5
15 -1 2 44.22 2.3
13 0 -2 1.5 0.43
12 0 -2 9.72 0.89
12 0 -2 9 0.77
11 0 -2 14.91 1.08
11 0 -2 14.02 0.91
10 0 -2 1.59 0.34
10 0 -2 1.23 0.36
9 0 -2 3.3 0.39
9 0 -2 3.47 0.47
-9 0 2 3.36 0.56
8 0 -2 62.64 2.77
8 0 -2 64.75 3.35
-8 0 2 64.14 3.66
7 0 -2 2.01 0.27
7 0 -2 2.02 0.32
-7 0 2 1.81 0.33
6 0 -2 31.71 1.44
6 0 -2 32.1 1.74
-5 0 2 29.55 1.75
4 0 -2 33.97 1.76
4 0 -2 32.98 1.46
3 0 -2 4.57 0.34
3 0 -2 4.52 0.29
2 0 -2 4.09 0.26
2 0 -2 3.76 0.29
-2 0 2 4.43 0.35
-1 0 2 0.03 0.03
0 0 2 195.13 10.52
2 0 2 3.2 0.27
2 0 2 2.98 0.22
3 0 2 55.07 2.78
4 0 2 2.48 0.27
5 0 2 89.81 4.52
6 0 2 1.32 0.25
7 0 2 80.94 3.41
7 0 2 79.05 4.09
8 0 2 36.53 1.7
8 0 2 37.26 2.03
9 0 2 2.63 0.36
9 0 2 2.01 0.37
10 0 2 0.2 0.29
10 0 2 0.59 0.26
11 0 2 22.59 1.21
11 0 2 21.88 1.44
12 0 2 0.16 0.34
12 0 2 -0.18 0.31
13 0 2 0.62 0.4
13 0 2 0.05 0.4
14 0 2 13.96 1.06
15 0 2 -0.26 0.41
16 0 2 16.28 1.26
13 -1 -2 12.8 0.97
12 -1 -2 4.68 0.59
11 -1 -2 2 0.42
11 -1 -2 2.74 0.47
10 -1 -2 0.61 0.29
10 -1 -2 0.25 0.27
9 -1 -2 25.39 1.31
9 -1 -2 26.72 1.53
8 -1 -2 0.02 0.19
8 -1 -2 0.27 0.21
-8 1 2 0.04 0.25
7 -1 -2 39.28 2.06
7 -1 -2 39.82 1.74
-7 1 2 35.97 2.26
6 -1 -2 0.84 0.2
6 -1 -2 1.02 0.21
5 -1 -2 55.93 2.34
5 -1 -2 56.31 2.79
-5 1 2 51.04 3.07
4 -1 -2 3.63 0.3
-4 1 2 3.24 0.35
3 -1 -2 13.62 0.74
3 -1 -2 13.23 0.64
-3 1 2 13.05 0.84
2 -1 -2 21.04 0.96
-2 1 2 22.61 1.28
1 -1 -2 82.71 3.39
0 1 2 65.06 3.56
1 1 2 0.58 0.12
3 1 2 17.78 0.98
3 1 2 17.91 0.97
4 1 2 153.25 7.59
5 1 2 11.54 0.72
-6 -1 -2 43.23 2.36
7 1 2 69.05 2.94
7 1 2 68.58 3.56
8 1 2 7.96 0.53
8 1 2 7.67 0.64
9 1 2 97.44 4.87
9 1 2 91.12 4.01
10 1 2 8.32 0.63
10 1 2 8.57 0.77
11 1 2 1.25 0.31
11 1 2 0.17 0.31
12 1 2 1.21 0.37
12 1 2 1.41 0.46
13 1 2 1.02 0.4
13 1 2 1.86 0.52
14 1 2 6.01 0.84
14 1 2 4.59 0.62
15 1 2 5.82 0.87
15 -2 -2 2.41 0.59
14 -2 -2 21.75 1.4
13 -2 -2 -0.79 0.35
12 -2 -2 23.61 1.37
11 -2 -2 0.77 0.37
10 -2 -2 0.79 0.31
9 -2 -2 3.42 0.43
9 -2 -2 4.08 0.46
8 -2 -2 22.86 1.22
8 -2 -2 24.54 1.4
-8 2 2 25.45 1.54
7 -2 -2 9.39 0.63
7 -2 -2 8.87 0.58
-7 2 2 9.15 0.72
6 -2 -2 3.63 0.35
6 -2 -2 3.22 0.32
5 -2 -2 21.3 1.14
5 -2 -2 20.35 1
4 -2 -2 101.18 4.1
4 -2 -2 103.55 4.89
-4 2 2 90.72 5.43
1 -2 -2 154.29 6.5
-1 2 2 164.82 8.65
0 2 2 0.61 0.12
1 2 2 310.03 16.69
2 2 2 34.23 1.73
2 2 2 33.16 1.87
4 2 2 26.28 1.47
-5 -2 -2 211.71 10.66
5 2 2 192.7 10.64
5 2 2 187.36 9.76
-6 -2 -2 15.5 0.93
6 2 2 16.16 0.96
-7 -2 -2 25.88 1.39
7 2 2 21.76 1.38
8 2 2 82.37 4.3
8 2 2 84.22 3.53
9 2 2 1.86 0.38
9 2 2 1.7 0.28
10 2 2 80.33 3.45
10 2 2 79.66 4.21
11 2 2 -0.15 0.24
11 2 2 0.27 0.33
12 2 2 5.17 0.7
12 2 2 4.87 0.54
13 2 2 3.69 0.51
13 2 2 4.01 0.69
14 2 2 1.78 0.61
15 2 2 9.16 1.06
16 2 2 10.05 1.16
15 -3 -2 16.06 1.29
14 -3 -2 0.68 0.49
13 -3 -2 21.46 1.34
12 -3 -2 1.12 0.42
11 -3 -2 29.03 1.56
10 -3 -2 0.37 0.3
9 -3 -2 1.53 0.35
8 -3 -2 9.8 0.67
8 -3 -2 8.58 0.65
-8 3 2 9.87 0.76
7 -3 -2 26.92 1.5
7 -3 -2 26.8 1.34
-7 3 2 29.18 1.7
6 -3 -2 26.58 1.29
6 -3 -2 26.52 1.45
-6 3 2 28.43 1.66
5 -3 -2 41.15 2.08
5 -3 -2 39.89 1.81
-3 3 2 7.46 0.55
2 -3 -2 377.94 15.32
-2 3 2 377.61 20.38
1 -3 -2 0.43 0.12
-1 3 2 0.3 0.15
0 -3 -2 161.12 6.56
1 3 2 20.58 1.2
2 3 2 4.54 0.34
2 3 2 4.48 0.36
3 3 2 283.31 15.19
3 3 2 279.74 13.83
6 3 2 98.36 5.37
6 3 2 98.18 4.99
-7 -3 -2 21.86 1.39
7 3 2 25.22 1.38
-8 -3 -2 0.46 0.2
8 3 2 0.1 0.24
8 3 2 0.18 0.17
9 3 2 38.9 2.19
9 3 2 38.75 1.75
10 3 2 4.22 0.42
10 3 2 3.53 0.55
11 3 2 13.71 1.06
11 3 2 13 0.81
12 3 2 0.27 0.37
13 3 2 0.64 0.48
14 3 2 11.23 1.12
15 3 2 1.06 0.56
16 3 2 3.86 0.83
14 -4 -2 21.53 1.46
13 -4 -2 2.68 0.61
12 -4 -2 7.18 0.77
11 -4 -2 -0.13 0.33
10 -4 -2 3.49 0.51
9 -4 -2 11.98 0.84
8 -4 -2 0.08 0.24
-8 4 2 0.14 0.25
7 -4 -2 25.06 1.29
-7 4 2 26.99 1.63
6 -4 -2 5.63 0.41
6 -4 -2 4.85 0.43
-6 4 2 5.81 0.53
5 -4 -2 4.57 0.32
-5 4 2 4.24 0.45
4 -4 -2 116.84 4.66
-4 4 2 106.41 6.13
3 -4 -2 313.75 12.78
1 -4 -2 264.64 10.62
-1 4 2 257.96 14.15
-1 -4 -2 204.93 8.22
1 4 2 200.71 10.99
1 4 2 202.1 9.95
2 4 2 95.55 4.8
2 4 2 97 5.29
3 4 2 17.99 1.01
4 4 2 113.56 5.85
4 4 2 120.13 6.4
5 4 2 0.53 0.19
5 4 2 0.49 0.18
6 4 2 0.33 0.16
-7 -4 -2 3.84 0.45
7 4 2 5.06 0.48
7 4 2 4.61 0.42
-8 -4 -2 44.24 2.82
8 4 2 51.63 2.14
8 4 2 53.22 2.7
9 4 2 7.3 0.69
9 4 2 6.43 0.46
10 4 2 29.16 1.78
11 4 2 19.06 1.34
12 4 2 0.47 0.43
13 4 2 17.9 1.37
14 4 2 -0.29 0.48
15 4 2 10.32 1.16
16 4 2 0.72 0.63
14 -5 -2 4.06 0.75
13 -5 -2 9.75 0.99
12 -5 -2 0.74 0.46
11 -5 -2 3.86 0.58
10 -5 -2 23.19 1.32
9 -5 -2 1.31 0.37
8 -5 -2 57.8 2.63
-7 5 2 2.25 0.39
-6 5 2 3.58 0.45
5 -5 -2 12.27 0.68
-5 5 2 10.59 0.82
4 -5 -2 1.95 0.27
-4 5 2 2.5 0.35
3 -5 -2 136.22 5.67
-3 5 2 137.63 7.53
2 -5 -2 268.81 11.11
-2 5 2 276.49 14.8
1 -5 -2 0.63 0.15
-1 5 2 0.89 0.22
0 -5 -2 12.4 0.59
0 5 2 11.88 0.67
-1 -5 -2 66.74 2.79
1 5 2 68.77 3.39
1 5 2 67.24 3.78
2 5 2 27.27 1.48
2 5 2 28.34 1.66
4 5 2 0.65 0.2
4 5 2 0.75 0.22
5 5 2 119.79 6.13
5 5 2 123.5 6.69
6 5 2 19.49 1.24
6 5 2 20.22 1.22
7 5 2 71.51 3.01
7 5 2 73.33 4.06
9 5 2 9.08 0.78
10 5 2 0.01 0.31
11 5 2 20.25 1.41
12 5 2 15.66 1.23
13 5 2 1.18 0.53
14 5 2 20.31 1.59
15 5 2 1.23 0.61
16 5 2 5.08 0.92
14 -6 -2 2.27 0.7
13 -6 -2 0.57 0.52
12 -6 -2 1.77 0.55
11 -6 -2 8.92 0.87
10 -6 -2 0.85 0.4
9 -6 -2 53.25 2.5
8 -6 -2 0.41 0.28
7 -6 -2 6.53 0.59
-7 6 2 6.57 0.66
6 -6 -2 10.06 0.69
-6 6 2 11.01 0.84
5 -6 -2 14.35 0.82
-5 6 2 14.55 1.03
4 -6 -2 118.34 4.86
-4 6 2 112.82 6.42
3 -6 -2 11.17 0.64
-3 6 2 11.01 0.82
2 -6 -2 62.98 2.68
-2 6 2 62.32 3.57
1 -6 -2 52.11 2.22
-1 6 2 51.32 2.98
0 -6 -2 46.78 1.99
0 6 2 45.64 2.36
0 6 2 48.03 2.71
-1 -6 -2 0.36 0.11
1 6 2 0.42 0.18
1 6 2 0.39 0.14
2 6 2 44.77 2.6
3 6 2 4.08 0.39
3 6 2 3.96 0.43
4 6 2 35.35 2.08
4 6 2 34.6 1.9
5 6 2 94.09 4.82
5 6 2 94.71 5.27
6 6 2 0.68 0.25
6 6 2 0.44 0.24
7 6 2 24.9 1.59
7 6 2 26.07 1.53
9 6 2 6.88 0.69
10 6 2 0.22 0.33
11 6 2 -0.34 0.35
12 6 2 5.29 0.76
13 6 2 8.71 1.02
14 6 2 1.03 0.6
15 6 2 9.47 1.17
13 -7 -2 3.4 0.75
12 -7 -2 -0.19 0.45
11 -7 -2 6.26 0.76
10 -7 -2 8.84 0.84
9 -7 -2 3.83 0.55
8 -7 -2 0.84 0.35
7 -7 -2 8.01 0.69
-7 7 2 7.09 0.74
6 -7 -2 5.9 0.56
-6 7 2 6.23 0.66
5 -7 -2 17.78 1
-5 7 2 19.12 1.28
4 -7 -2 2.83 0.36
-4 7 2 2.89 0.45
3 -7 -2 133.49 5.53
-3 7 2 131.33 7.35
2 -7 -2 12.32 0.67
-2 7 2 11.62 0.91
1 -7 -2 1.3 0.21
-1 7 2 1.27 0.32
0 -7 -2 0.82 0.16
0 7 2 1.12 0.29
1 7 2 31.59 1.67
2 7 2 2.48 0.39
2 7 2 2.49 0.31
3 7 2 35.41 2.14
3 7 2 35.13 1.91
4 7 2 20.75 1.22
4 7 2 19.69 1.34
5 7 2 5.52 0.58
5 7 2 5.48 0.55
6 7 2 64.86 3.73
6 7 2 65.16 3.45
7 7 2 0.2 0.27
7 7 2 0.45 0.27
8 7 2 27.67 1.71
8 7 2 28.22 1.77
9 7 2 7.7 0.74
9 7 2 8.33 0.79
10 7 2 19.86 1.39
11 7 2 1.26 0.44
12 7 2 9.09 1
13 7 2 2.78 0.65
14 7 2 8.7 1.09
15 7 2 0.01 0.57
12 -8 -2 0.57 0.54
11 -8 -2 1.57 0.54
10 -8 -2 13.19 1.03
9 -8 -2 5.23 0.66
8 -8 -2 2.02 0.45
7 -8 -2 18.09 1.11
-7 8 2 19.31 1.37
6 -8 -2 14.84 0.95
-6 8 2 16.39 1.19
5 -8 -2 0.6 0.29
-5 8 2 0.63 0.33
4 -8 -2 23.89 1.22
-4 8 2 24.42 1.61
3 -8 -2 7.49 0.55
-3 8 2 6.81 0.69
2 -8 -2 11.57 0.68
-2 8 2 11.42 0.92
1 -8 -2 17.63 0.88
-1 8 2 17.12 1.22
0 -8 -2 1.43 0.2
0 8 2 1.48 0.36
-1 -8 -2 4.01 0.29
1 8 2 3.55 0.36
-2 -8 -2 28.15 1.22
2 8 2 28.78 1.79
2 8 2 27.29 1.55
3 8 2 0.09 0.19
3 8 2 0.02 0.23
4 8 2 39.69 2.18
4 8 2 39.5 2.41
5 8 2 25.28 1.47
5 8 2 23.52 1.6
6 8 2 2.29 0.43
6 8 2 2.25 0.43
7 8 2 47.02 2.8
7 8 2 46.06 2.61
8 8 2 2.01 0.46
8 8 2 3.06 0.5
9 8 2 3.18 0.53
9 8 2 3.38 0.59
10 8 2 0.55 0.4
11 8 2 13.87 1.19
12 8 2 7.43 0.93
13 8 2 8.58 1.08
14 8 2 2.48 0.73
15 8 2 0.23 0.61
12 -9 -2 -0.17 0.56
11 -9 -2 4.8 0.78
10 -9 -2 2.19 0.6
9 -9 -2 10.06 0.92
8 -9 -2 5.13 0.66
7 -9 -2 0.39 0.35
6 -9 -2 0.28 0.32
-6 9 2 0.63 0.38
5 -9 -2 54.11 2.42
-5 9 2 50.51 3.15
4 -9 -2 0.33 0.26
-4 9 2 0.49 0.35
3 -9 -2 16.35 0.94
-3 9 2 17.19 1.26
2 -9 -2 14.22 0.8
-2 9 2 13.42 1.08
1 -9 -2 4.5 0.41
-1 9 2 4.24 0.59
0 -9 -2 19.65 0.97
0 9 2 20.5 1.42
3 9 2 11.05 0.81
3 9 2 12.38 0.97
4 9 2 3.78 0.47
4 9 2 3.43 0.55
5 9 2 1.03 0.38
5 9 2 0.64 0.3
6 9 2 31.35 2.06
6 9 2 32.66 1.9
7 9 2 0.34 0.33
7 9 2 0.42 0.33
8 9 2 10.69 0.96
8 9 2 10.18 0.93
9 9 2 -0.16 0.36
9 9 2 0.51 0.37
10 9 2 4.69 0.73
11 9 2 24.28 1.7
12 9 2 3.49 0.71
13 9 2 6.92 0.95
14 9 2 0.48 0.57
11 -10 -2 -0.43 0.52
10 -10 -2 7.14 0.89
9 -10 -2 -0.27 0.48
8 -10 -2 1.04 0.5
7 -10 -2 7.43 0.76
6 -10 -2 7.78 0.75
-6 10 2 7.34 0.89
5 -10 -2 2.24 0.43
-5 10 2 1.6 0.49
4 -10 -2 23.97 1.27
-4 10 2 22.35 1.65
3 -10 -2 -0.01 0.25
-3 10 2 -0.1 0.32
2 -10 -2 10.15 0.7
-2 10 2 11.11 0.97
1 -10 -2 35.39 1.62
-1 10 2 34.12 2.24
0 10 2 0.31 0.35
1 10 2 29.54 1.94
2 10 2 6.31 0.67
3 10 2 16.13 1.24
3 10 2 15.28 1.03
4 10 2 3.8 0.61
4 10 2 3.78 0.5
5 10 2 9.45 0.82
5 10 2 9.93 0.96
6 10 2 2.7 0.51
6 10 2 3.26 0.59
7 10 2 18.78 1.34
7 10 2 18.25 1.41
8 10 2 0.1 0.37
8 10 2 0.13 0.35
9 10 2 4.82 0.71
9 10 2 4.76 0.75
10 10 2 14.58 1.27
11 10 2 1.23 0.56
12 10 2 45.42 2.8
13 10 2 0.06 0.54
14 10 2 0.69 0.64
10 -11 -2 0.13 0.53
9 -11 -2 12.16 1.11
8 -11 -2 0.39 0.48
7 -11 -2 0.25 0.44
6 -11 -2 6.33 0.71
-6 11 2 6.32 0.87
5 -11 -2 11.07 0.88
-5 11 2 10.3 1.07
4 -11 -2 -0.04 0.32
-4 11 2 -0.04 0.39
3 -11 -2 1.28 0.36
-3 11 2 1.26 0.47
2 -11 -2 5.28 0.53
-2 11 2 4.16 0.7
-1 11 2 0.1 0.38
0 11 2 11.98 1.07
1 11 2 0.42 0.38
2 11 2 17.72 1.37
3 11 2 0.56 0.39
3 11 2 0.22 0.27
4 11 2 9.55 0.98
4 11 2 7.63 0.76
5 11 2 1.35 0.42
5 11 2 0.8 0.44
6 11 2 5.13 0.67
6 11 2 4.53 0.72
7 11 2 2.33 0.58
7 11 2 1.61 0.48
8 11 2 2.97 0.64
8 11 2 3.05 0.62
9 11 2 3.93 0.7
9 11 2 3.96 0.7
10 11 2 1.56 0.59
10 11 2 1.39 0.6
11 11 2 3.47 0.77
12 11 2 -0.1 0.53
13 11 2 11.42 1.3
9 -12 -2 0.01 0.55
8 -12 -2 0.59 0.54
7 -12 -2 3.8 0.66
6 -12 -2 0.81 0.46
5 -12 -2 10.84 0.91
-5 12 2 9.9 1.11
4 -12 -2 1.68 0.45
-4 12 2 1.74 0.56
-3 12 2 -0.12 0.41
-2 12 2 -0.09 0.4
-1 12 2 12.38 1.19
0 12 2 0.28 0.43
1 12 2 20.68 1.62
2 12 2 2.72 0.6
3 12 2 3.47 0.68
4 12 2 7.09 0.93
4 12 2 6.98 0.75
5 12 2 -0.03 0.45
5 12 2 0.32 0.37
6 12 2 6.66 0.8
6 12 2 7.12 0.93
7 12 2 2.91 0.67
7 12 2 2.13 0.56
8 12 2 0.29 0.43
8 12 2 0.11 0.47
9 12 2 0.15 0.47
9 12 2 0.93 0.53
10 12 2 0.46 0.54
10 12 2 0.56 0.56
11 12 2 1.24 0.62
12 12 2 4.14 0.87
8 -13 -2 4.54 0.77
7 -13 -2 0.37 0.52
6 -13 -2 6.39 0.79
-5 13 2 -0.03 0.45
-4 13 2 3.36 0.73
-3 13 2 0.54 0.5
-2 13 2 0.03 0.47
-1 13 2 4.74 0.81
0 13 2 30.31 2.19
1 13 2 -0.17 0.41
2 13 2 8.79 1.1
3 13 2 3.37 0.7
4 13 2 1.53 0.58
5 13 2 13.4 1.35
6 13 2 0.13 0.41
6 13 2 -0.02 0.46
7 13 2 3.95 0.71
7 13 2 3.42 0.78
8 13 2 -0.12 0.44
8 13 2 0.38 0.54
9 13 2 -0.43 0.48
9 13 2 -0.46 0.46
10 13 2 4.83 0.86
10 13 2 3.07 0.8
11 13 2 5.92 0.98
-5 14 2 8.65 1.17
-4 14 2 0.15 0.55
-3 14 2 0 0.5
-2 14 2 2.58 0.72
-1 14 2 3.71 0.79
0 14 2 6.86 1.02
1 14 2 6.81 1.01
2 14 2 1.02 0.56
3 14 2 1.08 0.58
4 14 2 6.15 0.98
5 14 2 0.77 0.6
6 14 2 5.12 0.94
7 14 2 1.6 0.61
7 14 2 0.85 0.67
8 14 2 2.49 0.75
8 14 2 1.51 0.6
9 14 2 4.92 0.89
9 14 2 5.76 0.97
10 14 2 0.77 0.62
10 14 2 1.01 0.7
-4 15 2 0.93 0.64
-3 15 2 2.03 0.71
-2 15 2 3.05 0.81
-1 15 2 14.12 1.49
0 15 2 3.35 0.83
1 15 2 8.23 1.16
2 15 2 0.44 0.58
3 15 2 5.98 1
4 15 2 1.58 0.66
5 15 2 7.42 1.11
6 15 2 -0.15 0.62
-5 -13 3 -0.2 0.86
4 13 -3 4.38 0.89
3 13 -3 0.33 0.61
2 13 -3 11.37 1.29
1 13 -3 0.22 0.55
0 13 -3 2.55 0.72
-1 13 -3 0.95 0.58
-2 13 -3 0.09 0.54
-3 13 -3 4.84 0.89
-8 -12 3 1.85 1.01
-7 -12 3 0.36 0.86
-6 -12 3 0.78 0.87
5 12 -3 0.62 0.58
-5 -12 3 2.31 0.95
4 12 -3 4.82 0.88
3 12 -3 10.67 1.26
2 12 -3 0.34 0.53
1 12 -3 7.42 1.01
0 12 -3 0.75 0.55
-1 12 -3 4.6 0.82
-2 12 -3 11.18 1.24
-3 12 -3 2.75 0.71
-10 -11 3 4.3 1.21
-8 -11 3 2.33 0.95
-7 -11 3 -0.06 0.75
-6 -11 3 0.37 0.81
5 11 -3 5.23 0.87
-5 -11 3 4.21 1.04
4 11 -3 4.54 0.81
3 11 -3 1.88 0.59
2 11 -3 17.74 1.49
1 11 -3 0.06 0.46
0 11 -3 12.69 1.26
-1 11 -3 7.6 0.98
-2 11 -3 0.79 0.51
-3 11 -3 14.58 1.34
-4 11 -3 2.11 0.62
7 -11 3 0.54 0.49
8 -11 3 5.82 0.78
11 10 -3 4.02 0.85
10 10 -3 -0.11 0.49
-10 -10 3 0.04 0.88
9 10 -3 15.22 1.3
-9 -10 3 9.29 1.46
-8 -10 3 -0.8 0.7
-7 -10 3 1.83 0.79
-6 -10 3 4.89 0.99
5 10 -3 0.35 0.47
-5 -10 3 2.33 0.76
4 10 -3 6.06 0.86
3 10 -3 7.57 0.95
2 10 -3 2.02 0.56
1 10 -3 5.65 0.82
0 10 -3 13.18 1.23
-1 10 -3 2.6 0.59
-2 10 -3 21.71 1.65
-3 10 -3 0.64 0.46
-4 10 -3 10.31 1.06
5 -10 3 0.21 0.36
6 -10 3 1.29 0.45
7 -10 3 15.07 1.12
8 -10 3 0.95 0.52
9 -10 3 2.34 0.63
10 -10 3 0.34 0.53
12 9 -3 0.53 0.58
11 9 -3 0.26 0.49
10 9 -3 7.53 0.97
-10 -9 3 6.67 1.21
9 9 -3 0.65 0.5
-9 -9 3 0.4 0.77
8 9 -3 25.37 1.61
-8 -9 3 16.29 1.86
-7 -9 3 0.48 0.67
-6 -9 3 3.33 0.82
-5 -9 3 4.12 0.85
4 9 -3 0.92 0.45
3 9 -3 13.47 1.15
2 9 -3 0.09 0.37
1 9 -3 0.53 0.41
0 9 -3 0.84 0.43
-1 9 -3 1.42 0.48
-2 9 -3 -0.01 0.37
-3 9 -3 38.36 2.47
3 -9 3 39.38 1.86
-4 9 -3 7.84 0.87
4 -9 3 7.56 0.65
-5 9 -3 2.65 0.56
5 -9 3 3.17 0.48
6 -9 3 12.84 0.94
7 -9 3 9.33 0.84
8 -9 3 33.84 1.82
9 -9 3 0.7 0.49
10 -9 3 -0.19 0.49
11 -9 3 3.04 0.72
13 8 -3 0.42 0.57
12 8 -3 0.21 0.52
11 8 -3 4.28 0.77
10 8 -3 3.52 0.68
-10 -8 3 1.35 0.81
9 8 -3 16.22 1.3
-9 -8 3 17.26 1.73
8 8 -3 1.05 0.47
-8 -8 3 1.92 0.79
-7 -8 3 6.72 1.03
6 8 -3 4.09 0.64
-6 -8 3 5.48 0.88
-5 -8 3 2.69 0.7
4 8 -3 29.45 1.98
3 8 -3 0.31 0.31
2 8 -3 12.68 1.06
1 8 -3 0.93 0.38
0 8 -3 2.26 0.49
-1 8 -3 2.02 0.47
-2 8 -3 25.07 1.71
2 -8 3 25.45 1.25
-3 8 -3 0.08 0.31
3 -8 3 0.12 0.24
-4 8 -3 45.78 2.8
4 -8 3 45.9 2.12
-5 8 -3 18.64 1.39
5 -8 3 19.99 1.11
6 -8 3 0.2 0.34
7 -8 3 0.15 0.38
8 -8 3 5.48 0.69
9 -8 3 24.76 1.48
10 -8 3 -0.37 0.47
11 -8 3 -0.17 0.49
12 -8 3 3.48 0.75
13 7 -3 0.39 0.53
12 7 -3 -0.04 0.52
11 7 -3 3.68 0.71
10 7 -3 3.13 0.65
-10 -7 3 5.93 1
9 7 -3 2.79 0.57
-9 -7 3 0.78 0.65
8 7 -3 5.57 0.73
-8 -7 3 6.21 0.99
-7 -7 3 2 0.68
6 7 -3 0.25 0.32
-6 -7 3 0.09 0.52
5 7 -3 35.13 2.11
-5 -7 3 37.16 2.43
4 7 -3 6.45 0.72
-4 -7 3 3.25 0.66
3 7 -3 -0.03 0.12
2 7 -3 0.26 0.2
1 7 -3 1.04 0.35
0 7 -3 48.68 2.86
0 -7 3 46.37 2.05
-1 7 -3 38.9 2.39
1 -7 3 38.91 1.74
-2 7 -3 54.82 3.17
2 -7 3 52.25 2.34
-3 7 -3 4.86 0.59
3 -7 3 3.78 0.4
-4 7 -3 13.1 0.99
4 -7 3 12.25 0.78
4 -7 3 12.02 0.85
-5 7 -3 11.44 0.94
5 -7 3 11.97 0.79
6 -7 3 8.6 0.72
7 -7 3 11.36 0.83
8 -7 3 1.2 0.42
9 -7 3 1.9 0.5
10 -7 3 10.83 0.97
11 -7 3 13.18 1.1
12 -7 3 -0.08 0.52
14 6 -3 0.24 0.56
13 6 -3 1.37 0.6
12 6 -3 9.72 1.1
11 6 -3 1.65 0.56
10 6 -3 22.1 1.55
-10 -6 3 21.45 1.8
9 6 -3 1.5 0.48
-9 -6 3 1.56 0.67
8 6 -3 22.92 1.41
-8 -6 3 16.28 1.55
7 6 -3 5.52 0.68
-7 -6 3 6.23 0.88
6 6 -3 19.78 1.39
-6 -6 3 25.32 1.69
5 6 -3 0.03 0.25
-5 -6 3 0.6 0.44
-4 -6 3 83.67 4.87
3 6 -3 0.04 0.12
2 6 -3 20.25 1.36
1 6 -3 18.35 1.27
0 6 -3 10.53 0.85
-1 6 -3 178.11 9.81
-2 6 -3 9.8 0.81
-3 6 -3 56.24 3.37
3 -6 3 60.62 2.56
-4 6 -3 0.35 0.25
4 -6 3 0.61 0.24
4 -6 3 0.34 0.23
-5 6 -3 31.53 1.91
5 -6 3 30.23 1.72
5 -6 3 30.5 1.5
6 -6 3 4.74 0.51
6 -6 3 4.52 0.5
7 -6 3 17.6 1.05
8 -6 3 9.62 0.81
9 -6 3 0.78 0.42
10 -6 3 30.09 1.65
11 -6 3 -0.14 0.4
12 -6 3 22.29 1.44
13 -6 3 0.18 0.55
14 5 -3 4.64 0.85
13 5 -3 6.32 0.91
12 5 -3 1.86 0.58
11 5 -3 38.79 2.36
10 5 -3 0.23 0.35
-10 -5 3 -0.03 0.51
9 5 -3 50.93 2.81
-9 -5 3 47.72 3.12
8 5 -3 0.53 0.32
-8 -5 3 0.21 0.47
7 5 -3 15.4 1.11
-6 -5 3 4.89 0.71
-4 -5 3 3.73 0.56
3 5 -3 113.39 6.04
-3 -5 3 101.86 6.07
2 5 -3 0.71 0.19
1 5 -3 0.49 0.24
0 5 -3 43.95 2.59
-1 5 -3 34.7 2.09
-2 5 -3 83.59 4.69
-3 5 -3 3.4 0.43
-4 5 -3 2.37 0.35
4 -5 3 1.86 0.32
-5 5 -3 7.82 0.67
5 -5 3 8.64 0.6
5 -5 3 8.87 0.64
-6 5 -3 46.77 2.77
6 -5 3 46.69 2.17
6 -5 3 48.09 2.52
7 -5 3 4.01 0.49
7 -5 3 4.52 0.49
8 -5 3 2.1 0.42
9 -5 3 0.7 0.35
10 -5 3 0.34 0.34
11 -5 3 24.68 1.47
12 -5 3 0.63 0.45
13 -5 3 13.03 1.14
14 -5 3 0.06 0.53
14 4 -3 5.65 0.88
13 4 -3 2 0.59
12 4 -3 12.35 1.09
11 4 -3 -0.16 0.36
10 4 -3 38.17 2.32
-10 -4 3 41.19 2.59
9 4 -3 2.2 0.48
-9 -4 3 2.94 0.6
8 4 -3 0.25 0.29
-8 -4 3 0.13 0.43
7 4 -3 58.04 3.14
-7 -4 3 58.09 3.48
6 4 -3 27.99 1.74
-6 -4 3 32.71 2
-5 -4 3 33.09 2.09
-3 -4 3 0.56 0.29
2 4 -3 0.05 0.06
-2 -4 3 0.05 0.07
1 4 -3 63.1 3.58
0 4 -3 42.81 2.49
-1 4 -3 73.33 4.12
-2 4 -3 8.9 0.66
-3 4 -3 10.83 0.75
3 -4 3 10.24 0.69
-4 4 -3 93.63 4.99
4 -4 3 86.23 4.54
-5 4 -3 1.11 0.23
5 -4 3 1.29 0.26
6 -4 3 16.38 1.04
6 -4 3 17.98 0.95
7 -4 3 39.09 1.81
7 -4 3 36.73 2.06
8 -4 3 0.13 0.24
8 -4 3 0.11 0.26
9 -4 3 40.31 2.26
9 -4 3 40.09 1.96
10 -4 3 15.01 0.99
11 -4 3 0.45 0.37
12 -4 3 30.18 1.69
13 -4 3 0.45 0.47
14 -4 3 13.23 1.18
15 3 -3 0.41 0.54
14 3 -3 0.71 0.5
13 3 -3 5.12 0.75
12 3 -3 0.97 0.45
11 3 -3 30.53 1.89
10 3 -3 1.86 0.45
-10 -3 3 1.73 0.52
9 3 -3 23.68 1.47
-9 -3 3 21.88 1.6
8 3 -3 51.99 2.9
-8 -3 3 54.7 3.2
7 3 -3 9.39 0.72
-7 -3 3 7.16 0.8
6 3 -3 99.42 4.71
-6 -3 3 82.86 5.14
5 3 -3 1.18 0.27
-5 -3 3 1.99 0.42
-4 -3 3 10.79 0.85
-1 -3 3 3.8 0.45
0 3 -3 30.56 1.8
-1 3 -3 0.01 0.11
-3 3 -3 60.32 3.61
3 -3 3 69.78 3.32
-4 3 -3 60.78 3.36
4 -3 3 59.71 3.1
-5 3 -3 118.11 6.43
5 -3 3 117.12 5.9
-6 3 -3 0.99 0.19
6 -3 3 0.92 0.24
8 -3 3 16.36 1.05
9 -3 3 5.24 0.57
9 -3 3 5.64 0.6
10 -3 3 32.72 1.7
10 -3 3 34.08 1.95
11 -3 3 19.59 1.2
12 -3 3 -0.02 0.4
13 -3 3 15.49 1.18
14 -3 3 2.41 0.62
15 -3 3 1.05 0.6
14 2 -3 0.05 0.44
13 2 -3 1.32 0.49
12 2 -3 8.86 0.91
11 2 -3 3.89 0.62
10 2 -3 18.39 1.27
9 2 -3 16.87 1.22
-9 -2 3 19.76 1.39
8 2 -3 11.42 0.84
8 2 -3 11.53 0.64
-8 -2 3 8.75 0.88
7 2 -3 124.23 4.98
7 2 -3 121.2 6.08
-7 -2 3 113.1 6.66
6 2 -3 0.11 0.12
6 2 -3 0.13 0.19
-6 -2 3 -0.11 0.24
5 2 -3 39.74 2.12
5 2 -3 39.29 1.7
-5 -2 3 38.35 2.34
4 2 -3 1.13 0.23
-4 -2 3 1.32 0.3
3 2 -3 4.24 0.37
-1 -2 3 98.54 5.44
0 -2 3 0.18 0.16
-1 2 -3 1.91 0.25
-2 2 -3 7.59 0.53
-3 2 -3 2.96 0.28
3 -2 3 3.13 0.33
-4 2 -3 16.78 0.99
4 -2 3 16.07 0.96
-5 2 -3 0.68 0.15
5 -2 3 0.74 0.2
-6 2 -3 101.67 5.49
6 -2 3 100.15 5.1
7 -2 3 1.7 0.32
8 -2 3 4.56 0.48
8 -2 3 5.01 0.53
9 -2 3 1.87 0.37
9 -2 3 2 0.38
10 -2 3 8.2 0.77
10 -2 3 9.5 0.74
11 -2 3 24.39 1.57
11 -2 3 25.51 1.39
12 -2 3 17.01 1.14
13 -2 3 -0.6 0.36
14 -2 3 1.69 0.53
15 -2 3 6.07 0.82
13 1 -3 -0.03 0.38
12 1 -3 4.89 0.68
11 1 -3 0.39 0.36
10 1 -3 0.36 0.31
10 1 -3 0.58 0.26
9 1 -3 0 0.21
9 1 -3 0.14 0.26
-9 -1 3 -0.31 0.35
8 1 -3 42.04 2.41
8 1 -3 43.43 1.97
-8 -1 3 47.1 2.69
7 1 -3 -0.02 0.2
7 1 -3 0.09 0.16
-7 -1 3 0.2 0.28
6 1 -3 138.38 6.88
6 1 -3 147.03 5.67
-6 -1 3 125.26 7.54
5 1 -3 13.43 0.84
-5 -1 3 13.55 0.94
4 1 -3 36.19 1.56
4 1 -3 34.86 1.9
-4 -1 3 36.43 2.1
3 1 -3 30.32 1.61
-2 -1 3 0.1 0.1
0 -1 3 1.33 0.22
1 -1 3 3.12 0.3
2 -1 3 20.97 1.22
3 -1 3 79.54 4.11
3 -1 3 84.12 4.47
4 -1 3 18.11 1.03
5 -1 3 68.46 3.5
6 -1 3 0.8 0.22
7 -1 3 72.32 3.73
8 -1 3 10.71 0.69
8 -1 3 10.42 0.78
9 -1 3 3.35 0.43
9 -1 3 3.15 0.46
10 -1 3 73.78 4.02
10 -1 3 79.54 3.41
11 -1 3 0.21 0.32
11 -1 3 -0.03 0.32
12 -1 3 5.43 0.7
12 -1 3 5.75 0.66
13 -1 3 4.38 0.72
13 -1 3 4.85 0.65
14 -1 3 6.24 0.76
15 -1 3 -0.77 0.45
12 0 -3 0.22 0.32
12 0 -3 0.74 0.4
11 0 -3 6.22 0.6
11 0 -3 5.68 0.69
10 0 -3 2.36 0.43
10 0 -3 1.82 0.36
9 0 -3 22.13 1.15
9 0 -3 21.41 1.36
-9 0 3 23.07 1.53
8 0 -3 2.97 0.36
8 0 -3 1.98 0.36
-8 0 3 2.54 0.46
7 0 -3 73.78 3.9
7 0 -3 76.41 3.23
-7 0 3 76.31 4.3
6 0 -3 26.4 1.24
6 0 -3 27.4 1.51
-6 0 3 26.6 1.68
5 0 -3 171.06 6.65
5 0 -3 168.02 8.03
-5 0 3 145.67 8.84
4 0 -3 4.97 0.32
3 0 -3 55.32 2.28
3 0 -3 52.68 2.74
-2 0 3 43.73 2.47
0 0 3 6.35 0.45
1 0 3 0.35 0.13
2 0 3 30.66 1.57
2 0 3 29.03 1.67
3 0 3 101.1 5.7
3 0 3 110.28 5.26
4 0 3 8.96 0.59
5 0 3 3.73 0.37
6 0 3 84.47 4.3
7 0 3 33.93 1.87
8 0 3 24.66 1.46
9 0 3 84.01 3.72
9 0 3 88.25 4.47
10 0 3 23.54 1.27
10 0 3 24.17 1.49
11 0 3 36.16 2.15
11 0 3 37.53 1.82
12 0 3 0.7 0.37
12 0 3 0.66 0.39
13 0 3 1.85 0.48
14 0 3 0.57 0.47
14 0 3 0.86 0.46
15 0 3 15.66 1.19
16 0 3 8.12 0.9
13 -1 -3 1.71 0.48
12 -1 -3 26.97 1.49
11 -1 -3 -0.25 0.29
10 -1 -3 0.98 0.32
10 -1 -3 0.63 0.29
9 -1 -3 17.33 0.97
9 -1 -3 17.32 1.11
-9 1 3 16.52 1.24
8 -1 -3 38.83 2.1
8 -1 -3 38.26 1.78
-8 1 3 38.12 2.34
7 -1 -3 18.92 1.07
7 -1 -3 18.26 0.93
-7 1 3 15.67 1.19
6 -1 -3 12.96 0.71
6 -1 -3 11.28 0.79
-6 1 3 14.26 0.94
5 -1 -3 15.16 0.91
5 -1 -3 15.61 0.8
-5 1 3 16.54 1.06
4 -1 -3 3.83 0.32
4 -1 -3 4.64 0.34
3 -1 -3 1.08 0.16
3 -1 -3 0.64 0.15
-3 1 3 1.47 0.26
2 -1 -3 0.54 0.14
-2 1 3 0.5 0.19
-1 1 3 -0.02 0.03
0 1 3 0.9 0.18
1 1 3 171.59 8.45
1 1 3 172.1 9.29
3 1 3 0.82 0.13
3 1 3 0.55 0.13
4 1 3 74.64 3.77
5 1 3 19.5 1.12
6 1 3 1.39 0.27
7 1 3 2.68 0.36
8 1 3 93.75 4.81
9 1 3 1.39 0.29
9 1 3 1.5 0.35
10 1 3 8 0.73
10 1 3 7.3 0.61
11 1 3 0.43 0.36
11 1 3 0.64 0.31
12 1 3 13.85 1.11
12 1 3 14.12 0.94
13 1 3 5.69 0.65
13 1 3 6.3 0.8
14 1 3 3.36 0.69
14 1 3 4.17 0.6
15 1 3 17.91 1.46
15 1 3 16.14 1.19
15 -2 -3 5.69 0.76
14 -2 -3 0.12 0.43
13 -2 -3 41.67 2.13
12 -2 -3 0.99 0.41
11 -2 -3 17.58 1.1
10 -2 -3 28.74 1.49
9 -2 -3 1.56 0.32
9 -2 -3 1.6 0.35
8 -2 -3 53.68 2.44
8 -2 -3 58.35 2.86
-8 2 3 50.3 3.18
7 -2 -3 1.25 0.27
7 -2 -3 1.07 0.24
-7 2 3 0.61 0.28
6 -2 -3 23.36 1.28
6 -2 -3 22.68 1.13
-6 2 3 23.51 1.5
5 -2 -3 8 0.53
5 -2 -3 7.87 0.52
-5 2 3 8.59 0.68
4 -2 -3 1.3 0.17
4 -2 -3 1.38 0.21
3 -2 -3 7.93 0.42
-3 2 3 5.23 0.51
-2 2 3 53 2.99
1 -2 -3 -0.12 0.02
0 2 3 8.97 0.62
1 2 3 697.46 36.47
1 2 3 657.33 33.13
2 2 3 1.82 0.2
2 2 3 1.51 0.19
3 2 3 219.03 11.8
5 2 3 139.48 7.03
5 2 3 142.53 7.61
6 2 3 15.75 0.97
7 2 3 33.16 1.84
8 2 3 5.25 0.56
9 2 3 66.03 2.92
9 2 3 68.51 3.57
10 2 3 0.24 0.24
10 2 3 0.41 0.31
11 2 3 6.13 0.74
11 2 3 6.81 0.6
12 2 3 8.05 0.69
12 2 3 7.93 0.86
13 2 3 0.45 0.45
13 2 3 0.4 0.35
14 2 3 20.62 1.51
14 2 3 18.37 1.19
15 2 3 1.56 0.68
16 2 3 4.39 0.86
14 -3 -3 10.71 1.01
13 -3 -3 0.16 0.39
12 -3 -3 39.35 2.02
11 -3 -3 6.56 0.7
10 -3 -3 4.42 0.55
9 -3 -3 34.43 1.71
8 -3 -3 -0.18 0.23
-8 3 3 -0.12 0.26
7 -3 -3 39.42 2.04
7 -3 -3 36.47 1.79
-7 3 3 39.24 2.31
6 -3 -3 0.38 0.15
6 -3 -3 0.53 0.22
-6 3 3 0.43 0.25
5 -3 -3 26.37 1.3
5 -3 -3 28.16 1.45
-5 3 3 28.06 1.69
4 -3 -3 3.16 0.31
4 -3 -3 3.05 0.24
-4 3 3 3.12 0.36
3 -3 -3 0 0.05
-3 3 3 -0.04 0.11
1 -3 -3 52.09 2.08
-1 3 3 46.09 2.75
0 3 3 125.97 6.87
1 3 3 12.35 0.66
1 3 3 10.99 0.74
2 3 3 15.25 0.92
2 3 3 15.35 0.85
3 3 3 21.39 1.24
3 3 3 20.99 1.16
4 3 3 116.51 6.33
6 3 3 58.8 3.09
6 3 3 59.95 3.27
-7 -3 -3 27.85 1.78
7 3 3 37.29 1.81
8 3 3 25.32 1.51
9 3 3 0.6 0.31
9 3 3 0.48 0.21
10 3 3 39.35 1.84
10 3 3 40.67 2.29
11 3 3 1.07 0.3
11 3 3 0.87 0.4
12 3 3 1.59 0.49
12 3 3 1.04 0.34
13 3 3 23.78 1.67
14 3 3 0.42 0.53
15 3 3 12.2 1.25
16 3 3 0.45 0.61
14 -4 -3 4.17 0.73
13 -4 -3 2.05 0.54
12 -4 -3 1.73 0.51
11 -4 -3 15.82 1.09
10 -4 -3 10.71 0.86
9 -4 -3 5.17 0.57
8 -4 -3 52.42 2.45
-8 4 3 54.81 3.15
7 -4 -3 0.39 0.26
-7 4 3 0.29 0.27
6 -4 -3 27.09 1.44
6 -4 -3 27.85 1.32
-6 4 3 25.46 1.66
5 -4 -3 11.92 0.66
5 -4 -3 10.59 0.66
-5 4 3 12.11 0.86
3 -4 -3 212.58 8.77
-3 4 3 214.91 11.63
1 -4 -3 0.53 0.14
1 4 3 19.98 1.2
1 4 3 19.61 1.04
2 4 3 0.21 0.13
2 4 3 0.29 0.15
3 4 3 206.78 11.21
4 4 3 20.15 1.18
4 4 3 18.96 1.11
5 4 3 70.68 3.65
5 4 3 71.44 3.93
6 4 3 115.64 6.32
8 4 3 13.58 0.94
9 4 3 6.92 0.66
9 4 3 5.46 0.45
10 4 3 11.82 0.94
10 4 3 11.3 0.69
11 4 3 1.04 0.41
12 4 3 4.5 0.7
13 4 3 -0.05 0.46
14 4 3 22.95 1.68
15 4 3 0.36 0.56
16 4 3 5.65 0.93
14 -5 -3 0.69 0.56
13 -5 -3 5.78 0.78
12 -5 -3 0.59 0.45
11 -5 -3 12.61 0.97
10 -5 -3 0.94 0.39
9 -5 -3 24.09 1.35
8 -5 -3 15.2 0.95
-8 5 3 15.32 1.12
-7 5 3 42.75 2.55
-6 5 3 2.23 0.4
5 -5 -3 1.29 0.25
-5 5 3 1.39 0.31
4 -5 -3 107.24 4.45
-4 5 3 103.83 5.86
3 -5 -3 36.74 1.7
-3 5 3 39.12 2.24
2 -5 -3 267.79 11.13
-2 5 3 277.85 14.81
1 -5 -3 0.45 0.15
-1 5 3 0.62 0.21
0 -5 -3 1.04 0.16
1 5 3 0.49 0.19
1 5 3 0.6 0.14
2 5 3 153.31 8.39
2 5 3 153.56 7.59
4 5 3 86.05 4.38
4 5 3 86.64 4.79
5 5 3 0.38 0.18
5 5 3 0.6 0.21
6 5 3 39.77 2.15
6 5 3 39.05 2.27
7 5 3 133.68 6.77
7 5 3 133.59 7.32
8 5 3 0.2 0.2
8 5 3 -0.06 0.07
9 5 3 2.21 0.37
10 5 3 10.55 0.92
11 5 3 15.16 1.17
12 5 3 5.25 0.77
13 5 3 18.78 1.45
14 5 3 2.1 0.63
15 5 3 4.75 0.84
16 5 3 1.99 0.73
13 -6 -3 -0.12 0.5
12 -6 -3 0.06 0.43
11 -6 -3 0.35 0.41
10 -6 -3 27.15 1.52
9 -6 -3 6.36 0.67
8 -6 -3 14.52 0.94
-8 6 3 14.9 1.18
7 -6 -3 1.68 0.35
-7 6 3 1.5 0.38
-6 6 3 4.67 0.57
5 -6 -3 28.25 1.35
-5 6 3 26.29 1.71
4 -6 -3 4.53 0.42
-4 6 3 3.99 0.51
3 -6 -3 118.41 4.92
-3 6 3 116.82 6.53
2 -6 -3 0.69 0.19
-2 6 3 0.64 0.25
1 -6 -3 136.42 5.77
-1 6 3 143.35 7.71
0 -6 -3 31 1.36
0 6 3 30.7 1.58
-1 -6 -3 31.51 1.37
1 6 3 31.05 1.64
1 6 3 32.1 1.89
2 6 3 6.31 0.47
2 6 3 6.88 0.57
3 6 3 31.52 1.88
3 6 3 30.97 1.69
4 6 3 0.05 0.18
4 6 3 0.05 0.16
5 6 3 2.83 0.38
5 6 3 2.87 0.38
6 6 3 29.21 1.76
6 6 3 28.89 1.67
7 6 3 1.5 0.3
7 6 3 1.18 0.34
8 6 3 35.91 2.05
9 6 3 -0.16 0.27
10 6 3 2.31 0.49
11 6 3 0.34 0.39
12 6 3 8.09 0.93
13 6 3 8.56 1
14 6 3 2.85 0.7
15 6 3 -0.12 0.57
16 6 3 1.92 0.74
13 -7 -3 2.26 0.67
12 -7 -3 8.88 0.94
11 -7 -3 1.07 0.49
10 -7 -3 12.94 0.99
9 -7 -3 10.05 0.84
8 -7 -3 21.8 1.25
7 -7 -3 2.53 0.43
-7 7 3 1.9 0.44
6 -7 -3 32.66 1.61
-6 7 3 32.24 2.05
5 -7 -3 9.71 0.68
-5 7 3 9.59 0.83
4 -7 -3 95.86 4.07
-4 7 3 94.51 5.37
3 -7 -3 -0.09 0.17
-3 7 3 0.06 0.23
2 -7 -3 97.89 4.08
-2 7 3 95.74 5.44
1 -7 -3 66.78 2.84
-1 7 3 66.78 3.82
0 -7 -3 2.04 0.23
0 7 3 2.19 0.23
0 7 3 3.01 0.41
-1 -7 -3 22.79 1
1 7 3 21.25 1.41
1 7 3 21.54 1.19
2 7 3 17.08 1.15
3 7 3 1.47 0.32
3 7 3 1.44 0.27
4 7 3 1.75 0.31
4 7 3 2.07 0.37
5 7 3 47.58 2.85
5 7 3 50.32 2.63
6 7 3 23.69 1.46
6 7 3 25.29 1.57
7 7 3 31.84 1.97
7 7 3 32.98 1.89
8 7 3 11.83 0.93
8 7 3 11.89 0.91
9 7 3 28.5 1.76
10 7 3 1.61 0.46
11 7 3 0.18 0.36
12 7 3 0.99 0.48
13 7 3 0.15 0.48
14 7 3 3.37 0.75
15 7 3 -0.11 0.58
12 -8 -3 1.83 0.6
11 -8 -3 18.09 1.27
10 -8 -3 3.25 0.61
9 -8 -3 11.81 0.95
8 -8 -3 4.56 0.6
7 -8 -3 9.03 0.78
-7 8 3 8.65 0.87
6 -8 -3 3.98 0.52
-6 8 3 4.53 0.63
5 -8 -3 53.18 2.43
-5 8 3 52.95 3.17
4 -8 -3 4.68 0.48
-4 8 3 5.26 0.64
3 -8 -3 53.93 2.37
-3 8 3 52.37 3.14
2 -8 -3 0.78 0.24
-2 8 3 1.04 0.34
1 -8 -3 1.55 0.24
-1 8 3 1.2 0.35
0 -8 -3 144.08 5.91
0 8 3 139.42 7.07
0 8 3 146.09 7.96
2 8 3 19.81 1.33
2 8 3 19.47 1.14
3 8 3 18.35 1.1
3 8 3 18.02 1.26
4 8 3 5.65 0.54
4 8 3 5.24 0.6
5 8 3 4.75 0.54
5 8 3 4.77 0.6
6 8 3 23.93 1.5
6 8 3 25.35 1.62
7 8 3 14.68 1.05
7 8 3 14.79 1.09
8 8 3 26.58 1.73
8 8 3 26.74 1.67
9 8 3 6.39 0.76
9 8 3 7.24 0.71
10 8 3 15.72 1.21
11 8 3 6.03 0.8
12 8 3 3.76 0.69
13 8 3 12.98 1.21
14 8 3 0 0.55
15 8 3 1 0.66
12 -9 -3 4.38 0.79
11 -9 -3 0.18 0.48
10 -9 -3 12.52 1.09
9 -9 -3 0.47 0.45
8 -9 -3 1.28 0.46
7 -9 -3 14.72 1.01
-7 9 3 14.67 1.21
6 -9 -3 0.46 0.35
-6 9 3 0.37 0.38
5 -9 -3 16.39 1.01
-5 9 3 15.79 1.24
4 -9 -3 9.98 0.72
-4 9 3 9.72 0.92
3 -9 -3 1.42 0.32
-3 9 3 1.35 0.4
2 -9 -3 0.44 0.22
-2 9 3 0.26 0.3
1 -9 -3 26.4 1.26
-1 9 3 26.13 1.74
0 -9 -3 0.7 0.2
0 9 3 0.66 0.33
-1 -9 -3 76.58 3.21
1 9 3 75.81 3.87
2 9 3 0.18 0.19
2 9 3 0.03 0.21
3 9 3 10.83 0.92
3 9 3 11.16 0.79
4 9 3 7.93 0.77
4 9 3 6.91 0.63
5 9 3 4.53 0.63
5 9 3 4.91 0.58
6 9 3 20.78 1.46
6 9 3 20.95 1.36
7 9 3 2.73 0.51
7 9 3 2.33 0.48
8 9 3 3.26 0.56
8 9 3 2.85 0.51
9 9 3 9.58 0.89
9 9 3 8.42 0.88
10 9 3 10.43 1
11 9 3 4.14 0.72
12 9 3 7.87 0.98
13 9 3 1.36 0.59
14 9 3 6.27 0.97
15 9 3 0.74 0.66
11 -10 -3 10.76 1.1
10 -10 -3 1.43 0.6
9 -10 -3 5.4 0.76
8 -10 -3 0.57 0.48
7 -10 -3 4.65 0.64
6 -10 -3 35.81 1.78
-6 10 3 33.22 2.27
5 -10 -3 6.73 0.66
-5 10 3 7.09 0.86
4 -10 -3 17.69 1.04
-4 10 3 16.41 1.33
3 -10 -3 0.12 0.25
-3 10 3 0.02 0.33
2 -10 -3 8.17 0.62
-2 10 3 8.5 0.85
1 -10 -3 2.17 0.32
-1 10 3 2.12 0.49
0 -10 -3 17.81 0.9
0 10 3 17.35 1.31
1 10 3 0.24 0.18
2 10 3 11.35 0.94
3 10 3 0.4 0.34
3 10 3 0.65 0.26
4 10 3 1.31 0.43
4 10 3 1.3 0.34
5 10 3 40.06 2.51
5 10 3 39.79 2.27
6 10 3 10.58 0.89
6 10 3 10.04 0.98
7 10 3 10.8 0.93
7 10 3 9.88 0.95
8 10 3 1.26 0.45
8 10 3 1.45 0.47
9 10 3 -0.14 0.37
9 10 3 0.01 0.37
10 10 3 1.2 0.53
11 10 3 16.81 1.38
12 10 3 1.22 0.58
13 10 3 1.73 0.64
14 10 3 1.61 0.67
10 -11 -3 4.88 0.81
9 -11 -3 0.85 0.53
8 -11 -3 0.45 0.5
7 -11 -3 22.12 1.39
6 -11 -3 2.06 0.49
-6 11 3 1.24 0.52
5 -11 -3 21.44 1.31
-5 11 3 23.39 1.7
4 -11 -3 0.05 0.33
-4 11 3 0.29 0.42
3 -11 -3 2.62 0.42
-3 11 3 2.17 0.57
2 -11 -3 0.51 0.29
-2 11 3 0.58 0.42
-1 11 3 4.84 0.71
0 11 3 0.57 0.41
1 11 3 19.77 1.47
2 11 3 3.3 0.58
3 11 3 3.19 0.6
3 11 3 3.03 0.45
4 11 3 13.42 1.17
4 11 3 11.71 0.92
5 11 3 5.44 0.65
5 11 3 5.9 0.8
6 11 3 20.51 1.55
6 11 3 20.09 1.39
7 11 3 7.71 0.86
7 11 3 6.86 0.88
8 11 3 4.01 0.69
8 11 3 4.4 0.69
9 11 3 -0.16 0.4
9 11 3 0.22 0.44
10 11 3 4.35 0.75
11 11 3 6.4 0.9
12 11 3 17.46 1.51
13 11 3 1.92 0.72
9 -12 -3 4.34 0.78
8 -12 -3 0.93 0.57
7 -12 -3 0.68 0.5
6 -12 -3 16.51 1.19
-6 12 3 15.83 1.44
5 -12 -3 0.82 0.43
-5 12 3 0.81 0.5
4 -12 -3 8.7 0.77
-4 12 3 9.19 1
3 -12 -3 8.8 0.75
-3 12 3 8.34 1.01
-2 12 3 0.41 0.46
-1 12 3 7.18 0.92
0 12 3 7.22 0.92
1 12 3 -0.38 0.35
2 12 3 5.6 0.8
3 12 3 14.14 1.26
4 12 3 0.71 0.49
5 12 3 8.87 1.05
5 12 3 9.27 0.87
6 12 3 0.09 0.35
6 12 3 -0.14 0.4
7 12 3 5.5 0.83
7 12 3 6.31 0.8
8 12 3 0.23 0.46
8 12 3 0.21 0.44
9 12 3 0 0.48
9 12 3 0.4 0.49
10 12 3 15.32 1.37
11 12 3 3.55 0.79
12 12 3 1.56 0.68
8 -13 -3 0.64 0.56
7 -13 -3 3.84 0.66
6 -13 -3 0.3 0.45
5 -13 -3 11.92 1.02
-5 13 3 12.78 1.29
-4 13 3 3.74 0.74
-3 13 3 1.28 0.57
-2 13 3 17.14 1.47
-1 13 3 4.95 0.84
0 13 3 5.33 0.85
1 13 3 5.17 0.83
2 13 3 2.21 0.64
3 13 3 0.77 0.53
4 13 3 6.91 0.98
5 13 3 2.14 0.65
6 13 3 6.29 0.8
6 13 3 6.48 0.95
7 13 3 0.39 0.44
7 13 3 0.53 0.53
8 13 3 0.96 0.52
8 13 3 1.42 0.61
9 13 3 7.03 0.94
9 13 3 7.12 1
10 13 3 -0.38 0.47
11 13 3 4.12 0.81
-5 14 3 1 0.6
-4 14 3 1.79 0.64
-3 14 3 0.65 0.55
-2 14 3 0.17 0.5
-1 14 3 16.61 1.53
0 14 3 2.74 0.7
1 14 3 6.62 0.99
2 14 3 0.42 0.5
3 14 3 1.92 0.64
4 14 3 2.94 0.75
5 14 3 3.94 0.83
6 14 3 -0.17 0.48
7 14 3 3.12 0.75
8 14 3 2.68 0.76
8 14 3 2.23 0.64
9 14 3 0.07 0.57
9 14 3 -0.16 0.51
10 14 3 3.73 0.83
-4 15 3 0.16 0.54
-3 15 3 0.5 0.57
-2 15 3 6.06 1.03
-1 15 3 0.91 0.61
0 15 3 8.17 1.14
1 15 3 0.05 0.51
2 15 3 1.63 0.69
3 15 3 1.08 0.59
4 15 3 1.66 0.69
5 15 3 0.46 0.61
6 15 3 1.11 0.65
7 15 3 1.77 0.75
8 15 3 0.46 0.68
9 15 3 3.42 0.91
0 13 -4 0.49 0.61
-1 13 -4 2.2 0.73
-2 13 -4 2.49 0.74
-3 13 -4 0.52 0.56
-6 -12 4 0.77 0.94
-5 -12 4 3.1 0.98
-4 -12 4 5.5 1.12
3 12 -4 4.15 0.86
-3 -12 4 2.54 0.91
2 12 -4 4.75 0.89
1 12 -4 -0.1 0.5
0 12 -4 2.06 0.67
-1 12 -4 11.75 1.28
-2 12 -4 -0.02 0.49
-3 12 -4 11.03 1.24
-9 -11 4 3.86 1.18
-8 -11 4 0.11 0.95
-7 -11 4 0.66 0.85
-6 -11 4 2.9 0.96
-5 -11 4 1.32 0.81
-4 -11 4 9.61 1.34
3 11 -4 4.78 0.86
-3 -11 4 5.07 1.03
2 11 -4 3.22 0.74
1 11 -4 0.24 0.5
-1 11 -4 5.37 0.84
-2 11 -4 21.76 1.71
-3 11 -4 -0.1 0.45
-11 -10 4 -0.56 0.93
-10 -10 4 3.48 1.09
-9 -10 4 0.22 0.93
-8 -10 4 6.8 1.27
-7 -10 4 1.14 0.8
-6 -10 4 -0.74 0.67
-5 -10 4 11.12 1.4
-4 -10 4 4 0.9
-3 -10 4 6.82 1.06
2 10 -4 1.42 0.56
1 10 -4 3.58 0.71
0 10 -4 0.67 0.49
-1 10 -4 2.89 0.63
-2 10 -4 -0.38 0.38
-3 10 -4 14.05 1.28
-4 10 -4 0.39 0.47
6 -10 4 5.36 0.67
7 -10 4 0.58 0.47
8 -10 4 25.06 1.55
9 -10 4 2.6 0.64
11 9 -4 1.96 0.68
-11 -9 4 2.05 1
-10 -9 4 2.04 0.96
-9 -9 4 6.03 1.2
-8 -9 4 0.03 0.77
-7 -9 4 0.12 0.7
-6 -9 4 14.37 1.54
-5 -9 4 1.51 0.71
-4 -9 4 12.67 1.41
3 9 -4 -0.24 0.36
-3 -9 4 0.83 0.57
2 9 -4 13.16 1.19
1 9 -4 3.44 0.65
0 9 -4 1.24 0.48
-1 9 -4 24.57 1.74
-2 9 -4 24.69 1.77
-3 9 -4 0.47 0.42
-4 9 -4 2.01 0.54
4 -9 4 2.63 0.42
5 -9 4 6.69 0.65
6 -9 4 0.76 0.4
7 -9 4 39.12 2.01
8 -9 4 0.05 0.43
9 -9 4 14.08 1.17
10 -9 4 0.69 0.55
12 8 -4 1.98 0.69
11 8 -4 3.24 0.76
-11 -8 4 2.02 0.96
10 8 -4 1.88 0.6
-10 -8 4 1.88 0.88
9 8 -4 1.93 0.58
-9 -8 4 1.07 0.83
-8 -8 4 1.8 0.82
-7 -8 4 3.95 0.93
-6 -8 4 0.27 0.64
-5 -8 4 13.19 1.35
-4 -8 4 1.7 0.62
3 8 -4 27.49 1.73
-3 -8 4 19.8 1.75
2 8 -4 15.36 1.25
1 8 -4 6.31 0.78
0 8 -4 55.46 3.34
-1 8 -4 0.81 0.4
-2 8 -4 1.94 0.48
-3 8 -4 15.92 1.24
3 -8 4 15.38 0.9
-4 8 -4 6.91 0.81
4 -8 4 6.99 0.62
4 -8 4 7.73 0.71
5 -8 4 0.88 0.35
6 -8 4 24.75 1.38
7 -8 4 18.94 1.2
8 -8 4 43.55 2.2
9 -8 4 -0.54 0.44
10 -8 4 3.54 0.68
11 -8 4 8.69 0.95
13 7 -4 1.75 0.67
12 7 -4 3.07 0.73
11 7 -4 3.93 0.77
10 7 -4 10.65 1.09
-10 -7 4 10.31 1.34
9 7 -4 1.03 0.46
-9 -7 4 1.43 0.79
8 7 -4 2.33 0.53
-8 -7 4 0.16 0.64
7 7 -4 0.44 0.36
-7 -7 4 1.25 0.66
-6 -7 4 11.21 1.22
-5 -7 4 0.62 0.53
-4 -7 4 21.41 1.65
-3 -7 4 6.91 0.87
2 7 -4 21.13 1.5
1 7 -4 29.26 1.92
0 7 -4 0.55 0.33
-1 7 -4 37.83 2.35
-2 7 -4 1.43 0.4
-3 7 -4 1.25 0.39
3 -7 4 0.81 0.27
-4 7 -4 0.53 0.34
4 -7 4 0.71 0.3
4 -7 4 0.45 0.28
-5 7 -4 4.81 0.62
5 -7 4 5.1 0.54
5 -7 4 4.38 0.54
6 -7 4 3.92 0.52
7 -7 4 4.89 0.6
8 -7 4 0.75 0.43
9 -7 4 7.72 0.79
10 -7 4 2.76 0.6
11 -7 4 0.94 0.57
12 -7 4 11.47 1.11
13 6 -4 4.89 0.86
12 6 -4 1.45 0.59
11 6 -4 9.77 1.09
10 6 -4 -0.07 0.42
-10 -6 4 -0.09 0.61
9 6 -4 17.57 1.31
-9 -6 4 17.39 1.63
8 6 -4 8.56 0.87
-8 -6 4 10.15 1.16
7 6 -4 0.1 0.29
-7 -6 4 0.67 0.57
6 6 -4 8.74 0.8
-5 -6 4 14.73 1.28
-4 -6 4 0.65 0.45
-3 -6 4 0.19 0.19
1 6 -4 7.19 0.71
0 6 -4 55 3.24
-1 6 -4 10.8 0.89
-2 6 -4 127.97 7.13
-3 6 -4 13.39 1.01
-4 6 -4 0.31 0.29
4 -6 4 0.06 0.24
-5 6 -4 21.82 1.44
5 -6 4 21.47 1.16
5 -6 4 21.27 1.31
6 -6 4 1.3 0.34
6 -6 4 0.92 0.33
7 -6 4 0.22 0.33
8 -6 4 1.66 0.43
9 -6 4 5.1 0.65
10 -6 4 -0.78 0.37
11 -6 4 15.03 1.18
12 -6 4 0.11 0.47
13 -6 4 16.56 1.34
14 5 -4 0.14 0.57
13 5 -4 3.67 0.77
12 5 -4 25.41 1.79
11 5 -4 0.25 0.45
10 5 -4 17.23 1.29
-10 -5 4 14.02 1.43
9 5 -4 2.35 0.53
-9 -5 4 3.88 0.79
8 5 -4 17.48 1.22
-8 -5 4 15.5 1.41
7 5 -4 3.72 0.54
-7 -5 4 2.56 0.65
6 5 -4 0.61 0.27
-6 -5 4 2.04 0.58
-5 -5 4 9.37 1
-4 -5 4 9.18 0.91
-3 -5 4 0.06 0.28
-2 -5 4 1.64 0.39
1 5 -4 58.17 3.71
-1 -5 4 72.06 3.81
0 5 -4 0.17 0.23
-1 5 -4 136.09 7.53
-2 5 -4 0.12 0.21
-3 5 -4 62.98 3.61
-4 5 -4 34.35 2.1
4 -5 4 35.59 1.94
-5 5 -4 3.95 0.48
5 -5 4 4.93 0.52
6 -5 4 34.38 1.96
6 -5 4 35.99 1.71
7 -5 4 9.89 0.76
7 -5 4 8.87 0.74
8 -5 4 0.08 0.27
8 -5 4 0.42 0.33
9 -5 4 3.58 0.55
10 -5 4 9.5 0.86
11 -5 4 14.67 1.11
12 -5 4 14.98 1.17
13 -5 4 0.48 0.5
14 -5 4 5.06 0.81
14 4 -4 -0.1 0.51
13 4 -4 9.25 1.07
12 4 -4 -0.07 0.44
11 4 -4 30.26 1.97
10 4 -4 5.67 0.73
-10 -4 4 4.37 0.78
9 4 -4 21.24 1.43
-9 -4 4 20.14 1.61
8 4 -4 2.56 0.5
-8 -4 4 3.32 0.63
7 4 -4 3.88 0.53
-7 -4 4 2.38 0.6
6 4 -4 58.52 3.16
-6 -4 4 58.99 3.54
5 4 -4 -0.06 0.09
-5 -4 4 -0.24 0.37
-4 -4 4 13.27 1.07
-3 -4 4 0.51 0.33
-2 -4 4 0.17 0.17
-1 -4 4 0.41 0.3
0 4 -4 117.8 6.74
0 -4 4 125.96 6.79
-1 4 -4 1.86 0.33
-2 4 -4 19.68 1.26
-3 4 -4 41.9 2.43
-4 4 -4 23.08 1.44
4 -4 4 23.84 1.36
-5 4 -4 80.62 4.56
5 -4 4 83.37 4.21
6 -4 4 -0.09 0.21
7 -4 4 29.55 1.7
7 -4 4 29.84 1.49
8 -4 4 4.91 0.55
8 -4 4 4.21 0.52
9 -4 4 4.32 0.54
9 -4 4 3.36 0.5
10 -4 4 8.6 0.79
11 -4 4 1.62 0.46
12 -4 4 1.93 0.53
13 -4 4 1.51 0.55
14 -4 4 3.82 0.74
14 3 -4 1.16 0.56
13 3 -4 4.91 0.8
12 3 -4 6.55 0.85
11 3 -4 2.19 0.55
10 3 -4 16.11 1.25
-10 -3 4 18.13 1.44
9 3 -4 1.05 0.39
-9 -3 4 0.42 0.44
8 3 -4 0.42 0.32
-8 -3 4 1.05 0.45
7 3 -4 173.09 8.93
-7 -3 4 181.22 9.85
6 3 -4 2.5 0.41
-6 -3 4 3.01 0.53
5 3 -4 124.25 5.97
-5 -3 4 109.84 6.56
4 3 -4 26.78 1.53
-4 -3 4 26.55 1.73
-3 -3 4 6.42 0.64
-1 -3 4 98.63 5.51
0 -3 4 2.62 0.38
1 -3 4 62.88 3.57
-2 3 -4 4.37 0.43
-3 3 -4 0.08 0.14
3 -3 4 0.1 0.17
4 -3 4 120.11 6.03
-5 3 -4 0.03 0.11
5 -3 4 0.27 0.2
-6 3 -4 59.1 3.34
6 -3 4 59.87 3.12
7 -3 4 -0.05 0.21
8 -3 4 2.22 0.38
8 -3 4 1.74 0.35
9 -3 4 18.67 1.11
9 -3 4 20.04 1.26
10 -3 4 12.18 0.92
10 -3 4 12.84 0.98
11 -3 4 22.37 1.35
12 -3 4 0.8 0.44
13 -3 4 0.91 0.49
14 -3 4 1.63 0.6
15 -3 4 6.7 0.89
14 2 -4 8.14 1
13 2 -4 -0.21 0.4
12 2 -4 11.91 1.05
11 2 -4 8.06 0.86
10 2 -4 -0.01 0.3
-10 -2 4 0.23 0.48
9 2 -4 0.14 0.29
-9 -2 4 0.2 0.39
8 2 -4 46.3 2.7
8 2 -4 48.46 2.23
-8 -2 4 53.22 3.01
7 2 -4 3.91 0.51
7 2 -4 3.93 0.38
-7 -2 4 5.44 0.65
6 2 -4 119.04 5.96
-6 -2 4 115.19 6.55
5 2 -4 20.82 1.27
-5 -2 4 22.28 1.45
4 2 -4 46.27 2.38
-4 -2 4 42.97 2.64
-3 -2 4 102.16 5.7
-2 -2 4 0.03 0.06
-1 -2 4 270.21 14.68
0 -2 4 32.55 1.92
1 -2 4 9.81 0.71
2 -2 4 11.07 0.76
3 -2 4 0.35 0.18
3 -2 4 1.3 0.22
5 -2 4 38.05 2.05
6 -2 4 0.12 0.2
7 -2 4 31.82 1.78
8 -2 4 15.63 1.04
9 -2 4 0.5 0.29
9 -2 4 1.05 0.35
10 -2 4 29.52 1.7
10 -2 4 25.83 1.47
11 -2 4 0.1 0.34
11 -2 4 -0.13 0.32
12 -2 4 32.78 2.04
12 -2 4 35.21 1.81
13 -2 4 3.48 0.6
14 -2 4 -0.74 0.46
15 -2 4 0.14 0.53
12 1 -4 0.23 0.36
11 1 -4 14.62 1.11
10 1 -4 -0.12 0.26
9 1 -4 3.73 0.53
9 1 -4 4.05 0.43
-9 -1 4 4.82 0.68
8 1 -4 13.11 0.92
8 1 -4 13.48 0.76
-8 -1 4 11.44 1.06
7 1 -4 34.07 1.57
7 1 -4 35.16 1.92
-7 -1 4 32.85 2.12
6 1 -4 3.87 0.47
6 1 -4 4.22 0.38
-6 -1 4 5.41 0.59
5 1 -4 104.59 5.37
5 1 -4 110.04 4.43
-5 -1 4 103.53 5.91
4 1 -4 59.14 3.2
-4 -1 4 65.21 3.55
-3 -1 4 2.54 0.36
-1 -1 4 23.46 1.43
0 -1 4 120.61 6.61
1 -1 4 23.59 1.41
2 -1 4 5.12 0.42
3 -1 4 53.67 3.06
3 -1 4 56.8 2.84
4 -1 4 10.69 0.67
5 -1 4 1.8 0.3
5 -1 4 2.77 0.25
6 -1 4 48.45 2.57
7 -1 4 17.34 1.08
8 -1 4 5.39 0.55
9 -1 4 55.24 2.98
10 -1 4 17.22 1.14
10 -1 4 14.58 0.97
11 -1 4 13.01 0.95
11 -1 4 13.86 1.06
12 -1 4 1.07 0.41
12 -1 4 1.25 0.47
13 -1 4 12.03 1.09
13 -1 4 12.66 0.97
14 -1 4 4.41 0.67
15 -1 4 6.12 0.8
11 0 -4 8.18 0.68
11 0 -4 7.53 0.77
10 0 -4 0.36 0.29
10 0 -4 0.7 0.31
9 0 -4 31.49 1.51
9 0 -4 28.41 1.77
-9 0 4 32.86 2.03
8 0 -4 11.58 0.75
8 0 -4 12.52 0.89
-8 0 4 14.7 1.09
7 0 -4 39.75 2.16
7 0 -4 43.44 1.82
-7 0 4 35.67 2.42
6 0 -4 30.74 1.41
6 0 -4 29.99 1.68
-6 0 4 29.85 1.89
5 0 -4 23.35 1.37
5 0 -4 25.23 1.17
-5 0 4 25.23 1.57
4 0 -4 72.21 3.15
4 0 -4 73.08 3.79
-4 0 4 79.34 4.22
-3 0 4 121.48 6.69
-2 0 4 -0.09 0.09
-1 0 4 92.21 5.08
0 0 4 3.68 0.35
1 0 4 70.3 3.87
2 0 4 28.25 1.61
3 0 4 1.17 0.17
3 0 4 1.54 0.23
4 0 4 175.56 9.66
4 0 4 182.81 8.89
5 0 4 25.02 1.4
6 0 4 14.24 0.9
7 0 4 3.41 0.42
8 0 4 30.74 1.77
9 0 4 4.81 0.58
10 0 4 30.68 1.54
10 0 4 30.1 1.82
11 0 4 5.57 0.6
11 0 4 4.95 0.66
12 0 4 12.73 1.09
12 0 4 13.58 0.94
13 0 4 13.6 1.01
13 0 4 12.57 1.12
14 0 4 0.43 0.49
14 0 4 0.65 0.45
15 0 4 9.35 0.95
16 0 4 1.17 0.57
13 -1 -4 20.21 1.27
12 -1 -4 1.97 0.46
11 -1 -4 9.61 0.77
10 -1 -4 52.34 2.37
10 -1 -4 49.91 2.78
9 -1 -4 5.43 0.58
9 -1 -4 5.34 0.53
-9 1 4 5.93 0.72
8 -1 -4 45.08 2.47
8 -1 -4 45.85 2.1
-8 1 4 47.3 2.8
7 -1 -4 1.05 0.26
7 -1 -4 1.26 0.28
-7 1 4 1.12 0.34
6 -1 -4 10.33 0.58
6 -1 -4 8.91 0.62
-6 1 4 7.05 0.7
5 -1 -4 2.27 0.28
5 -1 -4 2.03 0.28
-5 1 4 2.84 0.41
4 -1 -4 0.32 0.14
4 -1 -4 0.21 0.14
-4 1 4 0.56 0.26
-2 1 4 -0.04 0.09
-1 1 4 0.02 0.07
0 1 4 5.02 0.42
1 1 4 40.89 2.49
1 1 4 48.36 2.28
3 1 4 -0.01 0.04
4 1 4 18.19 0.97
4 1 4 15.5 0.94
5 1 4 169.81 8.44
6 1 4 2.49 0.34
7 1 4 17.92 1.11
8 1 4 5.83 0.58
9 1 4 49.59 2.72
10 1 4 37 1.8
10 1 4 38.59 2.18
11 1 4 36.77 2.26
11 1 4 41.73 1.92
12 1 4 0.25 0.33
12 1 4 0.01 0.37
13 1 4 2.26 0.59
13 1 4 2.57 0.51
14 1 4 49.81 2.88
14 1 4 47.28 2.37
15 1 4 0.81 0.47
15 1 4 -0.03 0.51
16 1 4 15.92 1.24
14 -2 -4 5.92 0.74
13 -2 -4 0.57 0.41
12 -2 -4 15.19 1.05
11 -2 -4 9.69 0.81
10 -2 -4 15.78 0.99
9 -2 -4 66.45 2.97
9 -2 -4 66.89 3.53
8 -2 -4 1.05 0.27
8 -2 -4 0.31 0.25
-8 2 4 0.59 0.33
7 -2 -4 82.62 4.24
7 -2 -4 81.16 3.58
-7 2 4 86.37 4.77
6 -2 -4 11.22 0.67
6 -2 -4 11.46 0.72
-6 2 4 11.12 0.89
5 -2 -4 18.35 0.94
5 -2 -4 18.1 1.04
-5 2 4 19.16 1.25
4 -2 -4 22.05 1.04
4 -2 -4 19.97 1.15
-4 2 4 22.95 1.38
3 -2 -4 43.78 2.02
-3 2 4 49.56 2.7
2 -2 -4 -0.02 0.08
-2 2 4 -0.06 0.1
-1 2 4 -0.02 0.04
0 2 4 155.83 8.48
1 2 4 39.36 2.08
1 2 4 33.78 1.87
2 2 4 131.3 6.63
2 2 4 136.03 7.27
5 2 4 14.93 0.91
5 2 4 15.06 0.86
6 2 4 31.83 1.76
7 2 4 15.59 1
8 2 4 28 1.64
9 2 4 30.06 1.77
10 2 4 1.49 0.41
11 2 4 2.94 0.44
11 2 4 2.98 0.54
12 2 4 3.57 0.49
12 2 4 3.81 0.63
13 2 4 16.82 1.33
13 2 4 16.94 1.08
14 2 4 0.72 0.4
14 2 4 -0.17 0.47
15 2 4 35.76 2.33
16 2 4 0.1 0.59
14 -3 -4 2.48 0.58
12 -3 -4 0.35 0.39
11 -3 -4 8.81 0.79
10 -3 -4 51.27 2.43
9 -3 -4 4.05 0.51
-9 3 4 4.05 0.58
8 -3 -4 73.57 3.42
-8 3 4 82.53 4.51
7 -3 -4 2.9 0.4
7 -3 -4 3.7 0.37
-7 3 4 3.43 0.5
6 -3 -4 21.95 1.11
6 -3 -4 20.94 1.2
-6 3 4 22.92 1.46
5 -3 -4 62.43 3.23
5 -3 -4 66.15 2.79
4 -3 -4 16.43 0.76
-4 3 4 11.65 0.95
3 -3 -4 17.29 0.9
-3 3 4 19.65 1.22
-1 3 4 -0.01 0.05
0 3 4 0.72 0.14
0 3 4 0.79 0.21
1 3 4 40.25 2.08
1 3 4 41.4 2.32
2 3 4 111.08 5.38
2 3 4 105.21 5.91
3 3 4 51.91 2.88
4 3 4 51.73 2.69
4 3 4 51.98 2.87
5 3 4 258.39 13.93
6 3 4 91.71 4.99
-7 -3 -4 3.61 0.34
7 3 4 5.43 0.51
7 3 4 5.27 0.33
8 3 4 44.84 2.46
9 3 4 6.57 0.66
10 3 4 5.22 0.65
11 3 4 2.21 0.5
11 3 4 1.92 0.37
12 3 4 4.52 0.53
12 3 4 3.41 0.62
13 3 4 3.92 0.53
13 3 4 4.32 0.73
14 3 4 20.5 1.57
15 3 4 0 0.53
16 3 4 4.11 0.89
14 -4 -4 0.2 0.48
13 -4 -4 6.82 0.8
12 -4 -4 1.25 0.48
11 -4 -4 1.88 0.49
10 -4 -4 0.05 0.36
9 -4 -4 63.01 2.88
8 -4 -4 7.25 0.65
-8 4 4 7.3 0.76
7 -4 -4 36.68 1.85
-7 4 4 41.48 2.41
6 -4 -4 15.47 0.89
-6 4 4 16.04 1.13
5 -4 -4 5.92 0.39
5 -4 -4 6.59 0.47
-5 4 4 5.17 0.57
4 -4 -4 28.72 1.34
2 -4 -4 104.21 4.25
-2 4 4 99.41 5.64
1 -4 -4 37.41 1.64
0 4 4 18.35 1.14
1 4 4 185.83 9.23
1 4 4 189.7 10.21
2 4 4 8.61 0.62
2 4 4 9.22 0.56
3 4 4 57.22 3.2
4 4 4 86.88 4.38
4 4 4 86.28 4.76
5 4 4 13.87 0.85
5 4 4 13.05 0.85
6 4 4 90.56 4.97
6 4 4 90.91 4.64
8 4 4 0.02 0.11
9 4 4 18.31 1.22
10 4 4 0.11 0.31
11 4 4 0.76 0.41
11 4 4 0.27 0.25
12 4 4 4.92 0.72
13 4 4 16.66 1.37
14 4 4 4.61 0.81
15 4 4 6.68 1.01
16 4 4 2.12 0.76
14 -5 -4 9.93 1.01
13 -5 -4 0.76 0.5
12 -5 -4 0.09 0.43
11 -5 -4 11.5 0.98
10 -5 -4 3.19 0.55
9 -5 -4 6.27 0.66
8 -5 -4 46.61 2.32
-8 5 4 52.79 3.01
7 -5 -4 6.05 0.57
-7 5 4 6.45 0.69
4 -5 -4 0.13 0.17
-4 5 4 1.22 0.31
3 -5 -4 197.28 8.16
-3 5 4 199.17 10.84
2 -5 -4 10.32 0.58
-2 5 4 10.28 0.78
1 -5 -4 75.88 3.28
-1 5 4 79.99 4.37
0 5 4 31.97 1.88
1 5 4 0.48 0.19
1 5 4 0.38 0.13
2 5 4 0.86 0.18
2 5 4 0.72 0.22
3 5 4 22.12 1.35
4 5 4 9.27 0.65
4 5 4 8.48 0.61
5 5 4 6.85 0.52
5 5 4 5.75 0.53
6 5 4 101.91 5.13
6 5 4 99.35 5.54
7 5 4 1.95 0.28
7 5 4 1.6 0.34
8 5 4 -0.06 0.07
9 5 4 0.1 0.16
10 5 4 0.03 0.34
11 5 4 17.61 1.28
12 5 4 2.33 0.57
13 5 4 11.42 1.12
14 5 4 3.39 0.77
15 5 4 0.53 0.61
16 5 4 0.69 0.65
13 -6 -4 1.79 0.55
12 -6 -4 4.34 0.7
11 -6 -4 -0.18 0.42
10 -6 -4 26.02 1.49
9 -6 -4 4.8 0.59
8 -6 -4 0.59 0.3
-8 6 4 0.38 0.34
7 -6 -4 3.71 0.48
-7 6 4 4.54 0.6
-6 6 4 3.61 0.52
5 -6 -4 0.81 0.23
-5 6 4 1.63 0.37
4 -6 -4 82.5 3.51
-4 6 4 81.01 4.63
3 -6 -4 13.8 0.75
-3 6 4 13.09 0.98
2 -6 -4 61.67 2.67
-2 6 4 61.99 3.54
1 -6 -4 23.53 1.1
-1 6 4 23.26 1.48
0 -6 -4 28.17 1.27
0 6 4 27.87 1.45
1 6 4 47.92 2.46
1 6 4 48.95 2.8
2 6 4 26.36 1.58
2 6 4 24.88 1.38
3 6 4 67.94 3.77
3 6 4 65.61 3.41
4 6 4 13.51 0.92
4 6 4 13.11 0.84
5 6 4 4.01 0.45
5 6 4 4.44 0.45
6 6 4 17.03 1.11
6 6 4 17.27 1.1
7 6 4 44.59 2.6
7 6 4 45.65 2.48
8 6 4 0.6 0.24
8 6 4 0.74 0.33
9 6 4 42.86 2.43
10 6 4 6.36 0.75
11 6 4 -0.25 0.34
12 6 4 36.26 2.25
13 6 4 5.73 0.85
14 6 4 9.84 1.17
15 6 4 0.88 0.63
16 6 4 -0.48 0.6
13 -7 -4 0.37 0.54
12 -7 -4 3.75 0.72
11 -7 -4 29.19 1.73
10 -7 -4 1.04 0.46
9 -7 -4 37.63 1.93
8 -7 -4 0.05 0.3
-8 7 4 0.12 0.34
7 -7 -4 0.46 0.3
-7 7 4 0.14 0.3
6 -7 -4 1.26 0.33
-6 7 4 1.97 0.43
5 -7 -4 18.37 1.06
-5 7 4 20.26 1.37
4 -7 -4 0.41 0.23
-4 7 4 0.38 0.3
3 -7 -4 59.12 2.63
-3 7 4 60.87 3.5
2 -7 -4 11.54 0.67
-2 7 4 11.34 0.89
1 -7 -4 16.79 0.86
-1 7 4 17.27 1.18
0 -7 -4 99.57 4.14
0 7 4 98.67 4.91
1 7 4 2.73 0.29
1 7 4 3.31 0.44
2 7 4 237.16 12.95
3 7 4 0.23 0.18
3 7 4 0.24 0.23
4 7 4 0.49 0.21
4 7 4 0.22 0.23
5 7 4 61.74 3.16
5 7 4 58.25 3.43
6 7 4 7.23 0.65
6 7 4 7.45 0.66
7 7 4 1.54 0.38
7 7 4 1.57 0.33
8 7 4 23.37 1.5
8 7 4 24.29 1.52
9 7 4 2.46 0.49
10 7 4 18.99 1.35
11 7 4 14.93 1.19
12 7 4 0.09 0.44
13 7 4 22.99 1.69
14 7 4 0.14 0.52
15 7 4 0.01 0.6
12 -8 -4 12.22 1.14
11 -8 -4 1.39 0.54
10 -8 -4 39.71 2.09
9 -8 -4 5.46 0.68
8 -8 -4 20.47 1.24
7 -8 -4 2.01 0.43
-7 8 4 2.55 0.54
6 -8 -4 15.05 0.97
-6 8 4 15.15 1.19
5 -8 -4 22.01 1.27
-5 8 4 25.41 1.65
4 -8 -4 37.34 1.76
-4 8 4 36.73 2.31
3 -8 -4 1.11 0.27
-3 8 4 1.17 0.36
2 -8 -4 4.9 0.44
-2 8 4 4.69 0.6
1 -8 -4 22.42 1.09
-1 8 4 22.53 1.51
0 -8 -4 0.11 0.15
0 8 4 0.12 0.12
0 8 4 0.09 0.2
-1 -8 -4 119.55 4.9
1 8 4 119 6.61
1 8 4 115.77 5.88
2 8 4 2.6 0.33
2 8 4 3.05 0.47
3 8 4 32.68 1.82
3 8 4 34.1 2.07
4 8 4 28.44 1.83
4 8 4 29.78 1.65
5 8 4 2.18 0.42
5 8 4 2.05 0.37
6 8 4 54.82 3.02
6 8 4 57.37 3.29
7 8 4 2.13 0.42
7 8 4 2.32 0.44
8 8 4 2.05 0.46
8 8 4 1.79 0.4
9 8 4 1.35 0.44
10 8 4 11.35 1.01
11 8 4 0.24 0.38
12 8 4 15 1.25
13 8 4 0.24 0.48
14 8 4 0.69 0.6
15 8 4 1.53 0.72
12 -9 -4 0.72 0.56
11 -9 -4 11.38 1.09
10 -9 -4 -0.04 0.47
9 -9 -4 17.76 1.27
8 -9 -4 14.75 1.08
7 -9 -4 7.49 0.77
-7 9 4 8.4 0.92
6 -9 -4 66.75 3.05
-6 9 4 66.58 3.97
5 -9 -4 9.45 0.74
-5 9 4 9.7 0.94
4 -9 -4 38.31 1.85
-4 9 4 39.47 2.46
3 -9 -4 1.41 0.32
-3 9 4 1.8 0.45
2 -9 -4 0.47 0.23
-2 9 4 0.81 0.36
1 -9 -4 14.46 0.79
-1 9 4 14.14 1.1
0 -9 -4 29.18 1.36
2 9 4 76.55 4.49
2 9 4 79.15 3.98
3 9 4 17.53 1.29
3 9 4 18.86 1.13
4 9 4 2.22 0.46
4 9 4 1.87 0.36
5 9 4 48.98 2.75
5 9 4 53.01 3.06
6 9 4 2.49 0.45
6 9 4 1.56 0.43
7 9 4 38.12 2.39
7 9 4 39.17 2.24
8 9 4 1.61 0.44
8 9 4 2.39 0.47
9 9 4 0.23 0.37
9 9 4 -0.22 0.29
10 9 4 -0.05 0.37
11 9 4 20.84 1.53
12 9 4 0.03 0.45
13 9 4 4.74 0.8
14 9 4 0.3 0.55
15 9 4 -0.08 0.56
11 -10 -4 0.04 0.53
10 -10 -4 9.52 1
9 -10 -4 2.97 0.65
8 -10 -4 1.04 0.5
7 -10 -4 46.55 2.26
-7 10 4 43.64 2.87
6 -10 -4 7.49 0.75
-6 10 4 7.55 0.91
5 -10 -4 39.56 1.94
-5 10 4 39.24 2.54
4 -10 -4 7.52 0.66
-4 10 4 6.85 0.85
3 -10 -4 13.95 0.86
-3 10 4 12.46 1.1
2 -10 -4 8.25 0.62
-2 10 4 7.86 0.84
1 -10 -4 8.49 0.6
-1 10 4 8.85 0.87
0 -10 -4 6.76 0.5
0 10 4 6.04 0.75
2 10 4 1.08 0.37
3 10 4 16.84 1.28
3 10 4 16.39 1.06
4 10 4 60.66 3.53
4 10 4 57.3 3.13
5 10 4 1.02 0.41
5 10 4 1.34 0.36
6 10 4 14.65 1.16
6 10 4 14.36 1.08
7 10 4 1.77 0.48
7 10 4 2.03 0.47
8 10 4 5.63 0.74
8 10 4 4.5 0.66
9 10 4 0.31 0.35
9 10 4 -0.01 0.41
10 10 4 1.43 0.5
11 10 4 1.47 0.57
12 10 4 7.45 0.99
13 10 4 -0.48 0.51
14 10 4 0.48 0.6
10 -11 -4 0.25 0.54
9 -11 -4 0.66 0.55
8 -11 -4 13.11 1.12
7 -11 -4 4.26 0.65
6 -11 -4 19.72 1.23
-6 11 4 18.34 1.52
5 -11 -4 2.61 0.49
-5 11 4 3.07 0.67
4 -11 -4 16.59 1.05
-4 11 4 17 1.37
3 -11 -4 14.08 0.91
-3 11 4 14.28 1.25
2 -11 -4 0.37 0.28
-2 11 4 0.4 0.39
1 -11 -4 14.2 0.84
-1 11 4 14.97 1.22
0 11 4 0.26 0.36
1 11 4 0.42 0.33
2 11 4 0.55 0.36
3 11 4 9.44 0.94
4 11 4 0.25 0.38
4 11 4 0.19 0.29
5 11 4 23.6 1.51
5 11 4 24.16 1.73
6 11 4 5.5 0.77
6 11 4 5.66 0.67
7 11 4 19.54 1.52
7 11 4 20.97 1.42
8 11 4 1.38 0.49
8 11 4 1.95 0.53
9 11 4 0.52 0.46
9 11 4 0.04 0.4
10 11 4 12.52 1.19
11 11 4 0.58 0.55
12 11 4 2.48 0.73
13 11 4 -0.28 0.55
14 11 4 1.14 0.69
9 -12 -4 0.25 0.53
8 -12 -4 3.06 0.66
7 -12 -4 13.63 1.12
6 -12 -4 1.15 0.48
-6 12 4 0.79 0.53
5 -12 -4 17.48 1.18
-5 12 4 18.37 1.52
4 -12 -4 4.08 0.55
-4 12 4 4.05 0.73
3 -12 -4 8.76 0.74
-3 12 4 7.65 0.98
2 -12 -4 31.19 1.53
-2 12 4 27.59 2.07
-1 12 4 0.03 0.43
0 12 4 16.42 1.37
1 12 4 0.79 0.47
2 12 4 0.46 0.4
3 12 4 4.77 0.76
4 12 4 16.54 1.38
5 12 4 4.17 0.75
5 12 4 3.71 0.56
6 12 4 11 1.13
6 12 4 10.77 0.98
7 12 4 3.47 0.68
7 12 4 2.77 0.59
8 12 4 7.43 0.93
8 12 4 7.99 0.91
9 12 4 10.73 1.16
9 12 4 11.24 1.11
10 12 4 1.14 0.55
11 12 4 15.24 1.36
12 12 4 2.42 0.75
13 12 4 0.16 0.6
8 -13 -4 -0.33 0.52
7 -13 -4 2.1 0.6
6 -13 -4 9.99 0.94
-6 13 4 10.44 1.24
5 -13 -4 -0.21 0.39
-5 13 4 0.16 0.48
4 -13 -4 1.46 0.44
-4 13 4 0.96 0.54
-3 13 4 12.38 1.23
-2 13 4 -0.25 0.43
-1 13 4 28.6 2.07
0 13 4 0.26 0.45
1 13 4 8.02 1.01
2 13 4 6.26 0.89
3 13 4 3.63 0.73
4 13 4 13.99 1.37
5 13 4 11.17 1.23
6 13 4 -0.16 0.47
6 13 4 0.05 0.38
7 13 4 0.26 0.42
7 13 4 -0.1 0.46
8 13 4 1.45 0.59
8 13 4 1.9 0.59
9 13 4 1.2 0.59
9 13 4 1.9 0.64
10 13 4 16.72 1.46
11 13 4 1.22 0.65
12 13 4 1.08 0.71
6 -14 -4 -0.06 0.51
-5 14 4 0.4 0.54
-4 14 4 0.91 0.58
-3 14 4 0.44 0.5
-2 14 4 14.28 1.43
-1 14 4 1 0.59
0 14 4 11.3 1.26
1 14 4 1.87 0.64
2 14 4 0 0.44
3 14 4 13.44 1.4
4 14 4 2.5 0.7
5 14 4 1.29 0.64
6 14 4 1.26 0.61
7 14 4 -0.21 0.52
8 14 4 0.79 0.52
8 14 4 0.49 0.57
9 14 4 7.5 1.1
9 14 4 10.23 1.11
10 14 4 1.15 0.62
11 14 4 3.39 0.81
-5 15 4 0.03 0.57
-4 15 4 0.77 0.61
-3 15 4 2.07 0.72
-2 15 4 0.12 0.53
-1 15 4 9.6 1.23
0 15 4 0.11 0.51
1 15 4 6.29 1.02
2 15 4 8.48 1.18
3 15 4 0.28 0.56
4 15 4 6.45 1.04
5 15 4 0.65 0.65
6 15 4 -0.07 0.57
7 15 4 -0.03 0.58
8 15 4 0.84 0.64
9 15 4 4.47 0.93
-4 -12 5 4.48 1.2
-3 -12 5 3.27 0.99
-2 -12 5 0.2 0.81
-1 -12 5 1.15 0.87
0 12 -5 2.07 0.69
0 -12 5 3.91 0.97
-1 12 -5 -0.24 0.49
-2 12 -5 2.47 0.72
-3 12 -5 0.61 0.57
-7 -11 5 1.91 1.09
-6 -11 5 0.74 0.88
-5 -11 5 9.52 1.45
-4 -11 5 2 0.94
-3 -11 5 3.6 0.99
-2 -11 5 0.2 0.73
-1 -11 5 0.1 0.74
0 11 -5 0.22 0.51
-1 11 -5 11.37 1.25
-2 11 -5 2.14 0.64
-3 11 -5 3.44 0.74
-9 -10 5 1.77 1.09
-8 -10 5 0.21 0.91
-7 -10 5 0.9 0.9
-6 -10 5 9.18 1.36
-4 -10 5 7.69 1.21
-3 -10 5 0.08 0.7
-2 -10 5 1.49 0.75
-1 -10 5 1.53 0.79
0 10 -5 0.21 0.45
-1 10 -5 5.2 0.82
-2 10 -5 3.51 0.7
-3 10 -5 2.77 0.64
7 -10 5 17.2 1.27
8 -10 5 0.88 0.54
-11 -9 5 2.48 1.06
-10 -9 5 1.27 0.94
-9 -9 5 0.85 0.9
-8 -9 5 0.58 0.89
-7 -9 5 2.55 1
-6 -9 5 -0.18 0.75
-5 -9 5 12.9 1.5
-4 -9 5 1.16 0.7
-3 -9 5 11.82 1.35
-2 -9 5 4.18 0.88
-1 -9 5 -0.36 0.59
0 9 -5 11.78 1.17
-1 9 -5 2.28 0.57
-2 9 -5 2.73 0.6
-3 9 -5 0.47 0.43
-4 9 -5 0.07 0.41
5 -9 5 -0.47 0.33
6 -9 5 16.64 1.13
7 -9 5 0.37 0.44
8 -9 5 18.63 1.3
9 -9 5 1.95 0.61
10 -9 5 7 0.88
-11 -8 5 0.37 0.86
-10 -8 5 3.81 1.05
-9 -8 5 -0.43 0.74
-8 -8 5 1.07 0.79
-7 -8 5 4.4 1.04
-6 -8 5 12.77 1.47
-5 -8 5 2.36 0.8
-4 -8 5 16.72 1.6
-3 -8 5 3.46 0.76
-2 -8 5 7.17 1
-1 -8 5 15.14 1.44
0 8 -5 3.01 0.61
-1 8 -5 42.61 2.7
-2 8 -5 4.24 0.67
-3 8 -5 2.52 0.54
3 -8 5 1.66 0.37
-4 8 -5 1.31 0.45
4 -8 5 1.09 0.36
4 -8 5 1.21 0.4
5 -8 5 2.6 0.46
6 -8 5 3.22 0.52
7 -8 5 17.84 1.2
8 -8 5 2.66 0.58
9 -8 5 5.47 0.74
10 -8 5 4.68 0.73
11 -8 5 1.19 0.61
12 7 -5 -0.07 0.55
11 7 -5 10.5 1.18
-11 -7 5 9.3 1.33
-10 -7 5 -0.04 0.75
-9 -7 5 2.84 0.91
-8 -7 5 5.7 1.07
-7 -7 5 0.72 0.73
-6 -7 5 13.57 1.45
-5 -7 5 12.17 1.36
-4 -7 5 -0.12 0.48
-3 -7 5 5.42 0.84
-2 -7 5 14.3 1.32
-1 -7 5 0.26 0.47
0 7 -5 51.96 3.16
0 -7 5 51.89 3.23
-1 7 -5 9.06 0.91
-2 7 -5 30.78 2
-3 7 -5 11.62 1
-4 7 -5 0.68 0.37
4 -7 5 0.66 0.34
5 -7 5 17.64 1.06
5 -7 5 16.82 1.16
6 -7 5 3.6 0.52
7 -7 5 23.12 1.33
8 -7 5 11.45 0.98
9 -7 5 1.08 0.52
10 -7 5 -0.03 0.48
11 -7 5 20.73 1.42
12 -7 5 0.23 0.59
13 6 -5 -0.65 0.52
12 6 -5 7.35 1.01
11 6 -5 -0.35 0.47
-11 -6 5 0.06 0.7
10 6 -5 16.32 1.33
-10 -6 5 13.19 1.55
9 6 -5 0.83 0.46
-9 -6 5 1.02 0.74
-8 -6 5 -0.02 0.65
-7 -6 5 16.13 1.5
-6 -6 5 2.18 0.67
-5 -6 5 6.47 0.94
-4 -6 5 1.28 0.55
-3 -6 5 -0.1 0.37
-2 -6 5 1.81 0.52
-1 -6 5 30.6 2.04
0 -6 5 1.75 0.5
-1 6 -5 45.81 2.78
-2 6 -5 31.31 1.99
-3 6 -5 8.85 0.81
-4 6 -5 54.83 3.17
4 -6 5 52.62 2.89
-5 6 -5 0.26 0.29
5 -6 5 0.26 0.28
6 -6 5 31.17 1.84
6 -6 5 31.61 1.61
7 -6 5 0.58 0.37
7 -6 5 0.83 0.36
8 -6 5 -0.03 0.37
9 -6 5 0.92 0.44
10 -6 5 3.17 0.6
11 -6 5 0.63 0.52
12 -6 5 14.51 1.19
13 5 -5 7.11 0.99
12 5 -5 -0.03 0.49
11 5 -5 8.45 1
10 5 -5 0.92 0.48
-10 -5 5 0.89 0.68
9 5 -5 8.37 0.92
-9 -5 5 6.2 1
8 5 -5 7.86 0.9
-8 -5 5 11.55 1.23
-7 -5 5 4.47 0.81
-6 -5 5 24.49 1.85
-5 -5 5 -0.07 0.47
-4 -5 5 12.1 1.12
-3 -5 5 0.04 0.14
-2 -5 5 -0.09 0.15
-1 -5 5 0.62 0.37
0 -5 5 29.45 1.92
1 -5 5 7.14 0.77
-2 5 -5 68.64 3.94
-3 5 -5 24.59 1.59
-4 5 -5 0.4 0.26
4 -5 5 0.14 0.23
-5 5 -5 70.4 3.99
5 -5 5 69.69 3.68
6 -5 5 6.92 0.67
7 -5 5 11.4 0.89
8 -5 5 10.43 0.87
8 -5 5 11.43 0.88
9 -5 5 6.33 0.7
10 -5 5 11.91 0.97
11 -5 5 2.68 0.58
12 -5 5 1.94 0.57
13 -5 5 3.24 0.68
13 4 -5 0.44 0.52
12 4 -5 7.59 0.95
11 4 -5 4.81 0.74
10 4 -5 2.6 0.57
-10 -4 5 3.51 0.78
9 4 -5 2.05 0.52
-9 -4 5 2.75 0.67
8 4 -5 1.56 0.46
-8 -4 5 2.15 0.64
7 4 -5 10.33 0.9
-7 -4 5 12.18 1.13
-6 -4 5 6.92 0.87
-5 -4 5 40.76 2.58
-4 -4 5 12.11 1.09
-3 -4 5 1.45 0.33
-2 -4 5 60.67 3.57
-1 -4 5 2.02 0.43
0 -4 5 7.64 0.76
1 -4 5 28.43 1.8
2 -4 5 20.63 1.38
3 -4 5 10.65 0.85
4 -4 5 47.05 2.54
5 -4 5 3.95 0.49
6 -4 5 74.19 3.88
7 -4 5 1.15 0.33
8 -4 5 11.2 0.88
9 -4 5 48.04 2.72
9 -4 5 51.31 2.38
10 -4 5 1.85 0.47
11 -4 5 22.21 1.37
12 -4 5 1.59 0.51
13 -4 5 1.49 0.56
14 -4 5 0.18 0.56
14 3 -5 5.45 0.85
13 3 -5 0.27 0.48
12 3 -5 13.31 1.19
11 3 -5 4.2 0.69
10 3 -5 6.83 0.79
-10 -3 5 6.23 0.94
9 3 -5 3.66 0.59
-9 -3 5 3.24 0.71
8 3 -5 0.39 0.32
-8 -3 5 0.92 0.49
7 3 -5 2.09 0.43
-7 -3 5 3.06 0.59
6 3 -5 36.88 2.27
-6 -3 5 45.19 2.59
-5 -3 5 18.33 1.36
-4 -3 5 46.11 2.79
-3 -3 5 73.55 4.24
-2 -3 5 0.34 0.26
-1 -3 5 76.97 4.39
0 -3 5 3.4 0.46
1 -3 5 0.89 0.29
2 -3 5 3.03 0.42
3 -3 5 77.48 4.01
3 -3 5 64.28 3.65
4 -3 5 1.55 0.32
4 -3 5 2.96 0.39
5 -3 5 55.25 2.86
5 -3 5 52.31 3.04
6 -3 5 0.38 0.25
7 -3 5 34.24 1.94
8 -3 5 21.37 1.35
9 -3 5 1.95 0.4
9 -3 5 2.24 0.43
10 -3 5 40.46 2.03
10 -3 5 41.32 2.35
11 -3 5 0.02 0.35
11 -3 5 -0.41 0.34
12 -3 5 3.84 0.64
13 -3 5 4.92 0.73
14 -3 5 1.56 0.57
13 2 -5 31.85 2.09
12 2 -5 0.88 0.47
11 2 -5 7.07 0.82
10 2 -5 0.98 0.41
-10 -2 5 1.23 0.6
9 2 -5 0.91 0.36
-9 -2 5 -0.25 0.48
8 2 -5 -0.15 0.23
-8 -2 5 0.09 0.42
7 2 -5 32.49 2
-7 -2 5 38.19 2.29
6 2 -5 15.59 1.03
-6 -2 5 14.59 1.15
-5 -2 5 46.79 2.81
-4 -2 5 49.98 2.96
-3 -2 5 0.22 0.28
-1 -2 5 12.85 0.93
0 -2 5 110.49 6.13
1 -2 5 6.38 0.58
2 -2 5 1.67 0.3
3 -2 5 0.42 0.21
3 -2 5 0.42 0.2
4 -2 5 69.24 3.73
4 -2 5 75.77 4.04
5 -2 5 18.03 1.11
6 -2 5 8.36 0.68
7 -2 5 2.63 0.4
8 -2 5 1.54 0.37
9 -2 5 48.25 2.66
10 -2 5 2.04 0.42
10 -2 5 2.1 0.47
11 -2 5 26.24 1.51
11 -2 5 27.06 1.69
12 -2 5 6.16 0.76
12 -2 5 5.51 0.69
13 -2 5 1.92 0.54
14 -2 5 15.55 1.23
15 -2 5 -0.18 0.53
12 1 -5 30.31 1.93
11 1 -5 -0.14 0.32
10 1 -5 0.68 0.36
-10 -1 5 0.96 0.51
9 1 -5 11.81 0.93
9 1 -5 11.86 0.76
-9 -1 5 10.86 1.11
8 1 -5 9.35 0.8
8 1 -5 8.69 0.65
-8 -1 5 11.81 1.05
7 1 -5 31.85 1.8
7 1 -5 34.25 1.49
-7 -1 5 27.16 2
6 1 -5 0.51 0.25
-6 -1 5 0.68 0.35
-5 -1 5 1.36 0.38
-4 -1 5 22.33 1.45
-3 -1 5 183.22 10.04
-2 -1 5 -0.01 0.06
-1 -1 5 455.38 24.61
0 -1 5 0.4 0.21
1 -1 5 98.4 5.43
2 -1 5 193.56 10.52
3 -1 5 0.35 0.19
3 -1 5 2.05 0.3
4 -1 5 4.21 0.4
4 -1 5 6.66 0.5
5 -1 5 0.51 0.22
5 -1 5 0.34 0.16
6 -1 5 0.12 0.14
6 -1 5 0.2 0.2
7 -1 5 0.55 0.26
8 -1 5 28.75 1.68
9 -1 5 0.23 0.31
10 -1 5 67.47 3.63
11 -1 5 4.48 0.63
11 -1 5 4.26 0.57
12 -1 5 11.07 1
12 -1 5 10.29 0.91
13 -1 5 4.72 0.67
13 -1 5 4.29 0.72
14 -1 5 1.73 0.55
15 -1 5 19.72 1.41
11 0 -5 21.9 1.47
10 0 -5 7.38 0.74
10 0 -5 6.45 0.62
-10 0 5 5.5 0.79
9 0 -5 2.58 0.45
9 0 -5 2.48 0.39
-9 0 5 2.64 0.57
8 0 -5 47.67 2.18
8 0 -5 45.46 2.6
-8 0 5 50.39 2.96
7 0 -5 0.33 0.22
7 0 -5 0.25 0.22
-7 0 5 0.23 0.38
6 0 -5 16.31 0.86
6 0 -5 15.22 0.99
5 0 -5 7.93 0.51
-5 0 5 6.53 0.69
-4 0 5 14.32 1.02
-3 0 5 2.56 0.38
-1 0 5 1.86 0.29
0 0 5 107.48 5.91
1 0 5 94.04 5.17
3 0 5 159.46 8.7
3 0 5 161.11 7.98
4 0 5 5.12 0.45
4 0 5 4.62 0.38
5 0 5 7.13 0.49
5 0 5 8.13 0.6
6 0 5 4.79 0.48
7 0 5 10.2 0.75
8 0 5 15.21 1.03
9 0 5 25.42 1.56
10 0 5 -0.16 0.29
11 0 5 6.92 0.8
11 0 5 9.39 0.77
12 0 5 6.76 0.71
12 0 5 6.37 0.78
13 0 5 0.31 0.4
13 0 5 -0.02 0.42
14 0 5 15.48 1.14
14 0 5 13.82 1.29
15 0 5 -0.01 0.48
12 -1 -5 15.73 1.06
11 -1 -5 18.5 1.13
10 -1 -5 0.63 0.33
10 -1 -5 0.52 0.33
9 -1 -5 51.41 2.39
9 -1 -5 50.78 2.83
-9 1 5 54.85 3.21
8 -1 -5 3.94 0.46
8 -1 -5 4.67 0.51
-8 1 5 3.62 0.6
7 -1 -5 39.5 1.84
7 -1 -5 38.54 2.16
-7 1 5 41.48 2.47
6 -1 -5 10.33 0.72
6 -1 -5 11.06 0.67
-6 1 5 10.37 0.88
5 -1 -5 17.27 0.87
-5 1 5 15.65 1.16
4 -1 -5 70.46 3.13
-4 1 5 76.51 4.19
-3 1 5 25.63 1.6
-2 1 5 9.97 0.73
-1 1 5 33.85 1.99
0 1 5 58.56 3.29
1 1 5 18.68 1.15
2 1 5 50.55 3.09
2 1 5 71.1 3.4
3 1 5 -0.07 0.04
4 1 5 142.81 7.8
4 1 5 145.01 7.19
5 1 5 8.22 0.6
6 1 5 4.09 0.45
7 1 5 78.42 4.06
8 1 5 3.4 0.48
9 1 5 28.4 1.7
10 1 5 1.07 0.39
11 1 5 7.92 0.84
11 1 5 8 0.68
12 1 5 10.02 0.84
12 1 5 9.24 0.95
13 1 5 6.29 0.7
13 1 5 6.25 0.82
14 1 5 0.19 0.5
14 1 5 -0.05 0.4
15 1 5 31.92 1.82
15 1 5 33.86 2.21
16 1 5 11.33 1.06
13 -2 -5 -0.26 0.38
12 -2 -5 1.5 0.46
11 -2 -5 2.79 0.5
10 -2 -5 61.52 2.81
9 -2 -5 4.11 0.5
-9 2 5 4.07 0.68
8 -2 -5 69.09 3.73
8 -2 -5 69.35 3.18
-8 2 5 78.47 4.26
7 -2 -5 4.67 0.46
7 -2 -5 4.17 0.45
-7 2 5 5.06 0.65
6 -2 -5 26.49 1.32
6 -2 -5 27.65 1.51
-6 2 5 27.76 1.78
5 -2 -5 95.99 4.21
-5 2 5 103.28 5.62
4 -2 -5 5.39 0.42
-4 2 5 5.45 0.56
3 -2 -5 103.4 4.43
-3 2 5 108.52 5.9
-2 2 5 36.33 2.14
-1 2 5 42.96 2.47
0 2 5 0.76 0.23
1 2 5 46.43 2.39
2 2 5 2.86 0.33
3 2 5 101.43 5.28
3 2 5 108.86 5.76
4 2 5 3.53 0.31
5 2 5 81.8 4.45
6 2 5 42.46 2.29
7 2 5 7.81 0.67
8 2 5 108.3 5.56
9 2 5 0.54 0.33
10 2 5 27.45 1.7
11 2 5 18.38 1.31
12 2 5 0.17 0.3
12 2 5 0.63 0.42
13 2 5 -0.21 0.34
13 2 5 0.02 0.45
14 2 5 13.64 1.03
14 2 5 13.63 1.27
15 2 5 -0.11 0.4
15 2 5 0.54 0.56
16 2 5 14.27 1.4
14 -3 -5 0.76 0.51
13 -3 -5 8.07 0.84
12 -3 -5 0.25 0.37
11 -3 -5 4.83 0.61
10 -3 -5 2.71 0.47
9 -3 -5 38.28 1.93
-9 3 5 41.37 2.54
8 -3 -5 0.45 0.29
-8 3 5 0.36 0.37
7 -3 -5 36.32 1.76
7 -3 -5 37.75 1.99
6 -3 -5 38.31 1.69
6 -3 -5 36.97 1.88
-6 3 5 30.59 2.19
5 -3 -5 3.23 0.37
-5 3 5 3.56 0.52
4 -3 -5 159.17 6
-4 3 5 128.81 7.94
3 -3 -5 1.21 0.22
-3 3 5 1.34 0.33
2 -3 -5 22.97 1.14
-2 3 5 25.69 1.54
-1 3 5 -0.1 0.06
0 3 5 25.37 1.47
0 3 5 31.45 1.71
1 3 5 0.31 0.2
1 3 5 0.29 0.14
2 3 5 14.61 0.92
3 3 5 51.42 2.79
3 3 5 47.93 2.56
4 3 5 68.75 3.43
4 3 5 65.28 3.69
5 3 5 33.73 1.81
5 3 5 32.74 1.87
6 3 5 0.13 0.07
6 3 5 0.8 0.14
7 3 5 106.71 5.45
8 3 5 4.44 0.55
9 3 5 71.15 3.79
10 3 5 0.47 0.34
11 3 5 1.82 0.49
12 3 5 11.89 0.84
12 3 5 11.42 1.07
13 3 5 7.71 0.92
13 3 5 6.15 0.67
14 3 5 6.28 0.7
14 3 5 7.41 0.97
15 3 5 2.41 0.7
16 3 5 -0.34 0.56
14 -4 -5 13.8 1.18
13 -4 -5 8.96 0.91
12 -4 -5 1.93 0.51
11 -4 -5 10.32 0.9
10 -4 -5 6.58 0.7
9 -4 -5 0.31 0.32
-9 4 5 0.07 0.34
8 -4 -5 21.02 1.22
-8 4 5 23.81 1.59
7 -4 -5 0.69 0.29
-7 4 5 0.7 0.36
6 -4 -5 9.23 0.64
-6 4 5 9.32 0.81
5 -4 -5 59.02 2.68
-5 4 5 62.77 3.55
4 -4 -5 22.75 1.12
-4 4 5 22.32 1.46
-3 4 5 165.98 9.12
2 -4 -5 9.35 0.54
0 4 5 48.7 2.84
0 4 5 50.73 2.52
1 4 5 8.84 0.66
1 4 5 8.97 0.55
2 4 5 35.78 1.93
2 4 5 38.54 2.14
3 4 5 52 2.97
3 4 5 64.6 3.28
4 4 5 33.74 1.93
4 4 5 33.25 1.81
5 4 5 37.48 2.17
5 4 5 39.34 2.08
6 4 5 72.01 3.94
6 4 5 70.91 3.71
7 4 5 0.8 0.17
7 4 5 -0.04 0.08
8 4 5 -0.03 0.1
9 4 5 3.71 0.52
10 4 5 10.71 0.93
11 4 5 24.15 1.6
12 4 5 0.47 0.3
12 4 5 0.14 0.43
14 4 5 2.17 0.65
15 4 5 6.58 0.98
16 4 5 -0.36 0.6
13 -5 -5 7.12 0.86
12 -5 -5 19.45 1.29
11 -5 -5 0.13 0.39
10 -5 -5 26.99 1.5
9 -5 -5 7.02 0.7
8 -5 -5 2.47 0.42
-8 5 5 1.85 0.49
7 -5 -5 4.05 0.49
-7 5 5 4.08 0.59
6 -5 -5 8.73 0.66
-6 5 5 10.91 0.89
5 -5 -5 -0.04 0.08
-5 5 5 -0.07 0.27
3 -5 -5 9.58 0.61
-3 5 5 10.23 0.8
2 -5 -5 86.12 3.67
-2 5 5 87.27 4.87
1 -5 -5 82.14 3.47
0 5 5 6.56 0.54
0 5 5 5.94 0.4
1 5 5 116.94 5.76
1 5 5 115.14 6.4
2 5 5 43.68 2.41
2 5 5 50.44 2.7
3 5 5 31.7 1.87
3 5 5 31.72 1.7
4 5 5 0.26 0.19
4 5 5 0.53 0.2
5 5 5 9.26 0.69
5 5 5 9.86 0.69
6 5 5 1.92 0.35
6 5 5 2.26 0.3
7 5 5 42.98 2.44
7 5 5 42.94 2.36
8 5 5 -0.05 0.1
10 5 5 15.98 1.19
11 5 5 0.09 0.38
12 5 5 26.02 1.75
13 5 5 1.46 0.6
14 5 5 17.94 1.51
15 5 5 1.59 0.68
16 5 5 -0.45 0.6
13 -6 -5 4.49 0.75
12 -6 -5 0.2 0.43
11 -6 -5 31.34 1.74
10 -6 -5 0.16 0.37
9 -6 -5 12.77 0.95
8 -6 -5 -0.01 0.3
-8 6 5 0.21 0.39
7 -6 -5 0.32 0.28
-7 6 5 0.55 0.37
6 -6 -5 0.37 0.2
-6 6 5 0.44 0.34
4 -6 -5 16.21 0.89
-4 6 5 15.76 1.16
3 -6 -5 22.64 1.15
-3 6 5 24.09 1.54
2 -6 -5 26.57 1.31
-2 6 5 29.27 1.76
1 -6 -5 11.62 0.67
-1 6 5 12.83 0.9
0 6 5 105.51 6.28
0 6 5 120.55 5.61
1 6 5 3.58 0.32
1 6 5 3.94 0.46
2 6 5 30.53 1.85
3 6 5 14.45 0.96
3 6 5 13.29 0.84
4 6 5 3.93 0.41
4 6 5 4.3 0.46
5 6 5 59.62 3.13
5 6 5 59.85 3.39
6 6 5 3.78 0.48
6 6 5 4.28 0.45
7 6 5 41.14 2.28
7 6 5 40.51 2.36
8 6 5 9.4 0.82
9 6 5 1.4 0.4
10 6 5 5.69 0.7
11 6 5 42.73 2.51
12 6 5 1.18 0.52
13 6 5 32.53 2.14
14 6 5 2.3 0.72
15 6 5 2.56 0.78
16 6 5 7.18 1.12
13 -7 -5 0.29 0.56
12 -7 -5 16.25 1.23
11 -7 -5 0.83 0.49
10 -7 -5 40.87 2.12
9 -7 -5 1.94 0.47
8 -7 -5 18.58 1.12
-8 7 5 17.83 1.37
7 -7 -5 10.23 0.77
-7 7 5 10.58 0.95
6 -7 -5 1.8 0.38
-6 7 5 2.2 0.47
5 -7 -5 2.45 0.37
-5 7 5 2.1 0.46
4 -7 -5 27.05 1.37
-4 7 5 27.84 1.78
3 -7 -5 1.35 0.27
-3 7 5 0.7 0.31
2 -7 -5 3.97 0.4
-2 7 5 4.54 0.55
1 -7 -5 29.01 1.37
-1 7 5 29.38 1.83
0 -7 -5 12.78 0.71
0 7 5 13.61 0.74
1 7 5 60.72 3.11
1 7 5 62.27 3.55
3 7 5 125.97 6.33
3 7 5 126.56 7
4 7 5 33.86 2.03
4 7 5 32.92 1.84
5 7 5 5.97 0.57
5 7 5 5.73 0.57
6 7 5 77.05 3.95
6 7 5 74.01 4.26
7 7 5 0.53 0.26
7 7 5 0.65 0.31
8 7 5 0.8 0.26
8 7 5 0.41 0.33
9 7 5 0.97 0.39
10 7 5 13.34 1.08
11 7 5 -0.08 0.37
12 7 5 33.74 2.15
13 7 5 -0.26 0.48
14 7 5 11.01 1.23
15 7 5 4.04 0.87
12 -8 -5 -0.04 0.49
11 -8 -5 17.33 1.25
10 -8 -5 1.42 0.49
9 -8 -5 31.02 1.69
8 -8 -5 7.95 0.77
-8 8 5 7.44 0.9
7 -8 -5 1.02 0.36
-7 8 5 1.02 0.44
6 -8 -5 10.41 0.81
-6 8 5 12.74 1.05
5 -8 -5 1.06 0.34
-5 8 5 1.63 0.43
4 -8 -5 13.86 0.86
-4 8 5 14.74 1.12
3 -8 -5 0.43 0.23
-3 8 5 0.26 0.3
2 -8 -5 2.5 0.34
-2 8 5 1.75 0.41
1 -8 -5 8.33 0.55
-1 8 5 7.55 0.76
1 8 5 34.43 1.85
1 8 5 36.43 2.19
2 8 5 97.97 4.94
3 8 5 0.9 0.24
3 8 5 0.98 0.33
4 8 5 4.75 0.49
4 8 5 4.37 0.56
5 8 5 101.8 5.32
5 8 5 106.46 5.86
6 8 5 4.35 0.56
6 8 5 4.74 0.57
7 8 5 6.62 0.68
7 8 5 6.97 0.68
8 8 5 2.63 0.44
8 8 5 2.85 0.52
9 8 5 2.03 0.49
10 8 5 1.31 0.48
11 8 5 8.85 0.99
12 8 5 1.87 0.6
13 8 5 9.73 1.12
14 8 5 -0.52 0.47
15 8 5 0.21 0.61
11 -9 -5 2.13 0.61
10 -9 -5 8.64 0.91
9 -9 -5 3.57 0.61
8 -9 -5 6.73 0.75
7 -9 -5 13.45 0.97
-7 9 5 11.43 1.12
6 -9 -5 -0.04 0.3
-6 9 5 0.08 0.36
5 -9 -5 28.21 1.49
-5 9 5 29.33 1.96
4 -9 -5 1.16 0.35
-4 9 5 1.38 0.45
3 -9 -5 10.85 0.72
-3 9 5 10.08 0.96
2 -9 -5 17.79 0.99
-2 9 5 19.45 1.36
1 -9 -5 0.74 0.24
-1 9 5 0.9 0.37
1 9 5 0.09 0.15
2 9 5 7.45 0.57
2 9 5 7.18 0.75
3 9 5 19.31 1.18
3 9 5 20.2 1.39
4 9 5 59.97 3.5
4 9 5 58.9 3.14
5 9 5 0.54 0.33
5 9 5 0.29 0.27
6 9 5 77.78 4.15
6 9 5 79.86 4.53
7 9 5 3.7 0.56
7 9 5 3.21 0.54
8 9 5 10.9 0.93
8 9 5 10.85 0.95
9 9 5 17.46 1.3
10 9 5 4.66 0.73
11 9 5 16.19 1.33
12 9 5 5.11 0.83
13 9 5 0.49 0.51
14 9 5 0.58 0.57
15 9 5 4.06 0.85
11 -10 -5 -0.44 0.46
10 -10 -5 1.81 0.59
9 -10 -5 4.83 0.72
8 -10 -5 9.65 0.91
7 -10 -5 -0.22 0.37
-7 10 5 0.61 0.46
6 -10 -5 91.6 4.18
-6 10 5 97.63 5.55
5 -10 -5 3.77 0.53
-5 10 5 4.77 0.74
4 -10 -5 27.89 1.46
-4 10 5 27.94 1.94
3 -10 -5 6.92 0.61
-3 10 5 6.49 0.83
2 -10 -5 1.76 0.33
-2 10 5 1.21 0.44
1 -10 -5 12.54 0.77
-1 10 5 13.15 1.09
0 -10 -5 5.4 0.44
0 10 5 3.08 0.54
1 10 5 -0.03 0.13
2 10 5 1.94 0.46
3 10 5 5.92 0.57
3 10 5 6.4 0.73
4 10 5 0.07 0.33
4 10 5 0.32 0.26
5 10 5 52.71 3.17
5 10 5 51.99 2.85
6 10 5 0.88 0.4
6 10 5 0.76 0.36
7 10 5 20.5 1.5
7 10 5 21.26 1.41
8 10 5 10.59 0.97
8 10 5 10.85 0.97
9 10 5 0.13 0.4
10 10 5 20.21 1.5
11 10 5 2.39 0.61
12 10 5 6.42 0.92
13 10 5 0.03 0.53
14 10 5 0.44 0.59
10 -11 -5 2.01 0.65
9 -11 -5 -0.43 0.47
8 -11 -5 0.15 0.46
7 -11 -5 50.87 2.47
-7 11 5 48.07 3.16
6 -11 -5 5.03 0.64
-6 11 5 5.08 0.8
5 -11 -5 25.63 1.43
-5 11 5 26.35 1.91
4 -11 -5 0.41 0.33
-4 11 5 0.9 0.49
3 -11 -5 1.55 0.38
-3 11 5 1.96 0.55
2 -11 -5 31.96 1.58
-2 11 5 32.08 2.16
1 -11 -5 0.58 0.27
-1 11 5 0.35 0.38
0 -11 -5 35.78 1.68
0 11 5 35.87 2.35
1 11 5 0.05 0.32
2 11 5 3.42 0.61
3 11 5 10.4 0.99
4 11 5 10.1 0.82
4 11 5 11.17 1.02
5 11 5 4.82 0.73
5 11 5 4.65 0.6
6 11 5 11.49 0.97
6 11 5 11.61 1.08
7 11 5 4.83 0.73
7 11 5 3.45 0.59
8 11 5 6.13 0.78
8 11 5 6.04 0.81
9 11 5 7.81 0.92
9 11 5 7.87 0.91
10 11 5 -0.21 0.41
11 11 5 22.58 1.68
12 11 5 1.36 0.63
13 11 5 3.09 0.78
14 11 5 0.08 0.64
9 -12 -5 7.92 0.92
8 -12 -5 3.56 0.68
7 -12 -5 0.1 0.43
6 -12 -5 6.36 0.74
-6 12 5 6.16 0.94
5 -12 -5 2.49 0.52
-5 12 5 2.29 0.64
4 -12 -5 1.17 0.41
-4 12 5 1.95 0.6
3 -12 -5 7.63 0.69
-3 12 5 6.7 0.94
2 -12 -5 5.02 0.56
-2 12 5 5.59 0.84
-1 12 5 52.95 3.32
0 12 5 7.88 0.97
1 12 5 2.1 0.54
2 12 5 27.5 1.95
3 12 5 0.78 0.48
4 12 5 19.82 1.57
5 12 5 1.3 0.52
5 12 5 0.67 0.37
6 12 5 0.95 0.52
6 12 5 1.42 0.43
7 12 5 10.69 1.06
7 12 5 10.7 1
8 12 5 7.07 0.87
8 12 5 6.49 0.88
9 12 5 -0.29 0.45
9 12 5 -0.03 0.42
10 12 5 19.43 1.52
11 12 5 0.39 0.55
12 12 5 2.66 0.75
13 12 5 3.13 0.85
8 -13 -5 12.91 1.17
7 -13 -5 3.46 0.66
6 -13 -5 1.68 0.54
-6 13 5 0.99 0.58
5 -13 -5 6.24 0.74
-5 13 5 5.28 0.9
4 -13 -5 2.1 0.49
-4 13 5 2.07 0.63
3 -13 -5 0.65 0.38
-3 13 5 0.71 0.5
-2 13 5 13.34 1.28
-1 13 5 1.31 0.54
0 13 5 14.31 1.32
1 13 5 9.07 1.03
2 13 5 0.14 0.43
3 13 5 29.56 2.14
4 13 5 0.35 0.49
5 13 5 10.03 1.12
6 13 5 2.39 0.67
7 13 5 0.12 0.44
7 13 5 0.16 0.48
8 13 5 0.04 0.48
8 13 5 0.3 0.45
9 13 5 3.28 0.71
9 13 5 3.97 0.74
10 13 5 -0.06 0.51
11 13 5 2.36 0.7
12 13 5 -0.18 0.56
6 -14 -5 1.26 0.55
-6 14 5 1.52 0.69
5 -14 -5 -0.32 0.44
-5 14 5 0.32 0.51
-4 14 5 0.25 0.54
-3 14 5 1.73 0.67
-2 14 5 3.38 0.76
-1 14 5 7.94 1.08
0 14 5 -0.2 0.46
1 14 5 12.03 1.25
2 14 5 18.79 1.6
3 14 5 0.09 0.49
4 14 5 33.5 2.39
5 14 5 0.08 0.57
6 14 5 3.36 0.8
7 14 5 1.47 0.65
8 14 5 1.68 0.6
8 14 5 0.96 0.62
9 14 5 1.46 0.62
9 14 5 1.64 0.65
10 14 5 1.78 0.69
11 14 5 1.14 0.7
-5 15 5 3.99 0.92
-4 15 5 0.29 0.59
-3 15 5 2.87 0.82
-2 15 5 0.65 0.6
-1 15 5 2.82 0.77
0 15 5 1.26 0.63
1 15 5 7.58 1.09
2 15 5 0.26 0.55
3 15 5 12.27 1.39
4 15 5 0.06 0.58
5 15 5 8.46 1.18
6 15 5 1.35 0.68
7 15 5 -0.18 0.54
8 15 5 5.11 0.94
9 15 5 3.14 0.82
1 16 5 0.33 0.61
2 16 5 5.06 0.99
3 16 5 4.22 0.96
4 16 5 6.36 1.1
5 16 5 -0.1 0.66
0 -12 6 0.39 0.91
1 -12 6 2.29 0.91
2 -12 6 2.88 0.93
3 -12 6 2.67 0.93
-4 -11 6 8.32 1.35
-3 -11 6 1.8 0.95
-2 -11 6 1.38 0.82
-1 -11 6 2.07 0.9
0 -11 6 1.74 0.85
1 -11 6 3 0.89
2 -11 6 2.07 0.82
3 -11 6 0.21 0.73
-7 -10 6 0.77 1.04
-6 -10 6 0.75 0.97
-5 -10 6 9.24 1.45
-4 -10 6 0.17 0.78
-3 -10 6 1.56 0.87
-2 -10 6 0.4 0.71
-1 -10 6 -0.04 0.64
0 -10 6 7.81 1.15
1 -10 6 2.55 0.81
2 -10 6 2.96 0.84
3 -10 6 0.15 0.67
-9 -9 6 -0.54 0.96
-8 -9 6 0.76 0.92
-7 -9 6 4.14 1.14
-6 -9 6 5.72 1.23
-5 -9 6 3.81 1.03
-4 -9 6 9.6 1.31
-3 -9 6 2.73 0.88
-2 -9 6 0.08 0.65
-1 -9 6 10.68 1.31
0 -9 6 0.57 0.67
1 -9 6 14.84 1.44
2 -9 6 0.8 0.63
3 -9 6 1.01 0.64
4 -9 6 -0.17 0.57
6 -9 6 7.35 0.78
7 -9 6 4.64 0.67
8 -9 6 0.51 0.5
9 -9 6 4.19 0.73
-10 -8 6 -0.96 0.83
-8 -8 6 3.02 0.99
-7 -8 6 1.29 0.9
-6 -8 6 8.07 1.28
-5 -8 6 1.62 0.8
-4 -8 6 0.02 0.61
-3 -8 6 9.09 1.19
-2 -8 6 10.08 1.23
-1 -8 6 3.32 0.81
0 -8 6 19.65 1.68
1 -8 6 0.2 0.56
2 -8 6 0.16 0.54
3 -8 6 5.37 0.86
4 -8 6 1.53 0.46
4 -8 6 1.35 0.39
4 -8 6 0.41 0.54
5 -8 6 6.72 0.67
6 -8 6 -0.26 0.37
7 -8 6 12.41 1.03
8 -8 6 4.7 0.69
9 -8 6 0.17 0.47
10 -8 6 3.45 0.7
-11 -7 6 -0.38 0.81
-10 -7 6 3.22 1
-9 -7 6 1.86 0.86
-8 -7 6 0.33 0.79
-7 -7 6 16.95 1.69
-6 -7 6 2.3 0.85
-5 -7 6 11.19 1.35
-4 -7 6 3.73 0.84
-3 -7 6 0.2 0.55
-2 -7 6 0.43 0.56
-1 -7 6 6.08 0.9
0 -7 6 2.8 0.67
1 -7 6 7.87 0.96
2 -7 6 0.39 0.47
3 -7 6 1.86 0.57
4 -7 6 14.56 1.32
4 -7 6 15.95 1.13
5 -7 6 0.81 0.39
6 -7 6 20.22 1.33
6 -7 6 17.54 1.14
7 -7 6 1.9 0.5
8 -7 6 5.34 0.7
9 -7 6 1.19 0.52
10 -7 6 5.52 0.78
11 -7 6 2.01 0.64
-11 -6 6 4.48 1.06
-10 -6 6 -0.06 0.71
-9 -6 6 3.24 0.9
-8 -6 6 16.49 1.7
-7 -6 6 4.18 0.91
-6 -6 6 34.52 2.51
-5 -6 6 0.61 0.62
-4 -6 6 16.4 1.51
-3 -6 6 5.04 0.81
-2 -6 6 2.48 0.62
-1 -6 6 8.12 0.96
0 -6 6 16.78 1.37
1 -6 6 3.45 0.62
2 -6 6 20.06 1.5
3 -6 6 17.12 1.34
4 -6 6 0.37 0.42
4 -6 6 0.36 0.32
5 -6 6 53.33 2.81
5 -6 6 47.95 3.09
6 -6 6 0.29 0.34
7 -6 6 18.94 1.32
7 -6 6 19.48 1.2
8 -6 6 1.91 0.5
9 -6 6 0.13 0.44
10 -6 6 2.99 0.63
11 -6 6 5.2 0.78
12 -6 6 2.04 0.64
-11 -5 6 1.29 0.78
-10 -5 6 0.39 0.72
-9 -5 6 5.47 0.97
-8 -5 6 0.51 0.61
-7 -5 6 13.37 1.43
-6 -5 6 1.22 0.64
-5 -5 6 9.33 1.08
-4 -5 6 5.96 0.85
-3 -5 6 11.94 1.14
-2 -5 6 9.85 0.99
-1 -5 6 3.15 0.58
0 -5 6 11.03 1
1 -5 6 9.92 0.93
2 -5 6 23.55 1.63
3 -5 6 3.14 0.54
4 -5 6 40.04 2.35
4 -5 6 44.43 2.59
5 -5 6 4.33 0.53
5 -5 6 2.3 0.48
6 -5 6 57.31 3.12
7 -5 6 0.28 0.33
8 -5 6 4.16 0.59
9 -5 6 25.37 1.47
10 -5 6 2.58 0.56
11 -5 6 14.06 1.18
12 -5 6 0.51 0.52
13 -5 6 0.01 0.52
13 4 -6 3.18 0.75
12 4 -6 6.22 0.91
11 4 -6 0.21 0.46
-11 -4 6 0.07 0.72
-10 -4 6 3.63 0.82
-9 -4 6 5.61 0.94
-8 -4 6 6.37 0.94
-7 -4 6 7.41 0.99
-6 -4 6 19.57 1.56
-5 -4 6 2.93 0.65
-4 -4 6 9.04 0.98
-3 -4 6 -0.17 0.13
-2 -4 6 0.8 0.28
-1 -4 6 20.48 1.48
0 -4 6 3.96 0.58
1 -4 6 0.15 0.32
2 -4 6 2.81 0.49
3 -4 6 14.44 1.08
4 -4 6 14.8 1.09
5 -4 6 49.65 2.79
5 -4 6 44.28 2.57
6 -4 6 17.04 1.15
7 -4 6 22.12 1.41
8 -4 6 39.25 2.25
9 -4 6 0.05 0.32
10 -4 6 40.73 2.41
10 -4 6 43.8 2.15
11 -4 6 0.25 0.41
12 -4 6 5.04 0.73
13 -4 6 2.21 0.6
13 3 -6 9.6 1.1
12 3 -6 0.17 0.47
11 3 -6 12.54 1.15
10 3 -6 2.02 0.54
-10 -3 6 2.75 0.78
9 3 -6 0.59 0.4
-9 -3 6 0.31 0.57
-8 -3 6 15.3 1.34
-7 -3 6 28.01 1.98
-6 -3 6 0.19 0.44
-5 -3 6 7.22 0.84
-4 -3 6 14.91 1.2
-3 -3 6 -0.08 0.12
-2 -3 6 79.28 4.56
-1 -3 6 2.05 0.43
0 -3 6 20.24 1.39
1 -3 6 33.7 2.09
2 -3 6 0.38 0.28
3 -3 6 3.69 0.47
4 -3 6 26.7 1.71
4 -3 6 33.1 1.85
5 -3 6 9.95 0.78
6 -3 6 38.09 2.15
7 -3 6 1.01 0.34
8 -3 6 0.36 0.3
9 -3 6 25.88 1.62
10 -3 6 0.63 0.39
10 -3 6 0.49 0.39
11 -3 6 25.86 1.52
11 -3 6 25.51 1.68
12 -3 6 2.05 0.55
13 -3 6 3.41 0.68
14 -3 6 2.68 0.68
13 2 -6 0.42 0.5
12 2 -6 8.03 0.94
11 2 -6 0.42 0.42
10 2 -6 2.97 0.56
-10 -2 6 2.96 0.78
9 2 -6 6.11 0.74
-9 -2 6 5.79 0.87
8 2 -6 0.56 0.32
-8 -2 6 0.04 0.45
-7 -2 6 1.42 0.54
-6 -2 6 0.49 0.42
-5 -2 6 3.2 0.55
-4 -2 6 1.59 0.42
-3 -2 6 26.48 1.72
-2 -2 6 23.89 1.57
-1 -2 6 86.39 4.89
0 -2 6 1.45 0.34
1 -2 6 14.16 1.01
2 -2 6 107.8 5.99
3 -2 6 0.29 0.22
3 -2 6 0.11 0.22
4 -2 6 43 2.08
4 -2 6 32.54 2.16
5 -2 6 11.08 0.76
5 -2 6 8.94 0.75
6 -2 6 2.2 0.4
7 -2 6 1.4 0.35
8 -2 6 17.62 1.19
9 -2 6 2.25 0.45
10 -2 6 21.24 1.42
11 -2 6 2.85 0.54
11 -2 6 4.01 0.63
12 -2 6 9.45 0.9
12 -2 6 9.73 0.98
13 -2 6 30.95 1.77
14 -2 6 1.61 0.6
12 1 -6 4.65 0.72
11 1 -6 3.1 0.58
10 1 -6 7.21 0.82
-10 -1 6 8.57 1.03
9 1 -6 1.56 0.4
-9 -1 6 1.3 0.62
8 1 -6 16.48 1.16
-8 -1 6 17.28 1.42
-7 -1 6 5.27 0.75
-6 -1 6 41.17 2.57
-5 -1 6 0.35 0.32
-4 -1 6 4.12 0.56
-3 -1 6 38.59 2.33
-2 -1 6 58.73 3.38
-1 -1 6 2.37 0.39
0 -1 6 59.51 3.4
1 -1 6 57.83 3.3
2 -1 6 20.01 1.27
3 -1 6 132.44 6.71
3 -1 6 134.05 7.31
4 -1 6 0.13 0.2
4 -1 6 0.14 0.2
5 -1 6 25.34 1.56
5 -1 6 28.71 1.57
6 -1 6 1.17 0.33
7 -1 6 6.62 0.62
8 -1 6 30.36 1.78
9 -1 6 15.8 1.12
10 -1 6 0.35 0.35
11 -1 6 5.59 0.72
12 -1 6 15.56 1.09
12 -1 6 15.67 1.24
13 -1 6 0.46 0.45
13 -1 6 0.48 0.47
14 -1 6 34.58 1.96
15 -1 6 0.97 0.55
10 0 -6 0.39 0.33
-10 0 6 0.49 0.5
9 0 -6 30.23 1.5
9 0 -6 28.11 1.75
-9 0 6 28.77 2.03
8 0 -6 1.64 0.36
8 0 -6 1.29 0.32
-8 0 6 0.78 0.43
7 0 -6 80.65 3.32
-7 0 6 70.76 4.44
-6 0 6 0.23 0.39
-5 0 6 12.96 1.05
-4 0 6 28.43 1.82
-3 0 6 9.51 0.78
-1 0 6 206.81 11.29
0 0 6 0.57 0.23
1 0 6 3.07 0.38
3 0 6 4.73 0.45
3 0 6 5.33 0.46
4 0 6 134.87 7.51
4 0 6 141 6.93
5 0 6 6.95 0.52
5 0 6 7.19 0.6
6 0 6 8.74 0.69
7 0 6 14.87 1.01
8 0 6 17.23 1.14
9 0 6 23.86 1.49
10 0 6 0.93 0.41
11 0 6 8.79 0.87
12 0 6 0 0.41
12 0 6 0.29 0.36
13 0 6 17.54 1.19
13 0 6 17.94 1.38
14 0 6 1 0.52
14 0 6 0.49 0.52
15 0 6 11.03 1.2
15 0 6 11.19 1.03
11 -1 -6 2.51 0.48
10 -1 -6 4.47 0.56
-10 1 6 4.53 0.77
9 -1 -6 0.78 0.32
9 -1 -6 0.54 0.32
-9 1 6 0.32 0.44
8 -1 -6 40.23 1.87
8 -1 -6 36.52 2.15
-8 1 6 39.92 2.5
7 -1 -6 0.97 0.3
-7 1 6 1.57 0.47
6 -1 -6 4.69 0.48
-6 1 6 5.44 0.69
-5 1 6 43.69 2.66
-4 1 6 0.15 0.29
-3 1 6 145.27 8.04
-2 1 6 0 0.06
-1 1 6 11.18 0.83
0 1 6 38.95 2.28
1 1 6 28.26 1.7
2 1 6 14.38 0.97
2 1 6 15.39 0.92
3 1 6 60.84 3.15
5 1 6 8.66 0.61
5 1 6 10.08 0.7
6 1 6 100.54 5.14
7 1 6 10.62 0.8
8 1 6 48.85 2.67
9 1 6 0.06 0.32
10 1 6 30.76 1.88
11 1 6 5.35 0.72
12 1 6 0.78 0.46
12 1 6 0.95 0.4
13 1 6 1.72 0.5
13 1 6 2.46 0.6
14 1 6 26.8 1.88
14 1 6 27.2 1.59
15 1 6 2.07 0.67
15 1 6 1.66 0.56
12 -2 -6 -0.17 0.37
11 -2 -6 2.21 0.47
10 -2 -6 15.71 1.02
9 -2 -6 32.8 1.56
-9 2 6 26.8 2.02
8 -2 -6 -0.05 0.21
8 -2 -6 0.43 0.3
-8 2 6 0.38 0.42
7 -2 -6 15.7 0.94
-7 2 6 15.59 1.23
6 -2 -6 33.53 1.57
-6 2 6 31.05 2.06
5 -2 -6 -0.15 0.2
-5 2 6 0.23 0.29
4 -2 -6 149.67 6.24
-4 2 6 149.79 8.3
-3 2 6 2.88 0.44
-1 2 6 53.64 3.08
0 2 6 88.27 4.92
1 2 6 6 0.49
1 2 6 6.9 0.54
2 2 6 32.71 1.83
2 2 6 29.48 1.68
3 2 6 3.79 0.39
3 2 6 3.57 0.38
4 2 6 40.59 2.23
4 2 6 43.02 2.38
6 2 6 8.85 0.64
6 2 6 7.25 0.5
7 2 6 81.46 4.23
8 2 6 0.18 0.27
9 2 6 36.85 2.14
10 2 6 19.4 1.34
11 2 6 6 0.76
12 2 6 3.61 0.66
13 2 6 0.94 0.52
13 2 6 0.76 0.37
14 2 6 0.27 0.52
14 2 6 0.73 0.46
15 2 6 16.89 1.23
15 2 6 17.12 1.49
16 2 6 0.75 0.64
16 2 6 1.14 0.54
14 -3 -6 9.17 0.93
13 -3 -6 0.45 0.45
12 -3 -6 1.03 0.44
11 -3 -6 8.72 0.81
10 -3 -6 0.17 0.33
9 -3 -6 26.31 1.39
-9 3 6 24.14 1.84
8 -3 -6 30.81 1.59
-8 3 6 32.87 2.17
7 -3 -6 0.82 0.31
-7 3 6 1.67 0.49
6 -3 -6 0.04 0.22
-6 3 6 0 0.34
5 -3 -6 65.83 3.03
-5 3 6 72.85 4.05
4 -3 -6 56.16 2.4
-4 3 6 51.77 3.17
3 -3 -6 102.12 4.42
-3 3 6 107.57 5.88
-2 3 6 19.23 1.27
-1 3 6 51.67 2.99
0 3 6 56.19 3.21
1 3 6 36.22 2.13
2 3 6 18.89 1.13
2 3 6 20.93 1.25
3 3 6 11.21 0.75
3 3 6 12.31 0.79
4 3 6 3.38 0.35
4 3 6 3.68 0.4
5 3 6 22.05 1.33
5 3 6 23.69 1.33
6 3 6 55.1 3.05
7 3 6 0.07 0.13
9 3 6 0.82 0.36
10 3 6 14.11 1.1
11 3 6 2.09 0.52
12 3 6 7.89 0.9
13 3 6 18.02 1.4
13 3 6 16.1 1.09
14 3 6 0.08 0.53
14 3 6 -0.08 0.37
15 3 6 1.28 0.64
16 3 6 0.44 0.62
13 -4 -6 2.79 0.61
12 -4 -6 10.61 0.97
11 -4 -6 1.19 0.44
10 -4 -6 30.29 1.64
9 -4 -6 3.48 0.53
-9 4 6 4.86 0.71
8 -4 -6 4.94 0.56
-8 4 6 4.83 0.71
7 -4 -6 0.69 0.29
-7 4 6 0.7 0.37
6 -4 -6 9.35 0.7
-6 4 6 12.19 1
5 -4 -6 22.79 1.22
-5 4 6 24.61 1.63
4 -4 -6 59.83 2.58
-4 4 6 56.23 3.41
3 -4 -6 0.46 0.19
-3 4 6 0.4 0.29
-2 4 6 60.93 3.52
-1 4 6 154.18 7.62
0 4 6 106.49 5.89
0 4 6 105.8 5.29
1 4 6 64.15 3.62
2 4 6 6.26 0.5
2 4 6 4.41 0.4
3 4 6 20.95 1.29
3 4 6 21.35 1.2
4 4 6 0.68 0.2
4 4 6 0.35 0.2
5 4 6 10.48 0.73
5 4 6 11.6 0.76
6 4 6 17.32 1.06
6 4 6 15.93 1.01
7 4 6 32.96 1.87
8 4 6 0.02 0.1
9 4 6 10.66 0.89
10 4 6 1.19 0.4
11 4 6 16.96 1.27
12 4 6 49.77 2.9
13 4 6 0.18 0.33
13 4 6 -0.11 0.45
14 4 6 23.97 1.78
15 4 6 1.55 0.64
16 4 6 -0.07 0.61
12 -5 -6 0.72 0.49
11 -5 -6 32.55 1.8
10 -5 -6 -0.11 0.36
9 -5 -6 20.7 1.26
-9 5 6 20.42 1.55
8 -5 -6 5.42 0.61
-8 5 6 5.81 0.77
7 -5 -6 0.88 0.33
-7 5 6 1.09 0.43
6 -5 -6 4.46 0.5
-6 5 6 4.29 0.62
5 -5 -6 21.24 1.16
-5 5 6 23.81 1.55
4 -5 -6 12.86 0.75
2 -5 -6 28.84 1.32
-2 5 6 27.85 1.42
-2 5 6 25.41 1.71
0 5 6 216.17 10.85
0 5 6 225.54 12.05
1 5 6 12.53 0.77
1 5 6 14.34 0.94
3 5 6 15.43 1.04
3 5 6 16.75 0.96
4 5 6 3.29 0.38
4 5 6 3.25 0.37
5 5 6 13.53 0.9
5 5 6 13.57 0.89
6 5 6 17.09 1.07
6 5 6 16.58 1.09
7 5 6 31.76 1.86
7 5 6 32.5 1.85
8 5 6 0.11 0.16
9 5 6 3.23 0.51
10 5 6 1.04 0.4
11 5 6 46.47 2.7
12 5 6 0.86 0.47
13 5 6 44.06 2.69
14 5 6 2.8 0.74
15 5 6 8.8 1.13
16 5 6 3.79 0.89
13 -6 -6 -0.18 0.5
12 -6 -6 11.21 1.06
11 -6 -6 0.55 0.45
10 -6 -6 28.82 1.62
9 -6 -6 -0.09 0.32
-9 6 6 -0.18 0.43
8 -6 -6 27.07 1.54
-8 6 6 30.57 1.98
7 -6 -6 15.84 1.01
-7 6 6 17.46 1.32
6 -6 -6 0.69 0.28
-6 6 6 0.09 0.32
3 -6 -6 0.48 0.22
-3 6 6 0.52 0.3
2 -6 -6 0.22 0.19
-2 6 6 0.06 0.25
-1 6 6 35.73 1.82
0 6 6 1.35 0.19
0 6 6 1.23 0.3
1 6 6 129.68 6.49
1 6 6 131.86 7.23
2 6 6 54.28 3.12
3 6 6 27.77 1.52
3 6 6 27.25 1.69
4 6 6 37.12 2.25
4 6 6 39.28 2.07
5 6 6 0.02 0.21
5 6 6 0 0.2
6 6 6 52.58 2.88
6 6 6 55.32 3.09
7 6 6 0.19 0.26
7 6 6 0.07 0.19
8 6 6 34.08 2
9 6 6 3.46 0.55
10 6 6 0.77 0.39
11 6 6 0.96 0.44
12 6 6 35.25 2.21
13 6 6 0.2 0.52
14 6 6 7.79 1.02
15 6 6 11.21 1.29
16 6 6 0.87 0.75
12 -7 -6 0.91 0.55
11 -7 -6 23.41 1.51
10 -7 -6 0.59 0.42
9 -7 -6 14.89 1.05
8 -7 -6 10.67 0.84
-8 7 6 11.17 1.06
7 -7 -6 2.84 0.46
-7 7 6 4.09 0.65
6 -7 -6 26.57 1.48
-6 7 6 30.74 1.96
5 -7 -6 1.43 0.34
-5 7 6 1.71 0.45
4 -7 -6 1.24 0.3
-4 7 6 0.91 0.39
3 -7 -6 15.49 0.89
-3 7 6 15.22 1.15
2 -7 -6 10.37 0.66
-2 7 6 10.57 0.88
1 -7 -6 12.73 0.72
-1 7 6 11.56 0.91
0 7 6 27.07 1.41
0 7 6 26.57 1.69
1 7 6 14 0.81
1 7 6 13.2 0.99
2 7 6 110.67 6.18
3 7 6 46.04 2.73
3 7 6 46.77 2.45
4 7 6 0.59 0.26
4 7 6 0.25 0.21
5 7 6 129.45 6.43
5 7 6 124.48 7.03
6 7 6 0.1 0.26
6 7 6 0.04 0.23
7 7 6 49.56 2.9
7 7 6 50.55 2.75
8 7 6 -0.02 0.31
9 7 6 4.99 0.67
10 7 6 6.21 0.77
11 7 6 8.07 0.92
12 7 6 4.39 0.74
13 7 6 18.44 1.49
14 7 6 3.58 0.79
15 7 6 -0.24 0.61
12 -8 -6 4.77 0.8
11 -8 -6 0.98 0.54
10 -8 -6 17.14 1.24
9 -8 -6 3.87 0.61
8 -8 -6 0.67 0.38
-8 8 6 1.37 0.49
7 -8 -6 9.98 0.79
-7 8 6 8.98 0.96
6 -8 -6 2.43 0.43
-6 8 6 2.07 0.51
5 -8 -6 24.79 1.36
-5 8 6 26.11 1.75
4 -8 -6 3.7 0.46
-4 8 6 4.5 0.64
3 -8 -6 3.67 0.44
-3 8 6 4.36 0.6
2 -8 -6 14.71 0.85
-2 8 6 13.97 1.11
1 -8 -6 19.92 0.99
-1 8 6 17.29 1.29
0 8 6 4.72 0.5
1 8 6 44.4 2.21
1 8 6 40.39 2.56
2 8 6 3.73 0.51
2 8 6 3.21 0.37
3 8 6 1.77 0.31
3 8 6 1.21 0.34
4 8 6 35.77 2.23
4 8 6 37.02 2.01
5 8 6 0.11 0.26
5 8 6 0.22 0.28
6 8 6 54.06 2.93
6 8 6 54.26 3.17
7 8 6 1.79 0.39
7 8 6 2 0.45
8 8 6 3.67 0.51
8 8 6 4.98 0.63
9 8 6 18.43 1.31
10 8 6 2.19 0.54
11 8 6 23.29 1.63
12 8 6 1.64 0.57
13 8 6 0.23 0.49
14 8 6 -0.16 0.55
15 8 6 2.35 0.74
11 -9 -6 -0.2 0.48
10 -9 -6 0.62 0.47
9 -9 -6 2.01 0.52
8 -9 -6 3.95 0.61
-8 9 6 4.73 0.79
7 -9 -6 2.88 0.52
-7 9 6 3.07 0.65
6 -9 -6 20.23 1.27
-6 9 6 23.34 1.66
5 -9 -6 3.13 0.48
-5 9 6 3.61 0.64
4 -9 -6 20.1 1.14
-4 9 6 20.77 1.53
3 -9 -6 9.67 0.71
-3 9 6 9.21 0.91
2 -9 -6 5.82 0.54
-2 9 6 6.03 0.74
1 -9 -6 27.59 1.28
-1 9 6 23.08 1.69
0 9 6 0.01 0.1
1 9 6 11.33 0.92
2 9 6 29.08 1.58
2 9 6 27.79 1.85
3 9 6 1.64 0.32
3 9 6 1.77 0.42
4 9 6 2.66 0.4
4 9 6 2.65 0.49
5 9 6 25.93 1.75
5 9 6 27.62 1.6
6 9 6 0.89 0.35
6 9 6 0.63 0.32
7 9 6 9.13 0.82
7 9 6 9.1 0.84
8 9 6 22.16 1.54
8 9 6 23.49 1.52
9 9 6 1.35 0.5
10 9 6 35.49 2.21
11 9 6 -0.18 0.43
12 9 6 14.39 1.32
13 9 6 0.46 0.56
14 9 6 -0.4 0.52
15 9 6 1.18 0.68
11 -10 -6 4.9 0.8
10 -10 -6 -0.65 0.41
9 -10 -6 -0.07 0.44
8 -10 -6 0.05 0.4
7 -10 -6 11.37 0.97
-7 10 6 11.53 1.18
6 -10 -6 0.03 0.37
-6 10 6 0.07 0.43
5 -10 -6 11.65 0.91
-5 10 6 13.05 1.19
4 -10 -6 13.31 0.89
-4 10 6 13.2 1.16
3 -10 -6 1.91 0.39
-3 10 6 2.32 0.55
2 -10 -6 25.75 1.33
-2 10 6 25.27 1.78
1 -10 -6 0.15 0.23
-1 10 6 0.23 0.34
0 10 6 12.18 1.01
1 10 6 -0.13 0.25
2 10 6 12.72 1.06
3 10 6 2.43 0.51
3 10 6 2.29 0.37
4 10 6 14.41 1.11
4 10 6 11.07 0.88
5 10 6 11.65 1.02
5 10 6 11.12 0.89
6 10 6 24.95 1.71
6 10 6 24.7 1.57
7 10 6 4.33 0.64
7 10 6 5.94 0.71
8 10 6 2.43 0.52
8 10 6 2.82 0.57
9 10 6 33.64 2.11
10 10 6 0.37 0.45
11 10 6 28.95 1.96
12 10 6 0.55 0.53
13 10 6 3.51 0.77
14 10 6 3.25 0.83
10 -11 -6 2.22 0.64
9 -11 -6 0.12 0.48
8 -11 -6 0.94 0.5
7 -11 -6 0.55 0.44
6 -11 -6 12.33 1
-6 11 6 11.44 1.17
5 -11 -6 11.76 0.91
-5 11 6 11.78 1.16
4 -11 -6 7.39 0.73
-4 11 6 8.51 1
3 -11 -6 12.99 0.86
-3 11 6 10.36 1.12
2 -11 -6 2.71 0.44
-2 11 6 3.44 0.65
1 -11 -6 16.88 0.97
-1 11 6 17.18 1.37
0 11 6 0.5 0.37
1 11 6 10.85 1
2 11 6 19.96 1.49
3 11 6 3.44 0.63
4 11 6 25.54 1.79
5 11 6 -0.01 0.39
5 11 6 0.11 0.3
6 11 6 4.35 0.61
6 11 6 4.12 0.67
7 11 6 1.15 0.45
7 11 6 1.77 0.48
8 11 6 6.84 0.84
8 11 6 5.79 0.78
9 11 6 -0.07 0.43
10 11 6 32.14 2.09
11 11 6 0.01 0.48
12 11 6 8.81 1.08
13 11 6 4.24 0.86
14 11 6 0.18 0.61
9 -12 -6 0.07 0.53
8 -12 -6 7.07 0.86
7 -12 -6 3.9 0.68
-7 12 6 5.43 0.9
6 -12 -6 16.85 1.17
-6 12 6 13.73 1.39
5 -12 -6 3.85 0.6
-5 12 6 3.83 0.77
4 -12 -6 -0.09 0.34
-4 12 6 0.13 0.44
3 -12 -6 0.19 0.35
-3 12 6 -0.3 0.42
2 -12 -6 18.92 1.14
-2 12 6 20.81 1.6
1 -12 -6 5.71 0.57
-1 12 6 5.31 0.81
0 12 6 21.43 1.63
1 12 6 5.32 0.8
2 12 6 3.38 0.68
3 12 6 31.6 2.19
4 12 6 0.03 0.44
5 12 6 19.88 1.54
6 12 6 0.77 0.41
6 12 6 0.58 0.48
7 12 6 0.07 0.43
7 12 6 -0.03 0.37
8 12 6 1.06 0.49
8 12 6 0.29 0.45
9 12 6 14.74 1.27
10 12 6 0.92 0.55
11 12 6 9.24 1.11
12 12 6 1.49 0.67
13 12 6 0.47 0.67
8 -13 -6 1.49 0.61
7 -13 -6 15.2 1.19
6 -13 -6 -0.21 0.44
-6 13 6 0.01 0.48
5 -13 -6 0.41 0.42
-5 13 6 -0.13 0.49
4 -13 -6 5.49 0.67
-4 13 6 5.22 0.9
3 -13 -6 10.56 0.89
-3 13 6 11.96 1.26
2 -13 -6 4.8 0.58
-2 13 6 4.63 0.84
-1 13 6 13.51 1.33
0 13 6 2.71 0.67
1 13 6 0.71 0.48
2 13 6 37.67 2.54
3 13 6 0.22 0.47
4 13 6 25.09 1.92
5 13 6 0.96 0.57
6 13 6 2.42 0.64
7 13 6 2.83 0.59
7 13 6 2.21 0.63
8 13 6 3.41 0.67
8 13 6 2.8 0.68
9 13 6 1.9 0.61
9 13 6 1.32 0.62
10 13 6 5.12 0.87
11 13 6 -0.21 0.54
12 13 6 0.08 0.6
6 -14 -6 4.48 0.72
-6 14 6 4.59 0.9
5 -14 -6 1.48 0.52
-5 14 6 0.61 0.57
4 -14 -6 0.83 0.46
-4 14 6 0.11 0.54
-3 14 6 6.36 1.01
-2 14 6 11.68 1.27
-1 14 6 5.63 0.93
0 14 6 0.06 0.49
1 14 6 1.03 0.55
2 14 6 1.51 0.62
3 14 6 36.03 2.52
4 14 6 -0.35 0.47
5 14 6 6.05 0.96
6 14 6 2.38 0.74
7 14 6 2.71 0.72
8 14 6 5.33 0.89
9 14 6 0.67 0.55
9 14 6 0.48 0.52
10 14 6 3.38 0.77
11 14 6 0.25 0.57
-4 15 6 3.32 0.85
-3 15 6 0.09 0.58
-2 15 6 1.88 0.69
-1 15 6 -0.02 0.54
0 15 6 0.3 0.59
1 15 6 1.38 0.68
2 15 6 1.36 0.65
3 15 6 0.03 0.54
4 15 6 12.99 1.45
5 15 6 -0.11 0.59
6 15 6 3.77 0.88
7 15 6 7.36 1.12
8 15 6 0.44 0.62
9 15 6 8.34 1.14
0 16 6 0.83 0.64
1 16 6 -0.1 0.58
2 16 6 11.07 1.38
3 16 6 1.07 0.71
4 16 6 0.43 0.66
5 16 6 4.52 0.96
6 16 6 3.89 0.92
7 16 6 0.01 0.65
-1 -11 7 -0.54 0.82
0 -11 7 2.75 0.98
1 -11 7 1.02 0.85
2 -11 7 3.15 0.95
-5 -10 7 -0.65 0.92
-4 -10 7 0.89 0.96
-3 -10 7 0.71 0.85
-2 -10 7 1.75 0.87
-1 -10 7 3.11 0.97
0 -10 7 0.92 0.78
1 -10 7 7.18 1.15
2 -10 7 -0.17 0.72
3 -10 7 1.1 0.77
-7 -9 7 0.3 0.93
-6 -9 7 4.09 1.1
-5 -9 7 -0.11 0.89
-4 -9 7 0.36 0.81
-3 -9 7 -0.28 0.71
-2 -9 7 3.18 0.93
-1 -9 7 0.77 0.73
0 -9 7 9.3 1.25
1 -9 7 0.21 0.69
2 -9 7 3.1 0.84
3 -9 7 4.86 0.91
8 -9 7 -0.01 0.51
-9 -8 7 -0.27 0.83
-8 -8 7 1.75 1.04
-7 -8 7 9.2 1.44
-6 -8 7 0.18 0.82
-5 -8 7 10.91 1.46
-4 -8 7 0.77 0.81
-3 -8 7 0.43 0.71
-2 -8 7 6.06 1.07
-1 -8 7 24.01 1.99
0 -8 7 3.81 0.89
1 -8 7 4.82 0.89
2 -8 7 0.83 0.62
3 -8 7 -0.26 0.55
4 -8 7 4.03 0.65
4 -8 7 3.95 0.79
5 -8 7 1.31 0.43
5 -8 7 1.59 0.51
6 -8 7 8.7 0.83
7 -8 7 -0.27 0.44
8 -8 7 2.74 0.62
9 -8 7 3.55 0.71
-10 -7 7 0.56 0.87
-9 -7 7 1.65 0.92
-8 -7 7 9.95 1.41
-7 -7 7 1.36 0.84
-6 -7 7 13.73 1.57
-5 -7 7 -0.39 0.7
-4 -7 7 1.69 0.75
-3 -7 7 1.91 0.75
-2 -7 7 -0.06 0.62
-1 -7 7 15.98 1.54
0 -7 7 18.4 1.62
1 -7 7 3.79 0.76
2 -7 7 2.94 0.7
3 -7 7 8.56 1.02
4 -7 7 -0.1 0.36
4 -7 7 -0.38 0.48
5 -7 7 11.1 1
6 -7 7 2.16 0.54
7 -7 7 7.71 0.81
8 -7 7 2.64 0.59
9 -7 7 2.88 0.64
10 -7 7 4.38 0.75
-11 -6 7 3.56 1.01
-10 -6 7 -0.29 0.71
-9 -6 7 4.74 1.06
-8 -6 7 2.65 0.88
-7 -6 7 17.28 1.71
-6 -6 7 0.5 0.68
-5 -6 7 12.35 1.38
-4 -6 7 1.27 0.65
-3 -6 7 3.26 0.77
-2 -6 7 23.81 1.85
-1 -6 7 0.27 0.54
0 -6 7 9.39 1.07
1 -6 7 0.13 0.47
2 -6 7 1.99 0.57
3 -6 7 0.23 0.46
4 -6 7 8.25 0.86
4 -6 7 12.66 1.1
5 -6 7 1.08 0.41
6 -6 7 11.13 0.98
7 -6 7 7.2 0.83
8 -6 7 0.48 0.45
9 -6 7 9.63 0.93
10 -6 7 -0.2 0.49
11 -6 7 10.3 1.06
-11 -5 7 -0.38 0.78
-10 -5 7 1.43 0.84
-9 -5 7 1.85 0.82
-8 -5 7 9.2 1.2
-7 -5 7 11.31 1.31
-6 -5 7 21.89 1.88
-5 -5 7 0.22 0.57
-4 -5 7 10.16 1.13
-3 -5 7 16.45 1.41
-2 -5 7 0.26 0.45
-1 -5 7 30.5 2.12
0 -5 7 0.93 0.51
1 -5 7 2.21 0.54
2 -5 7 2.03 0.53
3 -5 7 0.03 0.38
4 -5 7 13.44 1.13
5 -5 7 8.43 0.8
6 -5 7 14.67 1.13
7 -5 7 0.98 0.42
8 -5 7 8.63 0.87
9 -5 7 -0.08 0.42
9 -5 7 -0.08 0.36
10 -5 7 31.83 1.8
11 -5 7 0.34 0.53
12 -5 7 3.42 0.72
-11 -4 7 11.36 1.49
-10 -4 7 8.84 1.24
-9 -4 7 0.08 0.67
-8 -4 7 18.23 1.61
-7 -4 7 1.4 0.67
-6 -4 7 0.43 0.53
-5 -4 7 3.59 0.73
-4 -4 7 5.78 0.84
-3 -4 7 0.35 0.45
-2 -4 7 12.55 1.15
-1 -4 7 -0.06 0.37
0 -4 7 33 2.15
1 -4 7 4.97 0.69
2 -4 7 0.08 0.37
3 -4 7 37.18 2.33
4 -4 7 11.51 0.93
4 -4 7 8.18 0.78
5 -4 7 36.12 2.58
5 -4 7 51.34 2.47
6 -4 7 10.36 0.89
7 -4 7 3.57 0.56
8 -4 7 3.14 0.56
9 -4 7 30.9 1.91
10 -4 7 0.51 0.45
10 -4 7 0.35 0.39
11 -4 7 33.77 1.9
12 -4 7 1.17 0.52
13 -4 7 0.14 0.53
-11 -3 7 7.96 1.21
-10 -3 7 4.61 0.99
-9 -3 7 25.52 2.03
-8 -3 7 1.47 0.67
-7 -3 7 24.4 1.86
-6 -3 7 1.66 0.56
-5 -3 7 1.34 0.53
-4 -3 7 2.18 0.54
-3 -3 7 -0.12 0.13
-2 -3 7 8.85 0.87
-1 -3 7 0.93 0.4
0 -3 7 14.15 1.1
1 -3 7 3.57 0.54
2 -3 7 93.11 5.28
3 -3 7 1.28 0.35
3 -3 7 1.73 0.4
4 -3 7 43.68 2.79
4 -3 7 51.99 2.64
5 -3 7 12.16 0.92
5 -3 7 10.75 0.89
6 -3 7 23.03 1.47
7 -3 7 0.31 0.34
8 -3 7 8.09 0.8
9 -3 7 3.39 0.57
10 -3 7 28.18 1.78
11 -3 7 0.46 0.43
11 -3 7 0.23 0.42
12 -3 7 4.76 0.7
13 -3 7 4.7 0.75
14 -3 7 6.31 0.91
-10 -2 7 10.69 1.3
-9 -2 7 -0.27 0.62
-8 -2 7 17.73 1.56
-7 -2 7 4.48 0.77
-6 -2 7 49.57 3.09
-5 -2 7 6.35 0.78
-4 -2 7 0.34 0.34
-3 -2 7 -0.02 0.11
-1 -2 7 37.67 2.32
0 -2 7 1.6 0.4
1 -2 7 45.4 2.7
2 -2 7 3.27 0.47
3 -2 7 60.61 3.45
3 -2 7 59.59 3.18
4 -2 7 0.4 0.28
4 -2 7 0.91 0.32
5 -2 7 60.15 2.99
5 -2 7 50.35 3.12
6 -2 7 -0.08 0.27
7 -2 7 1.04 0.37
8 -2 7 32.23 1.91
9 -2 7 2.59 0.51
10 -2 7 4.02 0.61
11 -2 7 3.2 0.6
12 -2 7 13.12 1.04
12 -2 7 12.83 1.16
13 -2 7 0.4 0.51
14 -2 7 4.88 0.81
-10 -1 7 2.05 0.75
-9 -1 7 14.05 1.43
-8 -1 7 -0.11 0.48
-7 -1 7 9.52 1.05
-6 -1 7 47.38 2.94
-5 -1 7 35.48 2.27
-4 -1 7 26.31 1.75
-3 -1 7 0.09 0.13
-2 -1 7 53.75 3.15
-1 -1 7 11.45 0.89
0 -1 7 2.03 0.37
1 -1 7 1.65 0.35
2 -1 7 79.07 4.45
3 -1 7 0.24 0.24
3 -1 7 0.19 0.23
4 -1 7 94.88 4.82
4 -1 7 92.31 5.19
5 -1 7 9.72 0.79
5 -1 7 9.8 0.73
6 -1 7 3.61 0.5
7 -1 7 28.98 1.73
8 -1 7 3.98 0.56
9 -1 7 15.95 1.15
10 -1 7 1.96 0.49
11 -1 7 -0.04 0.39
12 -1 7 -0.04 0.41
12 -1 7 0.36 0.43
13 -1 7 18.17 1.43
13 -1 7 18.05 1.26
14 -1 7 2.56 0.7
14 -1 7 2.79 0.65
15 -1 7 7.56 0.93
-10 0 7 2.06 0.7
-9 0 7 2.31 0.66
-8 0 7 15.42 1.37
-7 0 7 10.26 1.12
-6 0 7 12.26 1.14
-5 0 7 34.69 2.25
-4 0 7 13.03 1.08
-3 0 7 20 1.36
-2 0 7 11.75 0.91
-1 0 7 0.85 0.3
0 0 7 24.2 1.54
1 0 7 1.11 0.29
2 0 7 24.27 1.58
2 0 7 27.9 1.5
3 0 7 71.75 4.02
4 0 7 2.92 0.41
4 0 7 1.65 0.3
5 0 7 14.24 1
5 0 7 15.62 0.99
6 0 7 31.3 1.82
7 0 7 6.88 0.66
8 0 7 49.61 2.74
9 0 7 0.18 0.35
10 0 7 11.57 0.97
11 0 7 2.19 0.53
12 0 7 1.38 0.53
13 0 7 6.41 0.75
13 0 7 7.11 0.9
14 0 7 24.13 1.77
14 0 7 25.17 1.53
15 0 7 3.5 0.78
15 0 7 3.57 0.71
10 -1 -7 11.54 0.87
-10 1 7 10.47 1.2
9 -1 -7 -0.07 0.3
-9 1 7 0.09 0.48
8 -1 -7 4.59 0.53
-8 1 7 3.89 0.72
-7 1 7 15.68 1.28
-6 1 7 7.06 0.82
-5 1 7 7.34 0.79
-4 1 7 89.83 5.14
-3 1 7 -0.06 0.27
-1 1 7 4.85 0.55
0 1 7 29.2 1.8
1 1 7 71.18 4.03
2 1 7 6.39 0.59
2 1 7 8.69 0.65
3 1 7 53.01 2.53
3 1 7 41.69 2.68
4 1 7 -0.06 0.05
5 1 7 7.96 0.64
5 1 7 7.16 0.57
6 1 7 1.23 0.31
7 1 7 104.86 5.4
8 1 7 3.24 0.49
9 1 7 24.08 1.54
10 1 7 5.64 0.72
11 1 7 11.38 1.01
12 1 7 16.61 1.3
13 1 7 3.92 0.74
13 1 7 4.98 0.66
14 1 7 2.22 0.56
14 1 7 1.51 0.61
15 1 7 0.65 0.53
15 1 7 3.22 0.77
12 -2 -7 6.41 0.73
11 -2 -7 2.34 0.51
10 -2 -7 0.6 0.39
-10 2 7 -0.03 0.5
9 -2 -7 34.1 1.81
-9 2 7 38.21 2.47
8 -2 -7 0.43 0.32
-8 2 7 0.57 0.47
7 -2 -7 1.04 0.33
-7 2 7 1.2 0.49
6 -2 -7 2.91 0.43
-6 2 7 3.49 0.59
-5 2 7 52.39 3.15
-4 2 7 1.55 0.42
-3 2 7 111.36 6.25
-2 2 7 0.04 0.08
-1 2 7 27.87 1.74
0 2 7 48.5 2.82
1 2 7 9.03 0.73
1 2 7 9 0.64
2 2 7 105.37 5.95
2 2 7 109.88 5.44
3 2 7 26.11 1.59
3 2 7 26.9 1.51
4 2 7 14.62 0.89
4 2 7 11.79 0.86
5 2 7 3.21 0.36
6 2 7 96.26 5.27
7 2 7 0.02 0.16
8 2 7 37.07 2.13
9 2 7 4.67 0.62
10 2 7 7.63 0.83
12 2 7 1.3 0.52
13 2 7 22.01 1.62
14 2 7 2.34 0.52
14 2 7 1.22 0.59
15 2 7 0.12 0.47
15 2 7 1.31 0.64
13 -3 -7 8.37 0.89
12 -3 -7 2.08 0.53
11 -3 -7 -0.15 0.36
10 -3 -7 3.54 0.56
-10 3 7 2.98 0.75
9 -3 -7 -0.22 0.32
-9 3 7 0.03 0.5
8 -3 -7 67.88 3.13
-8 3 7 70.69 4.2
7 -3 -7 6.49 0.63
-7 3 7 6.68 0.85
6 -3 -7 13.3 0.91
-6 3 7 17.23 1.28
5 -3 -7 72.05 3.28
-5 3 7 78.2 4.39
-4 3 7 87.13 4.99
-3 3 7 15.79 1.16
-1 3 7 24.98 1.59
0 3 7 7.73 0.56
0 3 7 7.82 0.68
1 3 7 210.53 10.83
1 3 7 227.2 11.95
2 3 7 3.06 0.42
2 3 7 2.86 0.35
3 3 7 48.21 2.7
3 3 7 45.5 2.48
4 3 7 7.04 0.59
4 3 7 8.85 0.64
5 3 7 17 1.05
5 3 7 15.71 1.02
6 3 7 16.52 1.02
6 3 7 15.03 0.95
7 3 7 -0.02 0.1
8 3 7 -0.15 0.15
9 3 7 1.47 0.42
10 3 7 4.94 0.66
11 3 7 3.64 0.65
12 3 7 35.56 2.22
13 3 7 0.82 0.54
14 3 7 16.05 1.41
14 3 7 15.17 1.11
15 3 7 0.42 0.45
15 3 7 0.57 0.61
16 3 7 0.6 0.67
13 -4 -7 1.98 0.58
12 -4 -7 -0.31 0.37
11 -4 -7 8.91 0.86
10 -4 -7 1.44 0.44
9 -4 -7 22.26 1.34
-9 4 7 23.51 1.74
8 -4 -7 13.66 0.96
-8 4 7 15.86 1.32
7 -4 -7 59.49 2.5
-7 4 7 46.67 3.22
6 -4 -7 36.45 1.84
-6 4 7 40.21 2.49
5 -4 -7 12.62 0.84
-5 4 7 14.41 1.17
4 -4 -7 116.61 4.67
-4 4 7 102.04 6.18
-3 4 7 47.21 2.85
-2 4 7 2.13 0.39
-1 4 7 0.14 0.11
0 4 7 13.73 0.82
1 4 7 24.3 1.49
1 4 7 22.04 1.29
2 4 7 142.31 7.32
2 4 7 151.27 8.07
3 4 7 8.14 0.64
3 4 7 7.94 0.6
4 4 7 1.15 0.25
4 4 7 1.07 0.26
5 4 7 9.02 0.68
5 4 7 8.59 0.64
6 4 7 5.33 0.56
6 4 7 5.39 0.46
8 4 7 0.06 0.13
9 4 7 0.16 0.31
10 4 7 1.19 0.43
11 4 7 11.74 1.04
12 4 7 0.19 0.45
13 4 7 19.57 1.53
14 4 7 10.35 1.19
14 4 7 10.87 0.92
15 4 7 4.46 0.88
16 4 7 5.18 0.96
13 -5 -7 -0.06 0.48
12 -5 -7 13.38 1.14
11 -5 -7 3.33 0.6
10 -5 -7 17.14 1.18
9 -5 -7 0.2 0.35
-9 5 7 0.82 0.51
8 -5 -7 5.7 0.64
-8 5 7 5.55 0.79
7 -5 -7 99.11 4.49
-7 5 7 107 5.94
6 -5 -7 6.77 0.64
-6 5 7 6.3 0.77
5 -5 -7 48.98 2.3
-5 5 7 50.74 3.03
4 -5 -7 4.97 0.49
-4 5 7 6.51 0.7
3 -5 -7 1.25 0.23
-3 5 7 1.94 0.4
-2 5 7 9.94 0.83
-2 5 7 10.23 0.63
-1 5 7 17.57 1.34
-1 5 7 23.63 1.16
0 5 7 0.09 0.11
0 5 7 0.11 0.23
1 5 7 3.2 0.32
2 5 7 11.81 0.85
2 5 7 11.7 0.75
3 5 7 13.13 0.92
3 5 7 13.52 0.84
4 5 7 26.41 1.5
4 5 7 26.48 1.61
5 5 7 7.54 0.63
5 5 7 7.65 0.6
6 5 7 61.45 3.31
6 5 7 63.46 3.52
7 5 7 6.34 0.64
8 5 7 24.36 1.53
9 5 7 0.22 0.31
10 5 7 0.14 0.34
11 5 7 0.1 0.39
12 5 7 14.03 1.23
13 5 7 -0.19 0.47
14 5 7 15.82 1.45
15 5 7 6.24 1
16 5 7 0.2 0.64
12 -6 -7 5.73 0.79
11 -6 -7 11.87 1.02
10 -6 -7 3.97 0.62
9 -6 -7 -0.06 0.35
-9 6 7 0.83 0.52
8 -6 -7 4.62 0.59
-8 6 7 5.09 0.77
7 -6 -7 1.37 0.37
-7 6 7 2.13 0.55
6 -6 -7 89.1 3.82
-6 6 7 83.39 5
5 -6 -7 0.29 0.25
-5 6 7 0.22 0.36
-3 6 7 2.64 0.5
-2 6 7 1.95 0.4
0 6 7 20.51 1.33
0 6 7 19.41 1.09
2 6 7 1.4 0.33
2 6 7 2.15 0.29
3 6 7 73.25 4.11
3 6 7 72.09 3.72
4 6 7 1.31 0.28
4 6 7 1.83 0.33
5 6 7 69.87 3.91
5 6 7 68.3 3.61
6 6 7 0.27 0.22
6 6 7 0.09 0.26
7 6 7 62.48 3.45
7 6 7 58.71 3.26
8 6 7 0.16 0.31
9 6 7 9.93 0.91
10 6 7 1.12 0.41
11 6 7 4.41 0.69
12 6 7 19.74 1.48
13 6 7 6.95 0.95
14 6 7 0.87 0.62
15 6 7 3.12 0.83
12 -7 -7 1.63 0.62
11 -7 -7 5.72 0.77
10 -7 -7 1.24 0.5
9 -7 -7 0.36 0.4
-9 7 7 -0.06 0.5
8 -7 -7 -0.24 0.32
-8 7 7 0.21 0.43
7 -7 -7 14.62 0.96
-7 7 7 13.26 1.2
6 -7 -7 4.64 0.55
-6 7 7 5.01 0.73
5 -7 -7 58.6 2.68
-5 7 7 57.98 3.49
4 -7 -7 1.74 0.35
-4 7 7 2.27 0.49
3 -7 -7 16.44 0.95
-3 7 7 16.67 1.23
2 -7 -7 50.81 2.26
-2 7 7 48.62 2.96
-1 7 7 0.02 0.09
0 7 7 24.65 1.66
0 7 7 27.17 1.4
1 7 7 14.32 1.03
2 7 7 20.2 1.14
2 7 7 19.1 1.32
3 7 7 22.87 1.29
3 7 7 21.75 1.46
4 7 7 73.1 3.76
4 7 7 72.3 4.14
5 7 7 0.91 0.31
5 7 7 0.55 0.29
6 7 7 27.39 1.64
6 7 7 28.03 1.73
7 7 7 -0.19 0.25
7 7 7 0 0.22
8 7 7 16.29 1.16
9 7 7 0.39 0.38
10 7 7 0 0.36
11 7 7 23.81 1.64
12 7 7 3.23 0.69
13 7 7 3.78 0.74
14 7 7 -0.26 0.53
15 7 7 8.92 1.18
12 -8 -7 6.91 0.91
11 -8 -7 0.89 0.53
10 -8 -7 3.68 0.66
9 -8 -7 0.21 0.41
8 -8 -7 1.82 0.47
-8 8 7 2.01 0.59
7 -8 -7 21.6 1.22
-7 8 7 17.89 1.5
6 -8 -7 18.4 1.14
-6 8 7 19.82 1.49
5 -8 -7 2.59 0.44
-5 8 7 2.44 0.57
4 -8 -7 12.26 0.82
-4 8 7 11.39 1.02
3 -8 -7 59.26 2.66
-3 8 7 57.95 3.49
2 -8 -7 -0.1 0.23
-2 8 7 -0.18 0.27
-1 8 7 -0.05 0.11
0 8 7 0.25 0.15
1 8 7 19.45 1.35
2 8 7 19.15 1.09
2 8 7 17.34 1.28
3 8 7 0.9 0.34
3 8 7 1.18 0.27
4 8 7 22 1.5
4 8 7 22.98 1.35
5 8 7 59.95 3.47
5 8 7 59.37 3.17
6 8 7 8.61 0.76
6 8 7 8.62 0.78
7 8 7 7.96 0.78
7 8 7 8.62 0.76
8 8 7 1.5 0.44
9 8 7 0.68 0.4
10 8 7 23.52 1.61
11 8 7 -0.17 0.4
12 8 7 17.65 1.43
13 8 7 1.94 0.66
14 8 7 0.4 0.58
15 8 7 2.19 0.76
11 -9 -7 15.22 1.24
10 -9 -7 3.12 0.65
9 -9 -7 3.21 0.6
8 -9 -7 13.43 1.04
-8 9 7 14.08 1.31
7 -9 -7 5.65 0.68
-7 9 7 4.33 0.75
6 -9 -7 6.93 0.73
-6 9 7 8.63 0.93
5 -9 -7 11.07 0.84
-5 9 7 11.98 1.09
4 -9 -7 5.91 0.62
-4 9 7 6.46 0.81
3 -9 -7 -0.14 0.26
-3 9 7 -0.17 0.32
2 -9 -7 41.25 1.97
-2 9 7 42.25 2.62
-1 9 7 0.84 0.29
0 9 7 0.11 0.15
1 9 7 13.93 1.1
2 9 7 0.06 0.29
2 9 7 0.12 0.23
3 9 7 48.37 2.55
3 9 7 47.08 2.89
4 9 7 10.98 0.95
4 9 7 12.2 0.86
5 9 7 17.09 1.14
5 9 7 17.38 1.27
6 9 7 5.05 0.62
6 9 7 5.73 0.68
7 9 7 0.18 0.32
7 9 7 0.09 0.33
8 9 7 2.51 0.52
8 9 7 2.16 0.48
9 9 7 37.5 2.25
10 9 7 5.73 0.79
11 9 7 30 1.99
12 9 7 0.37 0.52
13 9 7 3.87 0.79
14 9 7 9.33 1.19
15 9 7 -0.31 0.59
10 -10 -7 6.55 0.86
9 -10 -7 10.05 1
8 -10 -7 0.22 0.44
-8 10 7 0.77 0.52
7 -10 -7 7.46 0.79
-7 10 7 6.9 0.97
6 -10 -7 6.79 0.75
-6 10 7 7.77 0.99
5 -10 -7 1.13 0.4
-5 10 7 0.95 0.5
4 -10 -7 0.17 0.32
-4 10 7 0.7 0.47
3 -10 -7 2.03 0.42
-3 10 7 2.87 0.6
2 -10 -7 0.18 0.28
-2 10 7 0.1 0.38
1 -10 -7 21.94 1.16
-1 10 7 21.34 1.58
0 10 7 0.94 0.39
1 10 7 17.67 1.35
2 10 7 0.15 0.33
3 10 7 0.11 0.33
4 10 7 14.53 1.18
4 10 7 15.24 1.03
5 10 7 -0.12 0.29
5 10 7 0.04 0.33
6 10 7 8.01 0.84
6 10 7 8.21 0.78
7 10 7 -0.27 0.3
7 10 7 0.06 0.32
8 10 7 6.19 0.76
8 10 7 6.16 0.75
9 10 7 5.97 0.81
10 10 7 33.36 2.14
11 10 7 0.07 0.5
12 10 7 7.54 1
13 10 7 7.7 1.09
14 10 7 -0.25 0.6
10 -11 -7 4.66 0.79
9 -11 -7 -0.01 0.51
8 -11 -7 8.54 0.91
7 -11 -7 1.32 0.52
-7 11 7 1.58 0.62
6 -11 -7 3.85 0.61
-6 11 7 3.22 0.73
5 -11 -7 3.96 0.59
-5 11 7 2.8 0.68
4 -11 -7 2.33 0.47
-4 11 7 2.44 0.64
3 -11 -7 24.78 1.35
-3 11 7 23.19 1.79
2 -11 -7 8.49 0.72
-2 11 7 9.23 1.02
1 -11 -7 2.52 0.4
-1 11 7 2.3 0.56
0 11 7 15.23 1.27
1 11 7 17.2 1.35
2 11 7 0.03 0.36
3 11 7 5.52 0.78
4 11 7 0.28 0.41
5 11 7 22.45 1.63
5 11 7 21.95 1.42
6 11 7 -0.23 0.31
6 11 7 -0.07 0.36
7 11 7 0.43 0.41
7 11 7 0.18 0.38
8 11 7 8.15 0.91
8 11 7 9.51 0.96
9 11 7 10.04 1.06
10 11 7 1.63 0.58
11 11 7 5.71 0.88
12 11 7 2.34 0.71
13 11 7 1.85 0.71
14 11 7 5.56 0.98
9 -12 -7 6.64 0.9
8 -12 -7 0.73 0.56
7 -12 -7 5.92 0.77
-7 12 7 5.82 0.96
6 -12 -7 2.17 0.55
-6 12 7 1.26 0.61
5 -12 -7 4.99 0.69
-5 12 7 4.65 0.85
4 -12 -7 0.33 0.4
-4 12 7 -0.26 0.44
3 -12 -7 0.7 0.39
-3 12 7 0.37 0.47
2 -12 -7 32.93 1.71
-2 12 7 35.25 2.35
1 -12 -7 9.98 0.76
-1 12 7 10.2 1.06
0 12 7 0.44 0.4
1 12 7 3.52 0.67
2 12 7 30.01 2.12
3 12 7 3.71 0.72
4 12 7 18.11 1.49
5 12 7 1.04 0.5
6 12 7 6.57 0.88
6 12 7 7 0.78
7 12 7 3.8 0.71
7 12 7 5.26 0.72
8 12 7 0.06 0.45
8 12 7 -0.24 0.41
9 12 7 8.78 1.01
10 12 7 12.26 1.21
11 12 7 0.67 0.57
12 12 7 -0.08 0.53
13 12 7 3.09 0.84
8 -13 -7 5.45 0.82
7 -13 -7 0.08 0.5
-7 13 7 0.03 0.54
6 -13 -7 9.59 0.99
-6 13 7 11.5 1.29
5 -13 -7 0.62 0.46
-5 13 7 -0.06 0.47
4 -13 -7 -0.06 0.39
-4 13 7 -0.11 0.49
3 -13 -7 4.92 0.63
-3 13 7 4.12 0.83
2 -13 -7 1.94 0.44
-2 13 7 2.56 0.69
-1 13 7 14.35 1.38
0 13 7 2.36 0.64
1 13 7 1.16 0.53
2 13 7 0.65 0.49
3 13 7 11.69 1.24
4 13 7 0.83 0.53
5 13 7 4.46 0.8
6 13 7 5.07 0.86
7 13 7 -0.04 0.47
8 13 7 18.61 1.42
8 13 7 17.91 1.55
9 13 7 1.44 0.57
10 13 7 5.32 0.87
11 13 7 0.18 0.55
12 13 7 0.34 0.62
6 -14 -7 0.15 0.51
-6 14 7 0.93 0.66
5 -14 -7 -0.11 0.45
-5 14 7 -0.63 0.52
4 -14 -7 16.24 1.18
-4 14 7 16.05 1.57
3 -14 -7 6.02 0.77
-3 14 7 6.01 1
-2 14 7 14.76 1.44
-1 14 7 -0.1 0.48
0 14 7 5.84 0.94
1 14 7 1.39 0.6
2 14 7 8.99 1.15
3 14 7 1.63 0.64
4 14 7 2.9 0.74
5 14 7 0.31 0.55
6 14 7 0.11 0.55
7 14 7 15.1 1.5
8 14 7 0.68 0.59
9 14 7 12.27 1.25
10 14 7 1.46 0.64
11 14 7 1 0.64
-4 15 7 0.45 0.61
-3 15 7 7.48 1.14
-2 15 7 2.11 0.72
-1 15 7 7.3 1.1
0 15 7 2.66 0.78
1 15 7 0.9 0.6
2 15 7 10.18 1.28
3 15 7 4.02 0.88
4 15 7 1.41 0.68
5 15 7 -0.01 0.55
6 15 7 3.73 0.88
7 15 7 0.26 0.62
8 15 7 8.86 1.18
0 16 7 -0.08 0.6
1 16 7 6.02 1.06
2 16 7 -0.43 0.58
3 16 7 2.79 0.85
4 16 7 -0.17 0.64
5 16 7 0.04 0.62
6 16 7 0.19 0.68
7 16 7 4 0.93
8 16 7 -0.33 0.65
-2 -10 8 2.24 1.04
-1 -10 8 1.32 0.97
0 -10 8 6 1.2
1 -10 8 0.14 0.8
2 -10 8 2.49 0.92
-5 -9 8 3.98 1.19
-4 -9 8 0.08 0.85
-3 -9 8 0.53 0.9
-2 -9 8 2.09 0.97
-1 -9 8 0.96 0.83
0 -9 8 1.31 0.87
1 -9 8 6.05 1.08
2 -9 8 0.35 0.72
3 -9 8 0.72 0.73
3 -9 8 1.13 0.53
-7 -8 8 1.36 1.05
-6 -8 8 3.69 1.13
-5 -8 8 0.07 0.87
-4 -8 8 2.42 1.01
-3 -8 8 5.78 1.14
-2 -8 8 0.42 0.74
-1 -8 8 16.13 1.75
0 -8 8 6.96 1.12
1 -8 8 0.55 0.69
2 -8 8 0.45 0.67
3 -8 8 3.16 0.84
4 -8 8 3.74 0.68
5 -8 8 11.79 1.12
6 -8 8 0.18 0.49
7 -8 8 2.75 0.61
8 -8 8 0.96 0.57
-8 -7 8 0.74 0.91
-7 -7 8 24.55 2.28
-6 -7 8 -0.35 0.8
-5 -7 8 4.81 1.05
-4 -7 8 0.34 0.71
-3 -7 8 1.54 0.81
-2 -7 8 38.03 2.77
-1 -7 8 1.21 0.76
0 -7 8 27.32 2.12
1 -7 8 0.46 0.63
2 -7 8 0.6 0.61
3 -7 8 3.62 0.78
4 -7 8 1.44 0.52
5 -7 8 2.02 0.56
6 -7 8 1.55 0.54
7 -7 8 4.77 0.7
8 -7 8 -0.05 0.49
9 -7 8 12.98 1.14
10 -7 8 3.14 0.72
-10 -6 8 7.29 1.33
-9 -6 8 5.81 1.14
-8 -6 8 0.96 0.81
-7 -6 8 0.41 0.75
-6 -6 8 19.57 1.91
-5 -6 8 -0.44 0.69
-4 -6 8 -0.13 0.63
-3 -6 8 11.88 1.32
-2 -6 8 1.24 0.71
-1 -6 8 43.92 2.96
0 -6 8 0.64 0.59
1 -6 8 16.21 1.43
2 -6 8 1.52 0.63
3 -6 8 7.3 0.95
4 -6 8 10.79 0.98
4 -6 8 10.5 1.11
5 -6 8 -0.1 0.39
6 -6 8 0.48 0.45
7 -6 8 -0.39 0.4
8 -6 8 7.83 0.93
9 -6 8 1.23 0.53
10 -6 8 11.05 1.08
11 -6 8 0.67 0.59
-11 -5 8 9.24 1.43
-10 -5 8 4.73 1.08
-9 -5 8 0.31 0.78
-8 -5 8 42.9 3.04
-7 -5 8 6.24 1.07
-6 -5 8 0.61 0.65
-5 -5 8 2.34 0.75
-4 -5 8 1.84 0.71
-3 -5 8 3.67 0.77
-2 -5 8 19.93 1.67
-1 -5 8 1.33 0.59
0 -5 8 10.32 1.1
1 -5 8 13.51 1.23
2 -5 8 1.18 0.55
3 -5 8 10.89 1.09
4 -5 8 0.67 0.4
4 -5 8 0.6 0.46
5 -5 8 27.74 1.76
7 -5 8 0.22 0.41
8 -5 8 6.67 0.84
9 -5 8 11.38 1.07
10 -5 8 0.74 0.54
11 -5 8 7.69 0.92
12 -5 8 -0.17 0.54
-11 -4 8 2.92 1.05
-10 -4 8 4.59 1.06
-9 -4 8 26.53 2.15
-8 -4 8 1.76 0.75
-7 -4 8 33.55 2.41
-6 -4 8 5.8 0.95
-5 -4 8 2.67 0.72
-4 -4 8 1.19 0.57
-3 -4 8 0.39 0.49
-2 -4 8 16.49 1.39
-1 -4 8 12.18 1.18
0 -4 8 8.1 0.92
1 -4 8 3.75 0.64
2 -4 8 17.05 1.34
3 -4 8 14.02 1.19
4 -4 8 22.29 1.71
4 -4 8 29.14 1.64
5 -4 8 -0.12 0.32
6 -4 8 36.45 2.18
7 -4 8 10.93 0.99
8 -4 8 3.22 0.59
9 -4 8 5.71 0.74
10 -4 8 10.77 1.05
11 -4 8 -0.35 0.46
12 -4 8 2.36 0.64
-11 -3 8 1.66 0.84
-10 -3 8 13.62 1.55
-9 -3 8 0.27 0.72
-8 -3 8 42.48 2.92
-7 -3 8 6.51 0.99
-6 -3 8 10.21 1.15
-5 -3 8 0.36 0.51
-4 -3 8 6.17 0.81
-3 -3 8 40.92 2.63
-2 -3 8 0.97 0.46
-1 -3 8 8.44 0.94
0 -3 8 2.77 0.55
1 -3 8 14.55 1.15
2 -3 8 20.87 1.47
3 -3 8 48.54 2.74
3 -3 8 41.43 2.49
4 -3 8 0.28 0.35
4 -3 8 0.27 0.32
5 -3 8 31.79 1.91
6 -3 8 0.07 0.33
7 -3 8 6.63 0.77
8 -3 8 7.37 0.82
9 -3 8 0 0.37
10 -3 8 10.23 0.99
11 -3 8 3.22 0.65
12 -3 8 0.76 0.5
13 -3 8 0.25 0.51
-11 -2 8 0.89 0.82
-10 -2 8 1.44 0.8
-9 -2 8 21.23 1.87
-8 -2 8 1.26 0.71
-7 -2 8 34.36 2.38
-6 -2 8 13.42 1.26
-5 -2 8 4.44 0.72
-4 -2 8 28.47 1.94
-3 -2 8 3.99 0.57
-2 -2 8 67.24 3.94
-1 -2 8 8.59 0.87
0 -2 8 0.27 0.33
1 -2 8 10.34 0.91
2 -2 8 34.12 2.13
3 -2 8 10.4 0.77
3 -2 8 7.71 0.8
4 -2 8 43.48 2.57
4 -2 8 48.53 2.74
5 -2 8 -0.06 0.28
5 -2 8 0.05 0.29
6 -2 8 8.1 0.8
7 -2 8 29.77 1.84
8 -2 8 1.52 0.45
9 -2 8 33.1 2.03
10 -2 8 -0.06 0.39
11 -2 8 4.56 0.71
12 -2 8 1.17 0.54
13 -2 8 5.11 0.75
13 -2 8 3.7 0.75
14 -2 8 5.48 0.85
-11 -1 8 7.72 1.19
-10 -1 8 5.47 0.99
-9 -1 8 3.81 0.82
-8 -1 8 13.28 1.35
-7 -1 8 0.71 0.56
-6 -1 8 78.88 4.69
-5 -1 8 12.99 1.2
-4 -1 8 2.55 0.54
-3 -1 8 -0.13 0.13
-2 -1 8 -0.27 0.23
-1 -1 8 52.17 3.09
0 -1 8 8.52 0.79
1 -1 8 6.98 0.7
2 -1 8 45.61 2.69
4 -1 8 1.67 0.36
4 -1 8 2.83 0.43
5 -1 8 20.22 1.33
5 -1 8 20.5 1.32
6 -1 8 18.48 1.25
7 -1 8 0.24 0.33
8 -1 8 66.02 3.58
9 -1 8 1.14 0.43
10 -1 8 25.89 1.69
11 -1 8 6.69 0.82
13 -1 8 8.34 0.99
13 -1 8 6.97 0.84
14 -1 8 6.53 0.86
14 -1 8 5.34 0.89
-10 0 8 13.75 1.46
-9 0 8 7.99 1.05
-8 0 8 2.78 0.74
-7 0 8 9.05 1.08
-6 0 8 40.96 2.68
-5 0 8 2.61 0.62
-4 0 8 18.51 1.4
-3 0 8 -0.02 0.13
-1 0 8 11.91 0.96
0 0 8 18.84 1.3
1 0 8 57.31 3.31
2 0 8 3.76 0.46
2 0 8 2.17 0.39
5 0 8 0.78 0.29
5 0 8 0.08 0.25
6 0 8 5.05 0.62
7 0 8 49.77 2.76
8 0 8 0.96 0.39
9 0 8 20.5 1.4
10 0 8 0.28 0.39
11 0 8 5.17 0.74
12 0 8 21.47 1.57
13 0 8 1.34 0.6
14 0 8 10.6 1.18
14 0 8 10.23 1.01
15 0 8 0.05 0.53
15 0 8 0.37 0.61
-10 1 8 0.3 0.57
-9 1 8 12.38 1.26
-8 1 8 0.27 0.55
-7 1 8 0.76 0.47
-6 1 8 14.75 1.26
-5 1 8 28.27 1.93
-4 1 8 1.25 0.46
-3 1 8 -0.03 0.12
-2 1 8 4.73 0.58
-1 1 8 3.82 0.54
0 1 8 148.89 8.24
1 1 8 3.29 0.47
2 1 8 245.41 12.1
2 1 8 241.16 13.27
3 1 8 2.05 0.37
3 1 8 2.27 0.38
7 1 8 10.51 0.86
8 1 8 28.74 1.76
9 1 8 5.77 0.69
10 1 8 16.01 1.2
11 1 8 15.67 1.26
12 1 8 0.14 0.46
13 1 8 20.26 1.56
14 1 8 4.87 0.85
14 1 8 4.41 0.71
15 1 8 5.45 0.8
15 1 8 6.99 1
11 -2 -8 8.74 0.86
10 -2 -8 19.46 1.27
-10 2 8 23.01 1.83
9 -2 -8 0.21 0.34
-9 2 8 0.29 0.56
-8 2 8 10.23 1.17
-7 2 8 18.33 1.51
-6 2 8 21.41 1.59
-5 2 8 0.9 0.46
-4 2 8 17.85 1.33
-3 2 8 1.88 0.38
-2 2 8 2.27 0.4
-1 2 8 55.26 3.24
0 2 8 1.21 0.35
1 2 8 153.47 8.29
1 2 8 146.8 7.53
2 2 8 0.31 0.25
2 2 8 -0.03 0.26
3 2 8 108.68 6.15
3 2 8 113.55 5.66
4 2 8 2.83 0.4
4 2 8 2.82 0.42
5 2 8 4.69 0.47
5 2 8 3.23 0.45
6 2 8 -0.05 0.07
8 2 8 2.43 0.46
9 2 8 3.32 0.55
10 2 8 4.65 0.67
11 2 8 3.88 0.67
12 2 8 26 1.77
13 2 8 0.76 0.56
14 2 8 8.24 0.85
14 2 8 8.05 1.04
15 2 8 2.23 0.71
15 2 8 1.92 0.57
12 -3 -8 0.19 0.44
11 -3 -8 11.06 0.94
10 -3 -8 3.06 0.56
-10 3 8 2.9 0.75
9 -3 -8 17.5 1.17
-9 3 8 19.74 1.66
8 -3 -8 1.2 0.4
-8 3 8 1.03 0.56
7 -3 -8 15.79 1.01
-7 3 8 15.28 1.32
-6 3 8 81.83 4.81
-5 3 8 4.1 0.68
-4 3 8 33.76 2.19
-3 3 8 8.68 0.82
-2 3 8 -0.01 0.12
-1 3 8 1.22 0.36
0 3 8 8.74 0.75
0 3 8 7.89 0.63
1 3 8 -0.03 0.21
1 3 8 0.18 0.27
2 3 8 122.62 6.66
2 3 8 117.29 6.06
3 3 8 2.85 0.42
3 3 8 2.59 0.39
4 3 8 25.81 1.59
4 3 8 25.62 1.51
5 3 8 47.92 2.64
5 3 8 49.99 2.8
7 3 8 -0.14 0.09
8 3 8 1.7 0.4
9 3 8 0.22 0.33
10 3 8 1.95 0.5
11 3 8 2.76 0.6
12 3 8 6.22 0.86
13 3 8 18.24 1.48
14 3 8 0.25 0.55
15 3 8 2.12 0.77
12 -4 -8 4.16 0.7
11 -4 -8 0.49 0.42
10 -4 -8 11.87 1.01
-10 4 8 12.74 1.33
9 -4 -8 3.36 0.56
-9 4 8 3.54 0.75
8 -4 -8 6.91 0.72
-8 4 8 7.49 1.02
7 -4 -8 7.45 0.72
-7 4 8 9.7 1.1
6 -4 -8 6.17 0.64
-6 4 8 8.73 0.98
-5 4 8 313.18 17.2
-4 4 8 9.23 0.92
-3 4 8 20.64 1.49
-2 4 8 0.05 0.12
-1 4 8 4.51 0.46
-1 4 8 6.41 0.69
0 4 8 24.97 1.4
0 4 8 24.07 1.6
1 4 8 56.02 3.09
1 4 8 49.08 2.74
2 4 8 0.57 0.24
2 4 8 0.6 0.31
3 4 8 44.14 2.56
3 4 8 43.07 2.34
4 4 8 94.35 4.93
4 4 8 98.63 5.37
5 4 8 2.39 0.39
5 4 8 2.75 0.37
6 4 8 103.37 5.3
6 4 8 103.12 5.69
7 4 8 1.12 0.34
8 4 8 12.51 0.95
9 4 8 13.17 1.04
10 4 8 3.59 0.61
11 4 8 13.99 1.19
12 4 8 34.6 2.2
13 4 8 0.84 0.56
14 4 8 4.1 0.83
15 4 8 2.49 0.75
12 -5 -8 0.69 0.49
11 -5 -8 8.93 0.92
10 -5 -8 -0.25 0.35
9 -5 -8 13.97 1.01
-9 5 8 12.29 1.29
8 -5 -8 1.22 0.44
-8 5 8 1.14 0.52
7 -5 -8 0.23 0.32
-7 5 8 0.9 0.52
6 -5 -8 30.28 1.59
-6 5 8 31 2.09
5 -5 -8 35.14 1.79
-5 5 8 37.87 2.4
-4 5 8 161.17 9.01
-3 5 8 1.83 0.45
-2 5 8 0.26 0.17
-2 5 8 0.02 0.13
-1 5 8 22.52 1.26
-1 5 8 22.4 1.51
0 5 8 1.01 0.33
0 5 8 1 0.23
1 5 8 51.64 2.62
1 5 8 48.34 2.93
2 5 8 1.49 0.34
2 5 8 1.63 0.29
3 5 8 14.18 0.88
3 5 8 12.95 0.96
4 5 8 0.48 0.24
4 5 8 0.74 0.25
5 5 8 73.42 4.21
5 5 8 77.01 3.91
6 5 8 1.36 0.28
6 5 8 1.38 0.35
7 5 8 27.21 1.65
8 5 8 2.75 0.5
9 5 8 5.93 0.71
10 5 8 21.61 1.47
11 5 8 16.51 1.28
12 5 8 12.47 1.16
13 5 8 0.74 0.53
14 5 8 2.41 0.75
15 5 8 0.42 0.63
12 -6 -8 1.76 0.6
11 -6 -8 7.67 0.88
10 -6 -8 6.12 0.78
9 -6 -8 0.97 0.43
-9 6 8 0.72 0.54
8 -6 -8 0.14 0.36
-8 6 8 -0.26 0.43
7 -6 -8 7.35 0.74
-7 6 8 7.97 0.95
6 -6 -8 32.83 1.66
-6 6 8 29.7 2.11
5 -6 -8 75.63 3.29
-5 6 8 70.35 4.3
4 -6 -8 40.01 1.92
-3 6 8 25.85 1.74
-1 6 8 1.25 0.3
0 6 8 42.17 2.2
1 6 8 6.85 0.65
1 6 8 6.8 0.52
2 6 8 26.34 1.39
2 6 8 22.44 1.54
3 6 8 54.11 3.19
3 6 8 56.35 2.89
4 6 8 51.76 3.05
4 6 8 53.94 2.8
5 6 8 3.12 0.43
5 6 8 3.32 0.44
6 6 8 50.01 2.8
6 6 8 45.85 2.62
7 6 8 1.55 0.38
8 6 8 16.14 1.16
9 6 8 3.05 0.55
10 6 8 0.86 0.43
11 6 8 7.99 0.91
12 6 8 0.14 0.48
13 6 8 3.42 0.74
14 6 8 1.3 0.63
15 6 8 1.2 0.69
12 -7 -8 17.63 1.41
11 -7 -8 2.22 0.62
10 -7 -8 6.12 0.8
9 -7 -8 1.05 0.46
-9 7 8 1.57 0.59
8 -7 -8 1.75 0.47
-8 7 8 2.57 0.66
7 -7 -8 25.34 1.47
-7 7 8 27.23 1.93
6 -7 -8 2.14 0.43
-6 7 8 2.63 0.59
5 -7 -8 18.64 1.14
-5 7 8 20.07 1.49
4 -7 -8 71.48 3.22
-4 7 8 72.73 4.25
3 -7 -8 135.61 5.84
-3 7 8 140.2 7.76
-2 7 8 1.73 0.36
-1 7 8 0.04 0.11
0 7 8 1.57 0.38
1 7 8 52.78 2.73
1 7 8 53.08 3.13
2 7 8 4.62 0.57
2 7 8 5.29 0.46
3 7 8 6.48 0.55
3 7 8 5.83 0.62
4 7 8 29.43 1.63
4 7 8 27.23 1.78
5 7 8 44.76 2.63
5 7 8 43.55 2.41
6 7 8 -0.11 0.24
6 7 8 0.08 0.28
7 7 8 11.8 0.88
7 7 8 11.28 0.91
8 7 8 0.19 0.33
9 7 8 0.36 0.38
10 7 8 12.75 1.11
11 7 8 -0.25 0.4
12 7 8 12.79 1.18
13 7 8 0.99 0.56
14 7 8 1.53 0.69
15 7 8 2.94 0.83
11 -8 -8 11.26 1.11
10 -8 -8 1.34 0.56
9 -8 -8 0.37 0.44
-9 8 8 0.19 0.5
8 -8 -8 17.67 1.22
-8 8 8 19.01 1.58
7 -8 -8 0.89 0.41
-7 8 8 0.26 0.48
6 -8 -8 20.08 1.23
-6 8 8 20.83 1.62
5 -8 -8 6.53 0.67
-5 8 8 7.28 0.9
4 -8 -8 0.77 0.33
-4 8 8 1.28 0.46
3 -8 -8 91.22 3.96
-3 8 8 89.9 5.23
-2 8 8 61.53 3.66
-1 8 8 -0.03 0.11
0 8 8 5.86 0.6
1 8 8 2.65 0.47
2 8 8 10.6 0.89
2 8 8 10.9 0.75
3 8 8 32.35 2.07
3 8 8 33.48 1.83
4 8 8 4.45 0.59
4 8 8 4.71 0.53
5 8 8 24.06 1.57
5 8 8 23.14 1.43
6 8 8 6.65 0.69
6 8 8 7.79 0.72
7 8 8 0.76 0.32
7 8 8 0.62 0.34
8 8 8 0.1 0.32
9 8 8 2.79 0.56
10 8 8 -0.19 0.38
11 8 8 26.07 1.79
12 8 8 0.2 0.49
13 8 8 4.01 0.78
14 8 8 10 1.2
15 8 8 0.08 0.62
11 -9 -8 4.41 0.8
10 -9 -8 7.22 0.88
9 -9 -8 9.36 0.95
8 -9 -8 -0.13 0.37
-8 9 8 0.24 0.51
7 -9 -8 39.04 2.11
-7 9 8 42.35 2.72
6 -9 -8 1.53 0.43
-6 9 8 1.18 0.52
5 -9 -8 21.8 1.3
-5 9 8 22.91 1.71
4 -9 -8 18.11 1.1
-4 9 8 17.28 1.39
3 -9 -8 32.65 1.68
-3 9 8 34.43 2.22
-2 9 8 10.06 0.97
-1 9 8 39.73 2.49
0 9 8 1 0.34
1 9 8 5.24 0.68
2 9 8 6.14 0.74
3 9 8 2.57 0.51
3 9 8 2.38 0.38
4 9 8 72.56 4.24
4 9 8 73.23 3.81
5 9 8 0.23 0.33
5 9 8 0.22 0.29
6 9 8 25.52 1.67
6 9 8 23.91 1.55
7 9 8 1.04 0.41
7 9 8 0.46 0.36
8 9 8 1.61 0.47
9 9 8 1.9 0.52
10 9 8 10.29 1.05
11 9 8 -0.06 0.48
12 9 8 2.95 0.7
13 9 8 4.38 0.84
14 9 8 0.16 0.62
15 9 8 11.43 1.37
10 -10 -8 4.57 0.78
9 -10 -8 1.31 0.54
8 -10 -8 19.83 1.35
-8 10 8 20.26 1.7
7 -10 -8 -0.07 0.43
-7 10 8 0.01 0.47
6 -10 -8 19.94 1.32
-6 10 8 20.98 1.68
5 -10 -8 0.86 0.42
-5 10 8 1.49 0.55
4 -10 -8 11.16 0.88
-4 10 8 13.14 1.21
3 -10 -8 30.88 1.66
-3 10 8 34.75 2.25
2 -10 -8 27.21 1.39
-2 10 8 25.35 1.86
-1 10 8 2.56 0.55
0 10 8 7.35 0.86
1 10 8 0.3 0.35
2 10 8 -0.02 0.34
3 10 8 62.6 3.75
4 10 8 15.51 1.2
4 10 8 13.87 1.02
5 10 8 55.88 3.03
5 10 8 55.64 3.36
6 10 8 0.04 0.33
6 10 8 0.2 0.35
7 10 8 3.2 0.57
7 10 8 3.61 0.61
8 10 8 3.24 0.61
9 10 8 5.37 0.77
10 10 8 21.89 1.58
11 10 8 7.02 0.94
12 10 8 0.35 0.56
13 10 8 0.68 0.62
14 10 8 7.61 1.11
9 -11 -8 5.76 0.85
8 -11 -8 -0.69 0.46
-8 11 8 -0.02 0.54
7 -11 -8 10.32 0.99
-7 11 8 9.67 1.21
6 -11 -8 3.4 0.62
-6 11 8 3.29 0.76
5 -11 -8 5.35 0.71
-5 11 8 5.73 0.91
4 -11 -8 30.3 1.63
-4 11 8 30.28 2.18
3 -11 -8 5.13 0.6
-3 11 8 4.26 0.76
2 -11 -8 11.32 0.86
-2 11 8 12.38 1.19
-1 11 8 9.29 0.99
0 11 8 1.17 0.45
1 11 8 1.98 0.54
2 11 8 14.74 1.27
3 11 8 3.07 0.61
4 11 8 17.55 1.4
5 11 8 1.5 0.51
5 11 8 1.5 0.43
6 11 8 16.07 1.19
6 11 8 16.69 1.33
7 11 8 5.28 0.72
7 11 8 5.73 0.78
8 11 8 0.78 0.43
8 11 8 0.41 0.44
9 11 8 29.15 1.93
10 11 8 2.05 0.61
11 11 8 1.43 0.59
12 11 8 0.01 0.53
13 11 8 2.73 0.79
14 11 8 1.82 0.8
8 -12 -8 6.66 0.9
7 -12 -8 -0.6 0.45
-7 12 8 -0.16 0.52
6 -12 -8 10.43 1
-6 12 8 10.85 1.22
5 -12 -8 17.21 1.22
-5 12 8 19.07 1.63
4 -12 -8 1.23 0.46
-4 12 8 0.41 0.5
3 -12 -8 64.93 3.04
-3 12 8 67.2 4.09
2 -12 -8 0.26 0.34
-2 12 8 0.47 0.49
-1 12 8 8.35 1.04
0 12 8 3.09 0.64
1 12 8 6.18 0.86
2 12 8 14.53 1.3
3 12 8 10.51 1.08
4 12 8 0 0.45
5 12 8 3.52 0.69
6 12 8 0.48 0.47
7 12 8 0.03 0.41
7 12 8 0.11 0.41
8 12 8 19.45 1.47
8 12 8 19.35 1.52
9 12 8 1.12 0.55
10 12 8 6.27 0.92
11 12 8 2.46 0.7
12 12 8 0.44 0.6
13 12 8 1.18 0.67
7 -13 -8 2.11 0.63
-7 13 8 2.07 0.73
6 -13 -8 5.29 0.79
-6 13 8 6.37 1.04
5 -13 -8 0.01 0.44
-5 13 8 0.17 0.54
4 -13 -8 5.01 0.7
-4 13 8 6.76 1.01
3 -13 -8 -0.27 0.34
-3 13 8 -0.25 0.49
-2 13 8 44.31 2.96
-1 13 8 1.32 0.59
0 13 8 2.01 0.62
1 13 8 6.05 0.9
2 13 8 3.71 0.76
3 13 8 17.61 1.55
4 13 8 8.63 1.1
5 13 8 0.37 0.51
6 13 8 0 0.5
7 13 8 6.13 0.91
8 13 8 1.33 0.61
8 13 8 1.52 0.56
9 13 8 12.69 1.21
10 13 8 -0.01 0.5
11 13 8 4.18 0.84
12 13 8 6.65 1.03
6 -14 -8 -0.08 0.5
-6 14 8 1.22 0.68
5 -14 -8 0.86 0.53
-5 14 8 0.52 0.63
4 -14 -8 0.19 0.45
-4 14 8 0.05 0.56
3 -14 -8 2.24 0.53
-3 14 8 2.7 0.76
-2 14 8 0.96 0.63
-1 14 8 14.33 1.42
0 14 8 3.54 0.79
1 14 8 -0.06 0.51
2 14 8 5.71 0.94
3 14 8 0.07 0.55
4 14 8 3.17 0.79
5 14 8 0.05 0.52
6 14 8 1.47 0.65
7 14 8 3.77 0.83
8 14 8 11.82 1.32
10 14 8 5.87 0.92
11 14 8 3.8 0.82
5 -15 -8 -0.16 0.5
-3 15 8 7.03 1.12
-2 15 8 4.92 0.96
-1 15 8 2.38 0.79
0 15 8 1.57 0.67
1 15 8 5.5 0.99
2 15 8 -0.1 0.54
3 15 8 5.57 1.01
4 15 8 0.31 0.6
5 15 8 -0.33 0.59
6 15 8 4.39 0.92
7 15 8 7.84 1.13
8 15 8 4.78 0.93
0 16 8 5.66 1.09
1 16 8 0.21 0.63
2 16 8 12.13 1.47
3 16 8 -0.53 0.62
4 16 8 3.07 0.88
5 16 8 2.79 0.87
6 16 8 1.26 0.74
7 16 8 5.8 1.1
8 16 8 1.66 0.76
-2 -9 9 0.86 0.9
-1 -9 9 9.37 1.43
0 -9 9 2.15 0.99
1 -9 9 2.24 0.92
2 -9 9 0.55 0.8
3 -9 9 2.32 0.66
4 -9 9 0.69 0.6
-5 -8 9 6.08 1.31
-4 -8 9 1.41 0.96
-3 -8 9 0.65 0.83
-2 -8 9 14.3 1.66
-1 -8 9 0.73 0.78
0 -8 9 4.7 1.04
1 -8 9 0.47 0.76
2 -8 9 0.69 0.76
3 -8 9 -0.15 0.71
3 -8 9 0.56 0.51
4 -8 9 1.09 0.57
5 -8 9 1.25 0.57
-7 -7 9 6.96 1.33
-6 -7 9 0.58 0.87
-5 -7 9 0.58 0.86
-4 -7 9 -0.42 0.82
-3 -7 9 7.19 1.21
-2 -7 9 0.16 0.77
-1 -7 9 26.82 2.22
0 -7 9 0.74 0.7
1 -7 9 6.42 1.06
2 -7 9 15.97 1.6
3 -7 9 1.58 0.56
3 -7 9 2.78 0.82
4 -7 9 10.82 1.07
5 -7 9 5.4 0.83
6 -7 9 2.41 0.65
8 -7 9 3.01 0.66
9 -7 9 0.41 0.58
-8 -6 9 1.74 0.94
-7 -6 9 -1 0.79
-6 -6 9 10.38 1.4
-5 -6 9 2.21 0.89
-4 -6 9 4.08 0.95
-3 -6 9 0.16 0.71
-2 -6 9 18.43 1.78
-1 -6 9 0.05 0.64
0 -6 9 20.96 1.76
1 -6 9 2.89 0.78
2 -6 9 2.21 0.7
3 -6 9 19.18 1.75
3 -6 9 25.89 1.6
4 -6 9 5.71 0.8
5 -6 9 12.2 1.12
6 -6 9 2.32 0.62
7 -6 9 0.26 0.48
8 -6 9 13.99 1.27
9 -6 9 16.75 1.32
10 -6 9 3.12 0.71
-9 -5 9 8.39 1.35
-8 -5 9 -0.12 0.73
-7 -5 9 4.4 1.04
-6 -5 9 2.88 0.89
-5 -5 9 3.8 0.91
-4 -5 9 0.07 0.6
-3 -5 9 22.05 1.89
-2 -5 9 6.78 1.04
-1 -5 9 4.82 0.87
0 -5 9 0.6 0.6
1 -5 9 2.02 0.63
2 -5 9 11.32 1.18
3 -5 9 1.7 0.59
3 -5 9 2.2 0.52
4 -5 9 26.32 2.09
4 -5 9 34.44 1.96
5 -5 9 0.32 0.41
6 -5 9 3.71 0.65
7 -5 9 16.22 1.31
8 -5 9 0.32 0.46
9 -5 9 13.87 1.23
11 -5 9 -0.23 0.53
-10 -4 9 2.05 0.91
-9 -4 9 -0.35 0.72
-8 -4 9 40.04 2.87
-7 -4 9 1.73 0.8
-6 -4 9 8.57 1.16
-5 -4 9 33.66 2.43
-4 -4 9 4.57 0.83
-3 -4 9 20.95 1.74
-2 -4 9 4.87 0.84
-1 -4 9 6.26 0.89
0 -4 9 0.69 0.54
1 -4 9 10.26 1.1
2 -4 9 1.1 0.51
3 -4 9 69.54 4
3 -4 9 64.3 3.63
4 -4 9 5.73 0.73
4 -4 9 6.16 0.78
5 -4 9 24.57 1.62
6 -4 9 2.22 0.56
7 -4 9 0.01 0.43
8 -4 9 29.54 1.93
9 -4 9 -0.29 0.41
10 -4 9 5.47 0.82
12 -4 9 0.23 0.52
-11 -3 9 -0.57 0.83
-10 -3 9 0.22 0.75
-9 -3 9 12.66 1.52
-8 -3 9 0.94 0.75
-7 -3 9 21.51 1.88
-6 -3 9 -0.32 0.56
-5 -3 9 8.48 1.06
-4 -3 9 47.41 3.04
-3 -3 9 3.15 0.66
-2 -3 9 13.61 1.27
-1 -3 9 0.13 0.44
0 -3 9 1.96 0.53
1 -3 9 4.47 0.69
2 -3 9 13.02 1.14
3 -3 9 1.1 0.41
3 -3 9 2.73 0.55
4 -3 9 17.39 1.3
4 -3 9 19.61 1.39
5 -3 9 6.8 0.77
6 -3 9 0.57 0.41
7 -3 9 8.98 0.95
8 -3 9 -0.12 0.4
9 -3 9 42.75 2.54
10 -3 9 2.34 0.6
11 -3 9 2.3 0.61
12 -3 9 1.99 0.66
12 -3 9 1.28 0.6
-11 -2 9 4.71 1.02
-10 -2 9 1.46 0.83
-9 -2 9 10.03 1.35
-8 -2 9 7.28 1.13
-7 -2 9 3.38 0.82
-6 -2 9 5.92 0.93
-5 -2 9 21.73 1.7
-4 -2 9 4.11 0.71
-3 -2 9 73.5 4.34
-2 -2 9 10.09 1.03
-1 -2 9 3.84 0.62
0 -2 9 19.95 1.47
1 -2 9 0.33 0.39
2 -2 9 2.03 0.48
3 -2 9 2.36 0.49
4 -2 9 0.39 0.36
4 -2 9 1.19 0.4
5 -2 9 7.17 0.79
6 -2 9 4.75 0.67
7 -2 9 1.44 0.47
8 -2 9 10.33 0.99
9 -2 9 7.85 0.88
10 -2 9 31.87 2.04
11 -2 9 6.95 0.89
12 -2 9 -0.1 0.49
13 -2 9 11.75 1.11
13 -2 9 10.5 1.19
-11 -1 9 0.61 0.78
-10 -1 9 23.28 1.97
-9 -1 9 2.19 0.74
-8 -1 9 6.46 1.02
-7 -1 9 15.73 1.49
-6 -1 9 25.42 1.97
-5 -1 9 0.14 0.49
-4 -1 9 48.05 3.01
-3 -1 9 0.71 0.44
-2 -1 9 35.79 2.29
-1 -1 9 0.78 0.41
0 -1 9 3.95 0.59
1 -1 9 53.55 3.17
2 -1 9 1.17 0.4
3 -1 9 60.76 3.53
4 -1 9 4.23 0.56
4 -1 9 3.4 0.53
5 -1 9 1.06 0.39
6 -1 9 0.35 0.35
7 -1 9 37.49 2.23
8 -1 9 0 0.37
9 -1 9 21.26 1.5
10 -1 9 3.64 0.66
11 -1 9 12.37 1.15
12 -1 9 9.16 1.05
13 -1 9 0.26 0.54
14 -1 9 17.94 1.37
14 -1 9 17.83 1.53
-11 0 9 17.11 1.83
-10 0 9 0.36 0.63
-9 0 9 23.46 1.96
-8 0 9 0.5 0.61
-7 0 9 0.27 0.6
-6 0 9 14.57 1.41
-5 0 9 2.54 0.63
-4 0 9 0.87 0.51
-3 0 9 8.91 0.89
-2 0 9 4.22 0.64
-1 0 9 5.65 0.7
0 0 9 20.43 1.42
1 0 9 3.27 0.51
2 0 9 118.45 6.75
2 0 9 148.06 7.44
3 0 9 0.61 0.33
3 0 9 -0.03 0.12
5 0 9 13.16 1
5 0 9 13.24 1
6 0 9 12.08 0.97
7 0 9 9.02 0.85
8 0 9 14.39 1.11
9 0 9 11.43 1.02
10 0 9 21.02 1.49
11 0 9 16.41 1.32
12 0 9 0.02 0.46
13 0 9 25.54 1.83
14 0 9 -0.42 0.52
14 0 9 0.22 0.5
-10 1 9 32.97 2.45
-9 1 9 0.22 0.55
-8 1 9 27.04 2.07
-7 1 9 13.3 1.33
-6 1 9 2.47 0.63
-5 1 9 10.76 1.09
-4 1 9 5.01 0.7
-3 1 9 0.01 0.19
-2 1 9 0.35 0.26
-1 1 9 26.58 1.78
0 1 9 2.05 0.45
1 1 9 91.1 5.18
2 1 9 4.73 0.62
2 1 9 5 0.57
3 1 9 107.01 5.51
6 1 9 44.09 2.49
7 1 9 3.33 0.53
8 1 9 10.25 0.92
9 1 9 0.81 0.4
10 1 9 -0.21 0.38
11 1 9 1.41 0.54
12 1 9 24.37 1.74
13 1 9 0.72 0.55
14 1 9 9.45 1.15
-10 2 9 -0.62 0.59
-9 2 9 37.78 2.66
-8 2 9 11.93 1.31
-7 2 9 19.25 1.59
-6 2 9 80.04 4.76
-5 2 9 46.4 2.94
-4 2 9 17.22 1.34
-3 2 9 0.01 0.13
-2 2 9 -0.09 0.14
-1 2 9 3.64 0.58
0 2 9 59.59 3.49
1 2 9 20.87 1.26
1 2 9 19.39 1.37
2 2 9 188.16 9.41
2 2 9 186.57 10.3
3 2 9 1.52 0.36
3 2 9 1.71 0.4
4 2 9 50.76 2.73
4 2 9 49 2.9
5 2 9 65.2 3.71
6 2 9 0.08 0.14
7 2 9 41.03 2.34
8 2 9 0.13 0.33
9 2 9 1.19 0.42
10 2 9 5.32 0.75
11 2 9 12.4 1.14
12 2 9 5.77 0.86
13 2 9 7.81 0.99
14 2 9 0.96 0.61
15 2 9 3.29 0.67
15 2 9 3.78 0.85
-10 3 9 0.73 0.62
-9 3 9 1.49 0.65
-8 3 9 20.32 1.68
-7 3 9 51.52 3.3
-6 3 9 8.44 1.03
-5 3 9 11.21 1.09
-4 3 9 0.19 0.39
-3 3 9 0.24 0.19
-2 3 9 -0.14 0.1
-1 3 9 0.04 0.31
0 3 9 56.98 2.91
0 3 9 52.05 3.21
1 3 9 42.62 2.47
1 3 9 38.65 2.23
2 3 9 4.96 0.53
2 3 9 4.59 0.59
3 3 9 45.21 2.58
3 3 9 41.15 2.37
4 3 9 20.12 1.33
4 3 9 22.6 1.43
5 3 9 2.8 0.43
5 3 9 2.44 0.43
6 3 9 79.32 4.17
7 3 9 2.91 0.47
8 3 9 20.3 1.35
9 3 9 11.52 0.99
10 3 9 0.53 0.43
11 3 9 44.15 2.63
12 3 9 13.23 1.2
13 3 9 -0.22 0.51
14 3 9 3.68 0.78
15 3 9 2.08 0.76
15 3 9 2.76 0.61
12 -4 -9 3.56 0.69
11 -4 -9 6.21 0.79
10 -4 -9 2.67 0.54
-10 4 9 1.76 0.7
9 -4 -9 1.41 0.48
-9 4 9 1.07 0.68
-8 4 9 9.11 1.15
-7 4 9 18.36 1.61
-6 4 9 53.52 3.37
-5 4 9 6.63 0.87
-4 4 9 35.95 2.37
-3 4 9 0.86 0.33
-2 4 9 -0.07 0.12
-1 4 9 93.37 4.52
-1 4 9 82.51 5.03
0 4 9 5.88 0.7
0 4 9 5.74 0.55
1 4 9 36.9 2.37
1 4 9 39.99 2.12
2 4 9 2.62 0.48
3 4 9 5.05 0.59
3 4 9 4.03 0.5
4 4 9 0.03 0.25
4 4 9 0.19 0.28
5 4 9 80.8 4.4
5 4 9 88.48 4.76
6 4 9 1.25 0.37
7 4 9 69.4 3.7
8 4 9 20.4 1.36
9 4 9 8.02 0.82
10 4 9 37.03 2.24
11 4 9 1.89 0.55
12 4 9 9.63 1.08
13 4 9 4.19 0.8
14 4 9 0.23 0.57
15 4 9 1.52 0.5
15 4 9 0.8 0.66
12 -5 -9 -0.09 0.47
11 -5 -9 3.37 0.65
10 -5 -9 1.84 0.54
-10 5 9 2.92 0.85
9 -5 -9 2.29 0.53
-9 5 9 2.27 0.68
8 -5 -9 0.55 0.38
-8 5 9 0.69 0.6
7 -5 -9 7.66 0.78
-7 5 9 11.18 1.19
-6 5 9 1.84 0.62
-5 5 9 85.7 5.06
-4 5 9 0.85 0.47
-3 5 9 17.73 1.4
-1 5 9 0.25 0.24
-1 5 9 -0.22 0.3
0 5 9 93.1 5.35
0 5 9 94.6 4.78
1 5 9 5.41 0.65
2 5 9 33.86 2.1
2 5 9 34.47 1.9
3 5 9 10.28 0.76
3 5 9 10.48 0.84
4 5 9 19.25 1.2
4 5 9 18.43 1.26
5 5 9 9.68 0.74
5 5 9 8.1 0.7
6 5 9 81.58 4.76
6 5 9 89.79 4.46
7 5 9 -0.11 0.29
8 5 9 15.14 1.13
9 5 9 20.64 1.42
10 5 9 1.81 0.5
11 5 9 41.04 2.48
12 5 9 1.33 0.56
13 5 9 7.16 0.97
14 5 9 1.82 0.7
15 5 9 0.05 0.64
11 -6 -9 -0.05 0.46
10 -6 -9 2.45 0.57
9 -6 -9 2.62 0.57
-9 6 9 2.87 0.75
8 -6 -9 0.56 0.43
-8 6 9 1.07 0.58
7 -6 -9 9.41 0.87
-7 6 9 9.42 1.08
6 -6 -9 8.13 0.78
-6 6 9 9.76 1.04
-5 6 9 0.56 0.46
-4 6 9 3.46 0.63
-3 6 9 12.98 1.1
-2 6 9 -0.06 0.1
0 6 9 0.16 0.21
0 6 9 0.22 0.31
1 6 9 122.58 7.01
1 6 9 128.1 6.3
2 6 9 39.03 2.43
2 6 9 40.96 2.16
3 6 9 -0.09 0.25
3 6 9 0.38 0.25
4 6 9 45.67 2.37
4 6 9 41.14 2.56
5 6 9 6.42 0.64
5 6 9 6.94 0.64
6 6 9 0.57 0.3
6 6 9 0.48 0.25
7 6 9 12 0.97
8 6 9 8.5 0.83
9 6 9 0.69 0.41
10 6 9 18.72 1.38
11 6 9 5 0.75
12 6 9 42.25 2.61
13 6 9 4.88 0.83
14 6 9 -0.21 0.54
15 6 9 8 1.17
11 -7 -9 24.05 1.61
10 -7 -9 1.82 0.58
9 -7 -9 1.98 0.56
-9 7 9 2.02 0.66
8 -7 -9 12.95 1.06
-8 7 9 15.95 1.43
7 -7 -9 1.13 0.42
-7 7 9 1.42 0.59
6 -7 -9 27.1 1.52
-6 7 9 27.84 2.01
5 -7 -9 10.63 0.83
-5 7 9 10.58 1.12
-4 7 9 1.71 0.52
-3 7 9 1.11 0.45
-1 7 9 0 0.14
0 7 9 85.19 4.89
1 7 9 11.27 0.73
1 7 9 10.12 0.9
2 7 9 4.56 0.58
2 7 9 3.79 0.43
3 7 9 70.55 4.01
3 7 9 68.21 3.6
4 7 9 5.64 0.58
4 7 9 6.73 0.65
5 7 9 34.45 2.13
5 7 9 34.97 1.97
6 7 9 9.26 0.78
6 7 9 8.58 0.79
7 7 9 4.18 0.57
8 7 9 0.36 0.38
9 7 9 10.4 0.98
10 7 9 1.22 0.49
11 7 9 11.85 1.11
12 7 9 7.27 0.95
13 7 9 0.27 0.54
14 7 9 11.25 1.28
15 7 9 -0.12 0.65
11 -8 -9 1.5 0.64
10 -8 -9 11.44 1.09
9 -8 -9 8.13 0.91
-9 8 9 8.82 1.13
8 -8 -9 0.91 0.47
-8 8 9 0.86 0.56
7 -8 -9 53.2 2.66
-7 8 9 56.57 3.47
6 -8 -9 0.62 0.38
-6 8 9 0.59 0.52
5 -8 -9 17.66 1.09
-5 8 9 16.66 1.41
-4 8 9 1.59 0.52
-3 8 9 0.98 0.46
-2 8 9 4.09 0.62
-1 8 9 24.44 1.65
0 8 9 0.46 0.33
1 8 9 20.32 1.43
2 8 9 13.03 0.86
2 8 9 12.88 1.02
3 8 9 0.88 0.28
3 8 9 0.9 0.34
4 8 9 83.2 4.7
4 8 9 80.65 4.24
5 8 9 1.13 0.37
5 8 9 0.95 0.33
6 8 9 52.2 3
6 8 9 48.46 2.77
7 8 9 9.31 0.88
7 8 9 10.74 0.9
8 8 9 1.2 0.43
9 8 9 5.74 0.76
10 8 9 13.39 1.15
11 8 9 0.08 0.47
12 8 9 0.58 0.53
13 8 9 4.11 0.84
14 8 9 1.35 0.68
15 8 9 5.29 0.97
10 -9 -9 11.81 1.15
9 -9 -9 0.1 0.46
-9 9 9 -0.04 0.57
8 -9 -9 33.43 1.86
-8 9 9 32.82 2.36
7 -9 -9 1.28 0.48
-7 9 9 0.82 0.55
6 -9 -9 23.88 1.43
-6 9 9 24.7 1.88
5 -9 -9 14.47 0.99
-5 9 9 12.68 1.24
4 -9 -9 1.3 0.4
-4 9 9 1.33 0.52
-3 9 9 7.92 0.91
-2 9 9 11.8 1.06
-1 9 9 0.91 0.39
0 9 9 28.08 1.89
1 9 9 5.06 0.68
2 9 9 0.1 0.33
3 9 9 55.08 3.37
3 9 9 57.56 2.99
4 9 9 7.87 0.7
4 9 9 7.97 0.82
5 9 9 31.09 1.79
5 9 9 29.77 1.97
6 9 9 21.63 1.44
6 9 9 23.41 1.56
7 9 9 22.89 1.59
7 9 9 23.91 1.53
8 9 9 11.44 1.01
9 9 9 13.11 1.13
10 9 9 3.82 0.7
11 9 9 2.49 0.64
12 9 9 1.81 0.64
13 9 9 1.02 0.62
14 9 9 4.06 0.88
10 -10 -9 0.06 0.52
9 -10 -9 21.01 1.5
8 -10 -9 0.12 0.48
-8 10 9 0.36 0.54
7 -10 -9 15.79 1.15
-7 10 9 13.9 1.37
6 -10 -9 -0.01 0.39
-6 10 9 -0.12 0.44
5 -10 -9 17.75 1.18
-5 10 9 17.96 1.52
4 -10 -9 33.73 1.79
-4 10 9 34.82 2.34
-3 10 9 0.45 0.46
-2 10 9 41.74 2.69
-1 10 9 2.5 0.55
0 10 9 2.21 0.52
1 10 9 3.51 0.61
2 10 9 17.28 1.34
3 10 9 0.72 0.42
4 10 9 12.87 1.08
4 10 9 12.15 0.93
5 10 9 0.65 0.35
5 10 9 0.86 0.43
6 10 9 16.53 1.32
6 10 9 18.64 1.25
7 10 9 19.71 1.45
7 10 9 19.08 1.36
8 10 9 1.18 0.49
9 10 9 14.28 1.22
10 10 9 2.27 0.63
11 10 9 1.89 0.62
12 10 9 1.54 0.65
13 10 9 0.52 0.59
14 10 9 1.56 0.77
9 -11 -9 0.28 0.57
8 -11 -9 9.98 1.04
-8 11 9 9.09 1.23
7 -11 -9 1.34 0.55
-7 11 9 1.23 0.62
6 -11 -9 4.53 0.7
-6 11 9 4.28 0.83
5 -11 -9 11.15 0.99
-5 11 9 11.28 1.25
4 -11 -9 14.17 1.07
-4 11 9 15.04 1.36
-3 11 9 53.22 3.37
-2 11 9 0.55 0.47
-1 11 9 42.03 2.74
0 11 9 3.75 0.67
1 11 9 12.38 1.14
2 11 9 1.26 0.5
3 11 9 5.34 0.79
4 11 9 19.35 1.5
5 11 9 30.01 2.05
6 11 9 2.96 0.62
6 11 9 2.86 0.54
7 11 9 4.82 0.69
7 11 9 4.62 0.72
8 11 9 27.13 1.79
9 11 9 -0.06 0.43
10 11 9 11.6 1.15
11 11 9 -0.25 0.51
12 11 9 0.59 0.59
13 11 9 6.34 0.99
14 11 9 0.5 0.74
8 -12 -9 0.98 0.6
-8 12 9 0.86 0.69
7 -12 -9 3 0.68
-7 12 9 1.8 0.72
6 -12 -9 1.09 0.54
-6 12 9 0.75 0.63
5 -12 -9 0.3 0.42
-5 12 9 0.05 0.5
4 -12 -9 36.38 1.95
-4 12 9 36.71 2.58
-3 12 9 4.85 0.86
-2 12 9 22.14 1.75
-1 12 9 7.61 0.99
0 12 9 6.09 0.86
1 12 9 12.72 1.21
2 12 9 18.12 1.49
3 12 9 23.84 1.77
4 12 9 1.42 0.54
5 12 9 -0.34 0.38
6 12 9 -0.01 0.44
7 12 9 5.56 0.76
7 12 9 5.45 0.82
8 12 9 1.17 0.52
9 12 9 28.48 1.93
10 12 9 0.62 0.52
11 12 9 1.41 0.65
13 12 9 -0.47 0.63
7 -13 -9 0.16 0.53
-7 13 9 0.8 0.69
6 -13 -9 0.15 0.5
-6 13 9 -0.29 0.56
5 -13 -9 0.74 0.48
-5 13 9 0.71 0.57
4 -13 -9 4.01 0.66
-4 13 9 4.34 0.89
-3 13 9 54.24 3.55
-2 13 9 -0.03 0.54
-1 13 9 11.67 1.27
0 13 9 9.97 1.11
1 13 9 0.06 0.49
2 13 9 17.64 1.55
3 13 9 2.55 0.68
4 13 9 4.99 0.85
5 13 9 4.33 0.82
6 13 9 1.4 0.61
7 13 9 9.98 1.14
8 13 9 10.67 1.18
9 13 9 -0.11 0.48
10 13 9 4.26 0.79
11 13 9 6.09 0.96
12 13 9 0.81 0.64
6 -14 -9 0.17 0.53
5 -14 -9 9.54 1
-5 14 9 10.36 1.32
4 -14 -9 -0.09 0.45
-4 14 9 0.46 0.59
-3 14 9 -0.21 0.55
-2 14 9 23.85 1.94
-1 14 9 1.57 0.64
0 14 9 4.56 0.88
1 14 9 19.64 1.71
2 14 9 0.99 0.6
3 14 9 7.51 1.07
4 14 9 0.15 0.52
5 14 9 7.49 1.08
6 14 9 5.41 0.96
7 14 9 3.58 0.82
8 14 9 10.25 1.22
10 14 9 1.62 0.65
11 14 9 0.09 0.58
-3 15 9 0.86 0.68
-2 15 9 4.84 0.97
-1 15 9 1.12 0.67
0 15 9 6.38 1.05
1 15 9 -0.78 0.47
2 15 9 9.71 1.26
3 15 9 0.27 0.61
4 15 9 1.28 0.71
5 15 9 9.47 1.25
6 15 9 -0.13 0.6
7 15 9 7.72 1.14
8 15 9 0.04 0.59
1 16 9 3.94 0.93
2 16 9 0.25 0.62
3 16 9 3.27 0.9
4 16 9 1.44 0.75
5 16 9 0.5 0.68
6 16 9 11.65 1.45
7 16 9 2.16 0.81
8 16 9 5.84 1.08
2 -9 10 0.04 0.83
-2 -8 10 0.16 0.93
-1 -8 10 18.29 1.98
0 -8 10 0.24 0.82
1 -8 10 3.37 0.99
2 -8 10 1.43 0.84
3 -8 10 1.9 0.66
4 -8 10 11.17 1.22
5 -8 10 1.03 0.6
-4 -7 10 -0.38 0.78
-3 -7 10 0.25 0.86
-2 -7 10 8.27 1.32
-1 -7 10 0.81 0.81
0 -7 10 8.82 1.27
1 -7 10 10.63 1.35
2 -7 10 0.68 0.73
3 -7 10 7.09 0.92
4 -7 10 0.37 0.55
5 -7 10 6.53 0.93
6 -7 10 2.12 0.68
7 -7 10 1.33 0.65
-6 -6 10 -0.32 0.78
-5 -6 10 2.59 0.95
-4 -6 10 5.49 1.1
-3 -6 10 2.29 0.87
-2 -6 10 2.99 0.95
-1 -6 10 6.25 1.12
0 -6 10 1.08 0.74
1 -6 10 4.52 0.92
2 -6 10 18.85 1.7
3 -6 10 7.77 0.94
3 -6 10 8.08 1.07
4 -6 10 19.48 1.5
5 -6 10 1.79 0.6
6 -6 10 10.03 1.13
7 -6 10 12.48 1.27
8 -6 10 2.01 0.67
-7 -5 10 -0.17 0.81
-6 -5 10 2.17 0.9
-5 -5 10 2.21 0.85
-4 -5 10 1.37 0.74
-3 -5 10 10.21 1.25
-2 -5 10 0.75 0.7
-1 -5 10 2.8 0.78
0 -5 10 -0.05 0.59
1 -5 10 2.08 0.73
2 -5 10 1.55 0.65
3 -5 10 24.69 1.98
3 -5 10 27.66 1.77
4 -5 10 9.75 1.05
5 -5 10 30.84 2.01
6 -5 10 6.09 0.87
7 -5 10 0.06 0.5
8 -5 10 32.43 2.17
9 -5 10 4.87 0.83
-9 -4 10 1.12 0.94
-8 -4 10 -0.28 0.82
-7 -4 10 0.44 0.75
-6 -4 10 3.08 0.87
-5 -4 10 0.66 0.69
-4 -4 10 32.26 2.39
-3 -4 10 0.9 0.65
-2 -4 10 30.76 2.27
-1 -4 10 0.03 0.58
0 -4 10 0.31 0.59
1 -4 10 10.33 1.16
2 -4 10 12.66 1.27
3 -4 10 3.16 0.67
3 -4 10 1.41 0.48
4 -4 10 9.07 0.94
5 -4 10 0.02 0.42
6 -4 10 1.63 0.55
7 -4 10 20.76 1.56
8 -4 10 0.28 0.46
9 -4 10 14.15 1.29
10 -4 10 0.18 0.52
11 -4 10 2.84 0.71
-10 -3 10 -0.41 0.8
-9 -3 10 -0.42 0.86
-8 -3 10 7.02 1.21
-7 -3 10 5.63 1.07
-6 -3 10 1.76 0.79
-5 -3 10 17.42 1.59
-4 -3 10 4.06 0.82
-3 -3 10 99.56 5.83
-2 -3 10 2.95 0.68
-1 -3 10 3.37 0.7
0 -3 10 1.24 0.57
1 -3 10 2.66 0.63
2 -3 10 10.93 1.12
3 -3 10 29.74 1.88
3 -3 10 23.94 1.67
4 -3 10 2.07 0.55
4 -3 10 3.48 0.62
5 -3 10 0.72 0.44
6 -3 10 8.49 0.95
7 -3 10 0.93 0.52
8 -3 10 14.74 1.27
9 -3 10 -0.21 0.45
10 -3 10 5.14 0.82
11 -3 10 12.45 1.21
12 -3 10 -0.34 0.52
-10 -2 10 9.49 1.39
-9 -2 10 0.79 0.86
-8 -2 10 3.08 0.92
-7 -2 10 -0.25 0.7
-6 -2 10 -0.18 0.62
-5 -2 10 0.09 0.55
-4 -2 10 27.08 1.98
-3 -2 10 0.54 0.52
-2 -2 10 58.75 3.59
-1 -2 10 9.4 1
0 -2 10 1.12 0.5
1 -2 10 15.33 1.27
2 -2 10 -0.39 0.39
3 -2 10 17.67 1.45
3 -2 10 22.97 1.4
4 -2 10 0.52 0.42
4 -2 10 0.38 0.38
5 -2 10 0.93 0.46
6 -2 10 17.02 1.3
7 -2 10 21.93 1.55
8 -2 10 0.19 0.44
9 -2 10 26.45 1.8
10 -2 10 2.48 0.63
11 -2 10 3.23 0.69
12 -2 10 12.76 1.27
-11 -1 10 33.34 2.65
-10 -1 10 1.29 0.79
-9 -1 10 16.79 1.76
-8 -1 10 0.56 0.72
-7 -1 10 0.62 0.71
-6 -1 10 5.36 0.95
-5 -1 10 4.8 0.85
-4 -1 10 2.2 0.63
-3 -1 10 10.89 1.14
-2 -1 10 6.06 0.83
-1 -1 10 27.53 1.91
0 -1 10 24.32 1.72
1 -1 10 6.17 0.76
2 -1 10 21.04 1.5
3 -1 10 50.91 3.02
3 -1 10 49.62 2.81
4 -1 10 0.77 0.41
4 -1 10 0.43 0.34
5 -1 10 21.05 1.44
6 -1 10 0.57 0.43
7 -1 10 10.78 1
8 -1 10 16.5 1.3
9 -1 10 -0.23 0.41
10 -1 10 2.14 0.59
11 -1 10 5.74 0.86
12 -1 10 0.02 0.53
13 -1 10 20.4 1.64
-11 0 10 0 0.79
-10 0 10 31.6 2.51
-9 0 10 -0.38 0.65
-8 0 10 5.89 1.02
-7 0 10 -0.05 0.62
-6 0 10 1.38 0.66
-5 0 10 34.81 2.44
-4 0 10 1.76 0.62
-3 0 10 11.34 1.11
-2 0 10 2.39 0.58
-1 0 10 18.31 1.44
0 0 10 16.33 1.28
1 0 10 24.54 1.7
2 0 10 2.19 0.51
2 0 10 2.44 0.46
3 0 10 58.58 3.38
3 0 10 66.03 3.68
4 0 10 7.48 0.79
4 0 10 7.2 0.73
5 0 10 -0.11 0.3
6 0 10 43.84 2.55
7 0 10 0.27 0.39
8 0 10 10.84 1.02
9 0 10 1.17 0.51
10 0 10 0.2 0.47
11 0 10 0.53 0.5
12 0 10 6.23 0.9
13 0 10 -0.3 0.55
-11 1 10 1.67 0.91
-10 1 10 -0.24 0.72
-9 1 10 25.32 2.09
-8 1 10 11.23 1.31
-7 1 10 0.31 0.56
-6 1 10 22.19 1.8
-5 1 10 5.37 0.86
-4 1 10 20.51 1.59
-3 1 10 0.9 0.48
-2 1 10 -0.02 0.4
-1 1 10 1 0.47
0 1 10 64.84 3.84
1 1 10 2.06 0.5
2 1 10 17.16 1.3
2 1 10 17.55 1.19
3 1 10 1.3 0.45
3 1 10 2.06 0.44
4 1 10 52.09 2.82
4 1 10 48.81 2.98
5 1 10 32.06 1.96
5 1 10 33.34 2.08
6 1 10 1.49 0.43
7 1 10 39.68 2.34
8 1 10 1.91 0.49
9 1 10 17.56 1.32
10 1 10 0.84 0.48
11 1 10 0.11 0.46
12 1 10 1.91 0.6
13 1 10 15.11 1.39
14 1 10 0.21 0.59
-10 2 10 18.62 1.77
-9 2 10 1.2 0.74
-8 2 10 20.89 1.8
-7 2 10 32.75 2.33
-6 2 10 -0.08 0.5
-5 2 10 32.33 2.23
-4 2 10 0.07 0.45
-3 2 10 2.53 0.56
-2 2 10 8.07 0.88
-1 2 10 1.99 0.49
0 2 10 3.38 0.6
1 2 10 29.73 1.82
1 2 10 23.99 1.59
2 2 10 9.22 0.82
2 2 10 8.6 0.87
3 2 10 3.41 0.54
3 2 10 2.77 0.49
4 2 10 40.79 2.36
4 2 10 35.74 2.2
5 2 10 0.79 0.38
5 2 10 1.69 0.41
6 2 10 36.01 2.13
7 2 10 1.17 0.38
8 2 10 35.55 2.14
9 2 10 8.75 0.87
10 2 10 0.83 0.5
11 2 10 14.13 1.25
12 2 10 1.81 0.62
13 2 10 4.53 0.85
14 2 10 0.6 0.6
-10 3 10 2.79 0.85
-9 3 10 4.95 0.96
-8 3 10 5.56 0.92
-7 3 10 6.95 0.98
-6 3 10 38.93 2.62
-5 3 10 27.97 2.03
-4 3 10 64.57 3.91
-3 3 10 3.75 0.64
-2 3 10 0.22 0.35
-1 3 10 27.95 1.87
0 3 10 0.55 0.3
0 3 10 0.04 0.37
1 3 10 61.49 3.24
1 3 10 59.24 3.56
2 3 10 10.88 0.88
2 3 10 12.36 1
3 3 10 10.64 0.92
3 3 10 10.05 0.85
4 3 10 0.15 0.29
4 3 10 -0.21 0.31
5 3 10 89.95 5.2
5 3 10 94.86 4.85
6 3 10 1 0.39
7 3 10 30.45 1.87
8 3 10 9.36 0.87
10 3 10 62.56 3.5
11 3 10 1.67 0.58
12 3 10 23.97 1.73
13 3 10 -0.36 0.49
14 3 10 0.29 0.59
-10 4 10 3.67 0.89
-9 4 10 0.15 0.69
-8 4 10 0.64 0.59
-7 4 10 16.36 1.52
-6 4 10 0.66 0.6
-5 4 10 16.79 1.44
-4 4 10 9.1 1.02
-3 4 10 7.94 0.89
-2 4 10 18.19 1.37
-1 4 10 0.23 0.28
-1 4 10 -0.05 0.37
0 4 10 86.18 4.41
0 4 10 84 4.9
1 4 10 0.03 0.4
1 4 10 0.06 0.26
2 4 10 31.35 1.99
2 4 10 29.49 1.77
3 4 10 7.32 0.7
3 4 10 7.51 0.78
4 4 10 0.16 0.28
4 4 10 0.09 0.32
5 4 10 1.16 0.36
5 4 10 2.19 0.43
6 4 10 70.73 3.78
7 4 10 0.97 0.39
8 4 10 6.79 0.75
9 4 10 19.08 1.37
10 4 10 0.4 0.41
11 4 10 54.31 3.14
12 4 10 0.21 0.49
13 4 10 7.06 0.98
14 4 10 2.38 0.75
15 4 10 0.4 0.69
-10 5 10 9.94 1.27
-9 5 10 2.1 0.72
-8 5 10 -0.28 0.56
-7 5 10 7.68 1.04
-6 5 10 9.02 1.11
-5 5 10 6.35 0.97
-4 5 10 0.29 0.43
-3 5 10 19.62 1.55
-2 5 10 0.42 0.36
-2 5 10 1.1 0.32
-1 5 10 63.43 3.69
-1 5 10 59.52 3.23
0 5 10 5.91 0.78
0 5 10 5.67 0.56
1 5 10 62.21 3.6
1 5 10 58.83 3.19
2 5 10 47.79 2.91
2 5 10 48.94 2.63
3 5 10 1.69 0.42
3 5 10 1.53 0.37
4 5 10 67.85 3.57
4 5 10 66.89 3.87
5 5 10 9.78 0.84
5 5 10 11.26 0.87
6 5 10 1.3 0.39
7 5 10 9.37 0.87
8 5 10 -0.1 0.34
9 5 10 -0.06 0.36
10 5 10 44.43 2.63
11 5 10 1.11 0.51
12 5 10 11.45 1.17
13 5 10 5.29 0.88
14 5 10 1.29 0.67
15 5 10 14.12 1.45
11 -6 -10 5.4 0.81
10 -6 -10 1.9 0.59
9 -6 -10 9.88 0.94
-9 6 10 7.11 1.05
-8 6 10 12.79 1.32
-7 6 10 0.12 0.54
-6 6 10 7.78 1.02
-5 6 10 5.95 0.86
-4 6 10 0.8 0.48
-3 6 10 0.37 0.41
-2 6 10 41.77 2.62
-1 6 10 4.24 0.48
-1 6 10 4.88 0.68
0 6 10 61.26 3.14
0 6 10 58.45 3.54
1 6 10 0.58 0.27
1 6 10 0.37 0.35
2 6 10 28.01 1.86
2 6 10 29.4 1.65
3 6 10 60.85 3.63
3 6 10 63.78 3.29
4 6 10 5.24 0.62
4 6 10 5.11 0.57
5 6 10 49.63 2.72
5 6 10 50.15 2.94
6 6 10 7.65 0.68
6 6 10 7.05 0.74
7 6 10 0.72 0.39
8 6 10 -0.04 0.35
9 6 10 4.73 0.71
10 6 10 12 1.1
11 6 10 32.38 2.1
12 6 10 5.97 0.88
13 6 10 10.39 1.21
14 6 10 9.93 1.2
15 6 10 0.7 0.73
11 -7 -10 -0.15 0.52
10 -7 -10 1.27 0.54
9 -7 -10 20.06 1.38
-9 7 10 20.48 1.74
8 -7 -10 1.42 0.51
-8 7 10 1.59 0.67
-7 7 10 20.62 1.69
-6 7 10 1.22 0.59
-5 7 10 2.42 0.62
-4 7 10 0.35 0.47
-3 7 10 5.86 0.8
-2 7 10 8.51 0.92
-1 7 10 38.89 2.47
0 7 10 3.31 0.58
1 7 10 30.95 2.04
1 7 10 32.64 1.77
2 7 10 19.24 1.38
2 7 10 19.36 1.18
3 7 10 0.14 0.29
3 7 10 -0.01 0.24
4 7 10 86.23 4.34
4 7 10 80.71 4.76
5 7 10 14.09 1.06
5 7 10 14.39 1.01
6 7 10 24.07 1.53
6 7 10 21.73 1.46
7 7 10 10.25 0.9
8 7 10 4.55 0.65
9 7 10 14.27 1.18
10 7 10 4.48 0.72
11 7 10 2.79 0.66
12 7 10 16.51 1.4
13 7 10 1.86 0.65
14 7 10 0.83 0.66
15 7 10 10.52 1.32
10 -8 -10 -0.16 0.51
9 -8 -10 0.43 0.47
-9 8 10 -0.25 0.53
8 -8 -10 23.3 1.54
-8 8 10 25.26 1.96
7 -8 -10 0.29 0.43
-7 8 10 1.32 0.62
-6 8 10 22.41 1.75
-5 8 10 2.11 0.61
-4 8 10 0.44 0.48
-3 8 10 8.92 1.01
-2 8 10 3.43 0.62
-1 8 10 42.3 2.66
0 8 10 4.76 0.68
1 8 10 0.21 0.34
2 8 10 1.32 0.31
2 8 10 1.35 0.43
3 8 10 52.03 2.76
3 8 10 50.94 3.08
4 8 10 1.03 0.34
4 8 10 1.14 0.39
5 8 10 69.81 3.65
5 8 10 67.54 3.99
6 8 10 49.32 2.73
6 8 10 48.67 2.94
7 8 10 0.36 0.37
8 8 10 28.97 1.84
9 8 10 3.72 0.66
10 8 10 14.03 1.19
11 8 10 1.47 0.56
12 8 10 1.08 0.59
13 8 10 2.69 0.74
14 8 10 9.01 1.17
10 -9 -10 -0.2 0.51
9 -9 -10 -0.14 0.5
-9 9 10 -0.11 0.55
8 -9 -10 0.3 0.44
-8 9 10 0.33 0.58
7 -9 -10 40.61 2.19
-7 9 10 41.95 2.85
6 -9 -10 0.28 0.39
-6 9 10 0.52 0.56
-5 9 10 16.8 1.49
-4 9 10 8.3 1.03
-3 9 10 -0.17 0.41
-2 9 10 20.04 1.53
-1 9 10 2.26 0.53
0 9 10 14.99 1.22
1 9 10 3.67 0.61
2 9 10 14.46 1.19
3 9 10 1.08 0.33
3 9 10 0.81 0.4
4 9 10 50.13 2.96
4 9 10 46.51 2.63
5 9 10 1.87 0.48
5 9 10 2.67 0.47
6 9 10 32.64 2.12
6 9 10 33.45 1.97
7 9 10 20.96 1.43
8 9 10 1.17 0.47
9 9 10 27.5 1.83
10 9 10 0.18 0.49
11 9 10 4.98 0.83
12 9 10 5.27 0.87
13 9 10 2.32 0.74
14 9 10 1.25 0.73
9 -10 -10 11.7 1.16
8 -10 -10 7.01 0.86
-8 10 10 4.67 0.91
7 -10 -10 0.92 0.51
-7 10 10 0.85 0.6
6 -10 -10 12.87 1.05
-6 10 10 13.83 1.37
-5 10 10 16.65 1.46
-4 10 10 0.71 0.52
-3 10 10 21.25 1.67
-2 10 10 2.51 0.59
-1 10 10 3.46 0.63
0 10 10 41.34 2.66
1 10 10 0.15 0.36
2 10 10 5.84 0.78
3 10 10 31.41 2.12
4 10 10 0.52 0.41
5 10 10 3.93 0.63
5 10 10 3.07 0.52
6 10 10 11.81 1.05
6 10 10 11.54 0.98
7 10 10 5.93 0.74
7 10 10 5.33 0.73
8 10 10 17.05 1.3
9 10 10 0.25 0.46
10 10 10 14.47 1.25
11 10 10 3.57 0.77
12 10 10 2.98 0.73
13 10 10 1.41 0.7
14 10 10 0.34 0.67
8 -11 -10 28.35 1.76
-8 11 10 26.43 2.16
7 -11 -10 -0.03 0.46
-7 11 10 0.22 0.55
6 -11 -10 1.5 0.55
-6 11 10 2.28 0.71
-5 11 10 5.21 0.9
-4 11 10 31.41 2.26
-3 11 10 0.42 0.51
-2 11 10 12.97 1.24
-1 11 10 1.23 0.5
0 11 10 4.34 0.73
1 11 10 59.65 3.67
2 11 10 0.66 0.47
3 11 10 6.99 0.9
4 11 10 0.57 0.48
5 11 10 2.31 0.58
6 11 10 0.1 0.39
6 11 10 0.28 0.37
7 11 10 16.62 1.27
7 11 10 16.04 1.35
8 11 10 -0.1 0.41
9 11 10 19.93 1.5
10 11 10 3.52 0.72
11 11 10 2.3 0.68
12 11 10 9.12 1.15
13 11 10 0.59 0.64
7 -12 -10 7.16 0.93
-7 12 10 8.5 1.22
6 -12 -10 0.73 0.53
-6 12 10 -0.07 0.58
5 -12 -10 6.65 0.81
-5 12 10 5.87 1.01
-4 12 10 0.36 0.6
-3 12 10 18.55 1.62
-2 12 10 3.06 0.75
-1 12 10 14.06 1.32
0 12 10 8.51 1.05
1 12 10 2.14 0.62
2 12 10 57.45 3.58
3 12 10 0.12 0.49
4 12 10 3.38 0.7
5 12 10 0.78 0.51
6 12 10 6.43 0.89
7 12 10 0.12 0.43
7 12 10 -0.09 0.45
8 12 10 11.18 1.08
9 12 10 -0.16 0.45
10 12 10 3.28 0.73
11 12 10 2.73 0.71
12 12 10 -0.26 0.57
13 12 10 8.12 1.14
6 -13 -10 1.56 0.61
-6 13 10 1.17 0.72
-5 13 10 2.69 0.8
-4 13 10 5.77 1.02
-3 13 10 1.34 0.65
-2 13 10 3.29 0.77
-1 13 10 0.98 0.55
0 13 10 0.14 0.49
1 13 10 26.68 2.04
2 13 10 4.93 0.87
3 13 10 34.94 2.43
4 13 10 1.38 0.61
5 13 10 1 0.59
6 13 10 11.6 1.25
7 13 10 0.33 0.53
9 13 10 1.96 0.64
10 13 10 -0.53 0.52
11 13 10 0.18 0.61
12 13 10 2.81 0.81
-4 14 10 4.85 0.99
-3 14 10 4.68 0.96
-2 14 10 0.75 0.6
-1 14 10 0.73 0.6
0 14 10 9.69 1.23
1 14 10 0.72 0.57
2 14 10 25.01 2.01
3 14 10 1.1 0.66
4 14 10 7.4 1.08
5 14 10 4.47 0.89
6 14 10 1.24 0.66
7 14 10 34.17 2.45
11 14 10 2.69 0.74
-2 15 10 0.38 0.6
-1 15 10 -0.33 0.57
0 15 10 0.23 0.57
1 15 10 8.47 1.22
3 15 10 11.31 1.38
4 15 10 3.66 0.87
5 15 10 0.02 0.57
6 15 10 2.11 0.75
7 15 10 -0.36 0.57
2 16 10 3.87 0.97
3 16 10 -0.92 0.6
4 16 10 0.89 0.76
5 16 10 4.45 1
6 16 10 4.73 1.02
7 16 10 4.91 1.01
-2 -7 11 2.22 1.06
-1 -7 11 1.22 0.93
0 -7 11 0.97 0.82
1 -7 11 2.4 0.9
2 -7 11 0.92 0.81
3 -7 11 2.38 0.67
4 -7 11 28.34 2.04
5 -7 11 0.88 0.62
-4 -6 11 -0.67 0.76
-3 -6 11 6.85 1.22
-2 -6 11 -0.83 0.7
-1 -6 11 2.05 0.86
0 -6 11 -0.13 0.73
1 -6 11 5.34 1.04
2 -6 11 3.72 0.9
3 -6 11 5.73 0.85
4 -6 11 2.58 0.7
5 -6 11 13.5 1.3
6 -6 11 13.25 1.36
7 -6 11 0.44 0.6
-6 -5 11 0.8 0.94
-5 -5 11 0.79 0.83
-4 -5 11 6.75 1.18
-3 -5 11 -0.7 0.65
-2 -5 11 16.69 1.71
-1 -5 11 1.58 0.8
0 -5 11 1.16 0.7
1 -5 11 4.77 0.91
2 -5 11 6.27 0.99
3 -5 11 16.35 1.66
3 -5 11 18.55 1.39
4 -5 11 11.23 1.19
5 -5 11 0.14 0.49
6 -5 11 4.33 0.83
7 -5 11 5.54 0.91
8 -5 11 3.21 0.77
9 -5 11 11.99 1.3
-7 -4 11 2.68 0.98
-6 -4 11 0 0.75
-5 -4 11 7.97 1.21
-4 -4 11 -0.69 0.64
-3 -4 11 18.07 1.67
-2 -4 11 3.11 0.85
-1 -4 11 9.71 1.17
0 -4 11 9.88 1.18
1 -4 11 0.04 0.58
2 -4 11 3.85 0.77
3 -4 11 7.08 0.87
3 -4 11 6.74 0.94
4 -4 11 15.72 1.33
5 -4 11 7.86 0.96
6 -4 11 0.83 0.55
7 -4 11 -0.02 0.5
8 -4 11 14.13 1.33
9 -4 11 2 0.67
10 -4 11 4.46 0.84
-8 -3 11 1.8 0.98
-7 -3 11 2.97 1.01
-6 -3 11 -0.32 0.69
-5 -3 11 2.97 0.85
-4 -3 11 20.02 1.8
-3 -3 11 2.66 0.77
-2 -3 11 13.51 1.36
-1 -3 11 10.96 1.2
0 -3 11 0.64 0.58
1 -3 11 18.8 1.56
2 -3 11 7.2 0.94
3 -3 11 2.85 0.57
3 -3 11 2.36 0.63
4 -3 11 3.84 0.7
5 -3 11 1.66 0.56
6 -3 11 10.16 1.1
7 -3 11 7.84 1.01
8 -3 11 2.39 0.67
9 -3 11 5.23 0.86
11 -3 11 2.08 0.69
-9 -2 11 5.75 1.22
-8 -2 11 1.27 0.84
-7 -2 11 6.85 1.16
-6 -2 11 1.92 0.85
-5 -2 11 0.76 0.72
-4 -2 11 15.52 1.54
-3 -2 11 16.22 1.47
-2 -2 11 8.91 1.07
-1 -2 11 5.42 0.85
0 -2 11 42.39 2.74
1 -2 11 0.59 0.52
2 -2 11 19.77 1.54
3 -2 11 1.88 0.5
3 -2 11 2.97 0.62
4 -2 11 16.84 1.29
5 -2 11 35.28 2.21
6 -2 11 4.19 0.72
7 -2 11 21.8 1.62
8 -2 11 5.34 0.83
9 -2 11 -0.26 0.48
10 -2 11 0.7 0.58
11 -2 11 8.83 1.08
12 -2 11 3.78 0.81
-9 -1 11 1.01 0.85
-8 -1 11 11.39 1.45
-7 -1 11 2.41 0.89
-6 -1 11 -0.08 0.64
-5 -1 11 21.28 1.8
-4 -1 11 0.78 0.6
-3 -1 11 14.42 1.42
-2 -1 11 0.64 0.57
-1 -1 11 2.42 0.64
0 -1 11 0.9 0.55
1 -1 11 81.43 4.75
2 -1 11 0.69 0.38
2 -1 11 0.52 0.47
3 -1 11 6.63 0.83
3 -1 11 6.92 0.8
4 -1 11 0.12 0.37
4 -1 11 1.23 0.5
5 -1 11 0.71 0.44
6 -1 11 36.6 2.27
7 -1 11 2.03 0.59
8 -1 11 9.83 1.07
9 -1 11 4.78 0.79
10 -1 11 0.15 0.46
11 -1 11 0.94 0.56
12 -1 11 4.33 0.82
-10 0 11 2.71 0.91
-9 0 11 5.06 1.09
-8 0 11 3.77 0.97
-7 0 11 0.29 0.67
-6 0 11 24.77 2.02
-5 0 11 0.51 0.58
-4 0 11 28.83 2.14
-3 0 11 11.53 1.19
-2 0 11 0.66 0.59
-1 0 11 14.29 1.32
0 0 11 9.13 1.01
1 0 11 2.84 0.64
2 0 11 59.99 3.29
2 0 11 59.89 3.6
3 0 11 2.18 0.51
3 0 11 2.86 0.6
4 0 11 51.46 2.94
4 0 11 53.08 3.18
5 0 11 35.28 2.15
6 0 11 0.68 0.42
7 0 11 29.3 1.91
8 0 11 3.48 0.67
9 0 11 11.42 1.13
10 0 11 1.87 0.62
11 0 11 3.8 0.76
12 0 11 4.15 0.83
13 0 11 3.71 0.83
-10 1 11 2.07 0.92
-9 1 11 1.07 0.75
-8 1 11 1.41 0.76
-7 1 11 22.07 1.89
-6 1 11 -0.08 0.53
-5 1 11 46.21 3.05
-4 1 11 0.05 0.49
-3 1 11 16.85 1.42
-2 1 11 15.34 1.37
-1 1 11 2.59 0.64
0 1 11 24.03 1.76
1 1 11 23.21 1.58
1 1 11 17.97 1.36
2 1 11 14.18 1.12
2 1 11 16.2 1.27
3 1 11 13.99 1.16
3 1 11 13.1 1.09
4 1 11 1.15 0.45
4 1 11 0.74 0.45
5 1 11 21.96 1.5
6 1 11 27.26 1.77
7 1 11 6.71 0.83
8 1 11 21.67 1.53
9 1 11 18.12 1.43
10 1 11 0.47 0.46
11 1 11 7.95 0.99
12 1 11 2.16 0.67
13 1 11 7.2 1.04
-10 2 11 3.36 0.89
-9 2 11 0.1 0.65
-8 2 11 1.46 0.71
-7 2 11 -0.13 0.59
-6 2 11 49.62 3.23
-5 2 11 0.3 0.55
-4 2 11 7.94 1
-3 2 11 6.91 0.88
-2 2 11 0.76 0.5
-1 2 11 29.96 2.06
0 2 11 1.79 0.57
1 2 11 22.89 1.44
1 2 11 20.9 1.59
2 2 11 2.63 0.53
2 2 11 3.47 0.61
3 2 11 12.65 1.04
3 2 11 14.06 1.14
4 2 11 1.88 0.49
4 2 11 1.81 0.5
5 2 11 4.56 0.66
6 2 11 8.75 0.87
7 2 11 21.03 1.47
8 2 11 6.49 0.8
10 2 11 20.86 1.55
11 2 11 -0.08 0.49
12 2 11 5.23 0.86
13 2 11 -0.35 0.56
14 2 11 3.22 0.84
-10 3 11 -0.3 0.75
-9 3 11 2.58 0.87
-8 3 11 2.69 0.78
-7 3 11 6.22 1.01
-6 3 11 3.89 0.83
-5 3 11 8.72 1.11
-4 3 11 0.04 0.51
-3 3 11 0.89 0.48
-2 3 11 21.57 1.65
-1 3 11 2.41 0.62
0 3 11 62.03 3.73
0 3 11 62.7 3.36
1 3 11 13.02 1.19
1 3 11 14.81 1.08
2 3 11 29.8 2.07
2 3 11 33.99 1.92
3 3 11 0.82 0.4
3 3 11 1.36 0.47
4 3 11 53.86 2.99
4 3 11 53.01 3.19
5 3 11 58.57 3.1
5 3 11 52.15 3.26
6 3 11 0.21 0.37
7 3 11 1.81 0.49
8 3 11 9.48 0.91
9 3 11 17.98 1.33
10 3 11 1.44 0.55
11 3 11 37.83 2.38
12 3 11 0.34 0.52
13 3 11 2.54 0.74
14 3 11 6.35 1.03
-10 4 11 20.45 1.96
-9 4 11 5.09 1.06
-8 4 11 1.4 0.71
-7 4 11 6.4 1.02
-6 4 11 0.21 0.61
-5 4 11 11.28 1.27
-4 4 11 17.15 1.47
-3 4 11 0.26 0.43
-2 4 11 -0.13 0.41
-1 4 11 35.53 2.34
-1 4 11 35.37 2.03
0 4 11 4.65 0.73
0 4 11 4.92 0.6
1 4 11 34.87 2.05
1 4 11 36.12 2.31
2 4 11 16.42 1.17
2 4 11 17.06 1.34
3 4 11 2.47 0.5
3 4 11 3.57 0.61
4 4 11 0.78 0.42
4 4 11 1.55 0.45
5 4 11 30.36 1.96
5 4 11 31.15 1.88
6 4 11 47.64 2.71
7 4 11 2.04 0.51
8 4 11 0.2 0.36
9 4 11 0.62 0.43
10 4 11 37.54 2.32
11 4 11 2.23 0.61
12 4 11 16.73 1.43
13 4 11 1.86 0.67
14 4 11 0.48 0.67
-10 5 11 13.54 1.55
-9 5 11 2.8 0.81
-8 5 11 21.95 1.91
-7 5 11 -0.72 0.56
-6 5 11 16.25 1.6
-5 5 11 1.66 0.68
-4 5 11 0.77 0.54
-3 5 11 10.56 1.14
-2 5 11 14.81 1.03
-2 5 11 15.74 1.35
-1 5 11 3.08 0.65
-1 5 11 4.38 0.54
0 5 11 43.77 2.73
0 5 11 41.43 2.35
1 5 11 0.14 0.29
1 5 11 -0.04 0.41
2 5 11 13.51 1.04
2 5 11 16.08 1.24
3 5 11 38.39 2.19
3 5 11 37.98 2.39
4 5 11 1.28 0.4
4 5 11 1.47 0.44
5 5 11 4.35 0.6
5 5 11 5.36 0.64
6 5 11 0.03 0.35
7 5 11 44.74 2.56
8 5 11 0.81 0.45
9 5 11 6.42 0.82
10 5 11 6.64 0.87
11 5 11 15.47 1.3
12 5 11 1.11 0.59
13 5 11 2.18 0.72
14 5 11 11.45 1.31
-10 6 11 6.07 1.04
-9 6 11 18.91 1.79
-8 6 11 0.62 0.66
-7 6 11 23.84 1.9
-6 6 11 -0.23 0.5
-5 6 11 0.76 0.6
-4 6 11 28.96 2.11
-3 6 11 6.79 0.9
-2 6 11 29.29 2.02
-1 6 11 22.8 1.66
0 6 11 14.96 1.25
0 6 11 15.95 1.05
1 6 11 14.76 1.04
1 6 11 15.7 1.24
2 6 11 34.44 2.18
2 6 11 33.41 1.94
3 6 11 0.61 0.39
3 6 11 0.88 0.33
4 6 11 94.72 5.5
4 6 11 99.27 5.03
5 6 11 3.66 0.56
5 6 11 3.98 0.55
6 6 11 2.4 0.49
7 6 11 30.7 1.9
8 6 11 11.07 1
9 6 11 15.42 1.25
10 6 11 9.46 1.03
11 6 11 2.29 0.62
12 6 11 4.48 0.78
13 6 11 14.69 1.38
14 6 11 0.9 0.63
-9 7 11 3.28 0.83
-8 7 11 23.66 1.98
-7 7 11 0.49 0.55
-6 7 11 4.88 0.85
-5 7 11 1.38 0.61
-4 7 11 1.51 0.58
-3 7 11 10.93 1.09
-2 7 11 2.79 0.61
-1 7 11 34.09 2.25
0 7 11 7.09 0.85
1 7 11 0.59 0.29
1 7 11 0.32 0.41
2 7 11 5.91 0.77
2 7 11 7.4 0.64
3 7 11 18.2 1.35
3 7 11 18.45 1.19
4 7 11 -0.32 0.31
4 7 11 0.05 0.3
5 7 11 36.28 2.1
5 7 11 36.76 2.29
6 7 11 0.91 0.36
6 7 11 1.08 0.4
7 7 11 10.02 0.93
8 7 11 37.22 2.25
9 7 11 1.05 0.48
10 7 11 13.5 1.18
11 7 11 1.18 0.56
12 7 11 0.4 0.55
13 7 11 -0.11 0.54
14 7 11 4.81 0.93
-9 8 11 6.97 1.08
-8 8 11 0.74 0.62
-7 8 11 15.65 1.54
-6 8 11 2.3 0.69
-5 8 11 0.5 0.53
-4 8 11 5.17 0.84
-3 8 11 0.48 0.46
-2 8 11 29.67 2.07
-1 8 11 0.16 0.4
0 8 11 24.95 1.76
1 8 11 5.71 0.76
2 8 11 2.79 0.42
2 8 11 2.98 0.56
3 8 11 6.91 0.65
3 8 11 6.93 0.8
4 8 11 21.81 1.53
4 8 11 22.15 1.39
5 8 11 8.98 0.8
5 8 11 8.76 0.87
6 8 11 3.94 0.58
6 8 11 5.24 0.66
7 8 11 16.94 1.25
8 8 11 0.05 0.4
9 8 11 53.19 3.06
10 8 11 0.57 0.49
11 8 11 2.17 0.63
12 8 11 1.32 0.62
13 8 11 0.65 0.63
14 8 11 1.06 0.68
-9 9 11 6.2 1.07
-8 9 11 4.48 0.93
-7 9 11 0.16 0.57
-6 9 11 2.86 0.74
-5 9 11 8.29 1.08
-4 9 11 2.52 0.67
-3 9 11 21.29 1.66
-2 9 11 0.73 0.46
-1 9 11 22.1 1.64
0 9 11 4.08 0.69
1 9 11 6.76 0.85
2 9 11 22.39 1.62
3 9 11 12.89 1.12
4 9 11 3.46 0.6
4 9 11 3.92 0.53
5 9 11 28.34 1.73
5 9 11 28.46 1.91
6 9 11 21.24 1.52
6 9 11 20.5 1.4
7 9 11 11.31 0.99
8 9 11 44.07 2.59
9 9 11 2.21 0.59
10 9 11 23.73 1.68
11 9 11 2.37 0.66
12 9 11 1.13 0.64
13 9 11 12.22 1.35
14 9 11 1.49 0.77
-8 10 11 3.04 0.82
-7 10 11 0.59 0.6
-6 10 11 0.59 0.59
-5 10 11 0.77 0.59
-4 10 11 10.13 1.21
-3 10 11 1 0.56
-2 10 11 18.92 1.56
-1 10 11 1.35 0.52
0 10 11 0.49 0.46
1 10 11 19.81 1.55
2 10 11 0.68 0.46
3 10 11 25.14 1.81
4 10 11 0.61 0.44
5 10 11 4.27 0.6
5 10 11 4.18 0.69
6 10 11 1.15 0.42
6 10 11 1.15 0.45
7 10 11 8.94 0.91
8 10 11 6.92 0.84
9 10 11 23.68 1.67
10 10 11 1.59 0.62
11 10 11 5.71 0.88
12 10 11 11.29 1.25
13 10 11 -0.03 0.59
-7 11 11 7.53 1.13
-6 11 11 0.85 0.63
-5 11 11 2.46 0.72
-4 11 11 3.22 0.76
-3 11 11 14.91 1.39
-2 11 11 0.46 0.48
-1 11 11 0.64 0.47
0 11 11 16.87 1.45
1 11 11 4.76 0.78
2 11 11 36.99 2.48
3 11 11 11.46 1.13
4 11 11 25.13 1.84
5 11 11 7.6 0.94
6 11 11 4.11 0.71
6 11 11 4.24 0.64
7 11 11 0.98 0.47
8 11 11 5.4 0.79
9 11 11 1.2 0.53
10 11 11 3.1 0.7
11 11 11 4.63 0.84
12 11 11 0.66 0.67
13 11 11 7.1 1.07
-6 12 11 0.74 0.63
-5 12 11 10.27 1.29
-4 12 11 7.19 1.08
-3 12 11 6.51 1.01
-2 12 11 2.68 0.72
-1 12 11 0.34 0.52
0 12 11 0.99 0.48
1 12 11 9.73 1.11
2 12 11 1.87 0.64
3 12 11 35.04 2.39
4 12 11 22.13 1.74
5 12 11 1.27 0.56
6 12 11 12.28 1.24
7 12 11 18.18 1.53
8 12 11 2.36 0.62
9 12 11 1.08 0.54
10 12 11 0.19 0.52
11 12 11 0.7 0.61
12 12 11 6.18 0.99
-5 13 11 3.63 0.89
-4 13 11 11.08 1.37
-3 13 11 0.46 0.62
-2 13 11 2.18 0.73
-1 13 11 0.48 0.56
0 13 11 1.83 0.66
1 13 11 1.74 0.67
2 13 11 3.63 0.79
3 13 11 1.68 0.65
4 13 11 8.39 1.09
5 13 11 20.62 1.71
6 13 11 4.97 0.89
7 13 11 1.24 0.6
9 13 11 2.56 0.68
10 13 11 0.8 0.6
11 13 11 -0.26 0.55
12 13 11 0.98 0.68
-3 14 11 3.81 0.88
-2 14 11 0.06 0.57
-1 14 11 0.78 0.58
0 14 11 3.55 0.84
1 14 11 6.52 1.02
2 14 11 3.79 0.83
3 14 11 0.84 0.6
4 14 11 1.18 0.63
5 14 11 12.69 1.34
6 14 11 23.01 1.89
7 14 11 -0.25 0.55
11 14 11 2.58 0.79
-1 15 11 2.8 0.8
0 15 11 1.2 0.68
1 15 11 5.79 1.04
2 15 11 2.86 0.84
3 15 11 4.74 0.96
4 15 11 0.31 0.64
5 15 11 13.3 1.48
6 15 11 0.78 0.67
7 15 11 22.11 1.9
4 16 11 0.59 0.71
5 16 11 1.47 0.79
6 16 11 7.8 1.23
7 16 11 1.43 0.76
-1 -6 12 0.16 0.84
0 -6 12 -0.85 0.73
1 -6 12 -0.62 0.74
2 -6 12 3.86 0.8
3 -6 12 5.99 0.92
4 -6 12 6.96 1.02
5 -6 12 7.08 1.02
-3 -5 12 8.55 1.31
-2 -5 12 2.62 0.97
-1 -5 12 3.62 0.93
0 -5 12 1.1 0.8
1 -5 12 -0.1 0.68
2 -5 12 19.64 1.74
2 -5 12 18.15 1.5
3 -5 12 0.23 0.55
4 -5 12 10.76 1.21
5 -5 12 -0.28 0.53
6 -5 12 -0.28 0.56
7 -5 12 2.12 0.75
-5 -4 12 7.98 1.27
-4 -4 12 3.71 0.96
-3 -4 12 0.19 0.79
-2 -4 12 13.93 1.53
-1 -4 12 5.41 0.99
0 -4 12 0.28 0.69
1 -4 12 7.9 1.1
2 -4 12 3.69 0.71
2 -4 12 2.06 0.76
3 -4 12 41.36 2.54
4 -4 12 0.95 0.62
5 -4 12 2.59 0.71
6 -4 12 5.15 0.84
7 -4 12 -0.1 0.57
8 -4 12 1.3 0.68
9 -4 12 6.08 0.99
-6 -3 12 4.15 1.13
-5 -3 12 -0.45 0.75
-4 -3 12 17.3 1.74
-3 -3 12 2.86 0.85
-2 -3 12 0.36 0.68
-1 -3 12 0.42 0.68
0 -3 12 12.38 1.38
1 -3 12 2.64 0.75
2 -3 12 3.61 0.65
2 -3 12 2.16 0.73
3 -3 12 -0.09 0.57
3 -3 12 0.19 0.47
4 -3 12 31.23 2.08
5 -3 12 8.76 1.04
6 -3 12 1.37 0.6
7 -3 12 8.53 1.09
8 -3 12 1.8 0.64
9 -3 12 -0.62 0.53
10 -3 12 -0.43 0.54
-7 -2 12 7.54 1.29
-6 -2 12 0.08 0.81
-5 -2 12 20.85 1.96
-4 -2 12 -0.18 0.66
-3 -2 12 27.99 2.21
-2 -2 12 0.24 0.63
-1 -2 12 2.1 0.73
0 -2 12 4.08 0.82
1 -2 12 20.18 1.61
2 -2 12 8.2 0.9
2 -2 12 7.03 0.94
3 -2 12 5.93 0.78
3 -2 12 5.4 0.83
4 -2 12 24.98 1.72
5 -2 12 2.18 0.63
6 -2 12 31.94 2.11
7 -2 12 1.66 0.64
8 -2 12 14.56 1.36
9 -2 12 0.25 0.54
10 -2 12 1.03 0.65
11 -2 12 1.74 0.69
-8 -1 12 2.62 0.99
-7 -1 12 -0.42 0.72
-6 -1 12 7.27 1.22
-5 -1 12 2.28 0.85
-4 -1 12 25.36 2.03
-3 -1 12 8.88 1.18
-2 -1 12 22.63 1.83
-1 -1 12 0.38 0.62
0 -1 12 14.51 1.34
1 -1 12 10.43 1.17
2 -1 12 20.26 1.49
2 -1 12 24.33 1.74
3 -1 12 1.06 0.46
3 -1 12 0.77 0.55
4 -1 12 -0.5 0.37
5 -1 12 27.56 1.85
6 -1 12 1.63 0.56
7 -1 12 21.99 1.66
8 -1 12 -0.17 0.48
9 -1 12 2.57 0.69
10 -1 12 7.15 0.99
11 -1 12 1.5 0.64
-8 0 12 -0.7 0.69
-7 0 12 1.44 0.78
-6 0 12 0.98 0.69
-5 0 12 27.08 2.11
-4 0 12 1.36 0.7
-3 0 12 19.62 1.72
-2 0 12 35.22 2.45
-1 0 12 0.83 0.6
0 0 12 18.52 1.58
1 0 12 7.09 0.94
2 0 12 4.78 0.67
2 0 12 3.2 0.7
3 0 12 1.52 0.59
3 0 12 0.64 0.43
4 0 12 1.64 0.51
4 0 12 0.28 0.52
5 0 12 4.22 0.69
6 0 12 16.56 1.35
7 0 12 1.15 0.49
8 0 12 15.71 1.34
9 0 12 6.08 0.9
10 0 12 3.48 0.76
11 0 12 11.37 1.24
12 0 12 0.29 0.63
-9 1 12 0.76 0.84
-8 1 12 0.05 0.71
-7 1 12 6.9 1.15
-6 1 12 24.29 1.98
-5 1 12 1.02 0.7
-4 1 12 18.14 1.64
-3 1 12 8.85 1.11
-2 1 12 1.4 0.63
-1 1 12 70.06 4.25
0 1 12 0.52 0.53
1 1 12 30.79 2.21
1 1 12 33.84 2
2 1 12 0.68 0.41
2 1 12 -0.04 0.49
3 1 12 0.34 0.48
3 1 12 2.55 0.55
4 1 12 31.44 2.12
4 1 12 32.58 2.04
5 1 12 35.04 2.17
6 1 12 9.58 1
7 1 12 5.52 0.79
8 1 12 6.37 0.86
9 1 12 2.5 0.63
10 1 12 15.7 1.36
11 1 12 0.23 0.5
12 1 12 10.84 1.24
13 1 12 0.52 0.66
-9 2 12 3.74 0.99
-8 2 12 4.68 0.99
-7 2 12 2.19 0.81
-6 2 12 19.06 1.71
-5 2 12 15.86 1.56
-4 2 12 -0.53 0.54
-3 2 12 -0.13 0.52
-2 2 12 11.58 1.19
-1 2 12 5.4 0.86
0 2 12 45.56 2.91
1 2 12 2.59 0.55
1 2 12 2.82 0.65
2 2 12 8 0.94
2 2 12 9.64 0.94
3 2 12 26.05 1.87
3 2 12 27.91 1.75
4 2 12 18.58 1.43
4 2 12 17.7 1.36
5 2 12 16.87 1.3
6 2 12 0.25 0.43
7 2 12 2.82 0.61
8 2 12 -0.03 0.4
9 2 12 6.42 0.87
10 2 12 3.7 0.73
11 2 12 27.14 1.95
12 2 12 0.22 0.59
13 2 12 9.19 1.2
-9 3 12 9.17 1.34
-8 3 12 0.63 0.66
-7 3 12 24.73 2.04
-6 3 12 0.27 0.68
-5 3 12 35.42 2.5
-4 3 12 -0.1 0.57
-3 3 12 3.76 0.74
-2 3 12 1.47 0.59
-1 3 12 15.08 1.34
0 3 12 12.48 1.23
0 3 12 11.72 0.98
1 3 12 18.94 1.32
1 3 12 16.9 1.45
2 3 12 25.19 1.61
2 3 12 23.9 1.76
3 3 12 1.16 0.45
3 3 12 1.12 0.49
4 3 12 18.87 1.33
4 3 12 16.65 1.38
5 3 12 0.39 0.43
6 3 12 4.31 0.7
7 3 12 0.26 0.4
8 3 12 3.83 0.68
9 3 12 6.86 0.87
10 3 12 15.88 1.32
11 3 12 -0.1 0.48
12 3 12 8.18 1.08
13 3 12 8.97 1.16
-9 4 12 8.06 1.28
-8 4 12 26.88 2.28
-7 4 12 1.91 0.8
-6 4 12 37.3 2.65
-5 4 12 11.17 1.27
-4 4 12 -0.2 0.54
-3 4 12 0.99 0.6
-2 4 12 8.14 1.02
-1 4 12 3.88 0.57
-1 4 12 3.44 0.71
0 4 12 25.89 1.87
0 4 12 26.42 1.66
1 4 12 13.98 1.29
1 4 12 14.46 1.1
2 4 12 1.34 0.56
2 4 12 0.65 0.41
3 4 12 36.53 2.48
3 4 12 41.18 2.3
4 4 12 3.54 0.61
4 4 12 3.98 0.66
5 4 12 37.24 2.25
6 4 12 7.06 0.84
7 4 12 5.57 0.76
8 4 12 11.94 1.1
9 4 12 0.5 0.45
10 4 12 8.36 0.99
11 4 12 6.77 0.94
12 4 12 0.39 0.55
13 4 12 0.78 0.66
-9 5 12 8.85 1.28
-8 5 12 1.81 0.83
-7 5 12 27.69 2.27
-6 5 12 4.78 0.99
-5 5 12 12.4 1.41
-4 5 12 9.15 1.15
-3 5 12 2.41 0.7
-2 5 12 7.74 1.01
-1 5 12 0.21 0.51
-1 5 12 0.16 0.35
0 5 12 3.85 0.73
0 5 12 3.48 0.53
1 5 12 0.5 0.49
1 5 12 0.49 0.37
2 5 12 19.98 1.37
2 5 12 20.9 1.56
3 5 12 0.47 0.47
3 5 12 1.34 0.44
4 5 12 19.97 1.37
4 5 12 18.86 1.42
5 5 12 0.35 0.37
5 5 12 0.24 0.4
6 5 12 20.63 1.45
7 5 12 1.86 0.52
8 5 12 13.67 1.14
9 5 12 37.42 2.31
10 5 12 0.77 0.5
11 5 12 14.05 1.31
12 5 12 1.05 0.6
13 5 12 3.86 0.84
14 5 12 -0.35 0.6
-9 6 12 1.68 0.81
-8 6 12 25.5 2.12
-7 6 12 0.74 0.64
-6 6 12 18.74 1.67
-5 6 12 0.35 0.62
-4 6 12 15.85 1.51
-3 6 12 33.66 2.34
-2 6 12 2.26 0.64
-1 6 12 44.92 2.9
0 6 12 2.42 0.61
0 6 12 3.02 0.49
1 6 12 0.7 0.5
1 6 12 1.36 0.4
2 6 12 -0.06 0.41
2 6 12 0.05 0.32
3 6 12 20.78 1.52
3 6 12 21.08 1.38
4 6 12 2.66 0.56
4 6 12 2.97 0.51
5 6 12 4.62 0.64
5 6 12 4.51 0.63
6 6 12 3.49 0.58
7 6 12 4.64 0.68
8 6 12 11.75 1.08
9 6 12 3.12 0.65
10 6 12 40.69 2.51
11 6 12 -0.2 0.5
12 6 12 -0.12 0.51
13 6 12 0.75 0.61
14 6 12 7.26 1.09
-9 7 12 3.21 0.91
-8 7 12 1.23 0.7
-7 7 12 14.37 1.55
-6 7 12 0.29 0.6
-5 7 12 1.98 0.71
-4 7 12 24.76 1.92
-3 7 12 2.1 0.61
-2 7 12 41.66 2.73
-1 7 12 3.72 0.71
0 7 12 46.64 2.94
1 7 12 3.27 0.64
1 7 12 3.61 0.51
2 7 12 2.28 0.56
3 7 12 8.43 0.9
3 7 12 7.62 0.74
4 7 12 26.79 1.64
4 7 12 25.48 1.77
5 7 12 2.54 0.52
5 7 12 2.69 0.52
6 7 12 0.24 0.36
7 7 12 11.32 0.99
8 7 12 6.64 0.83
9 7 12 31.68 2.04
10 7 12 2.77 0.66
11 7 12 7.18 0.98
12 7 12 0.93 0.62
13 7 12 1.67 0.7
14 7 12 8.57 1.19
-8 8 12 -0.21 0.59
-7 8 12 0.33 0.62
-6 8 12 1.42 0.67
-5 8 12 7.22 1.06
-4 8 12 1.47 0.65
-3 8 12 8.95 1.08
-2 8 12 -0.19 0.42
-1 8 12 21.8 1.67
0 8 12 4.46 0.74
1 8 12 17.9 1.42
2 8 12 36.3 2.37
3 8 12 7.89 0.87
3 8 12 9.06 0.77
4 8 12 4.49 0.69
4 8 12 5.61 0.63
5 8 12 1.36 0.44
5 8 12 1.45 0.43
6 8 12 0.43 0.37
7 8 12 2.17 0.53
8 8 12 17.21 1.33
9 8 12 4.74 0.75
10 8 12 19.44 1.51
11 8 12 9.43 1.13
12 8 12 1.23 0.65
13 8 12 9.76 1.22
14 8 12 -0.02 0.62
-8 9 12 15.26 1.55
-7 9 12 0.07 0.56
-6 9 12 0.38 0.62
-5 9 12 0.66 0.6
-4 9 12 8.5 1.1
-3 9 12 0.23 0.52
-2 9 12 9.69 1.07
-1 9 12 0.29 0.48
0 9 12 5.27 0.8
1 9 12 42.49 2.74
2 9 12 5.31 0.78
3 9 12 18.54 1.45
4 9 12 4.5 0.59
4 9 12 3.78 0.64
5 9 12 0.14 0.38
5 9 12 -0.26 0.32
6 9 12 8.34 0.87
6 9 12 9.67 0.95
7 9 12 0.35 0.4
8 9 12 10.95 1.05
9 9 12 7.03 0.89
10 9 12 0.36 0.48
11 9 12 7.54 1.01
12 9 12 19.08 1.61
13 9 12 0.51 0.65
-7 10 12 6.74 1.12
-6 10 12 6.27 1.04
-5 10 12 3.57 0.83
-4 10 12 7.97 1.11
-3 10 12 14.29 1.38
-2 10 12 5.24 0.86
-1 10 12 -0.12 0.46
0 10 12 0.68 0.53
1 10 12 -0.16 0.44
2 10 12 32.4 2.2
3 10 12 0.38 0.46
4 10 12 21.61 1.61
5 10 12 0.12 0.36
5 10 12 -0.16 0.4
6 10 12 0.16 0.43
6 10 12 -0.24 0.35
7 10 12 35.13 2.15
8 10 12 9.51 1.02
9 10 12 11.66 1.13
10 10 12 1.59 0.6
11 10 12 6.96 0.99
12 10 12 2.88 0.78
13 10 12 8.39 1.17
-6 11 12 1.31 0.66
-5 11 12 9.05 1.2
-4 11 12 3.48 0.81
-3 11 12 12.96 1.37
-2 11 12 0.77 0.55
-1 11 12 2.44 0.65
0 11 12 10.93 1.15
1 11 12 8.99 1.06
2 11 12 -0.05 0.49
3 11 12 26.25 1.91
4 11 12 15.3 1.36
5 11 12 2.64 0.64
6 11 12 7.19 0.92
7 11 12 0.5 0.47
8 11 12 18.24 1.4
9 11 12 0.99 0.55
10 11 12 -0.08 0.52
11 11 12 0.15 0.55
12 11 12 4.44 0.89
-5 12 12 -0.16 0.56
-4 12 12 15.44 1.58
-3 12 12 1 0.61
-2 12 12 12.18 1.34
-1 12 12 1.81 0.63
0 12 12 3.08 0.74
1 12 12 18.56 1.58
2 12 12 13.11 1.34
3 12 12 3.7 0.77
4 12 12 8.6 1.06
5 12 12 16.66 1.47
6 12 12 2.99 0.69
8 12 12 0.56 0.48
9 12 12 2.07 0.63
10 12 12 2.84 0.73
11 12 12 0.33 0.61
12 12 12 3.53 0.85
-4 13 12 0.63 0.63
-3 13 12 14.94 1.6
-2 13 12 2.08 0.76
-1 13 12 0.32 0.53
0 13 12 10.8 1.28
1 13 12 -0.23 0.52
2 13 12 5.36 0.91
3 13 12 1.76 0.67
4 13 12 2.44 0.7
5 13 12 0.39 0.56
6 13 12 32.07 2.3
10 13 12 0.53 0.58
11 13 12 5.09 0.91
-2 14 12 1.38 0.71
-1 14 12 6.76 1.08
0 14 12 0.06 0.59
1 14 12 4.27 0.91
2 14 12 2.08 0.76
3 14 12 0.79 0.62
4 14 12 4.14 0.86
5 14 12 9.18 1.19
6 14 12 1.04 0.63
1 15 12 1.29 0.69
2 15 12 6.75 1.11
3 15 12 3.14 0.85
4 15 12 0.49 0.62
5 15 12 3.45 0.88
6 15 12 2.43 0.8
7 15 12 0.19 0.67
6 16 12 3.94 0.99
7 16 12 4.42 1
0 -5 13 0.05 0.77
1 -5 13 6.58 1.15
2 -5 13 4.11 0.82
4 -5 13 0.93 0.66
5 -5 13 4.59 0.9
-2 -4 13 0.42 0.84
-1 -4 13 0.64 0.8
0 -4 13 0.94 0.8
1 -4 13 0.38 0.75
2 -4 13 9.74 1.14
2 -4 13 13.26 1.46
3 -4 13 0.92 0.6
4 -4 13 7.79 1.06
5 -4 13 6.76 1.03
6 -4 13 0.33 0.58
7 -4 13 12.05 1.35
-4 -3 13 0.08 0.84
-3 -3 13 7.6 1.25
-2 -3 13 0.34 0.78
-1 -3 13 0.12 0.69
0 -3 13 5.73 1.02
1 -3 13 3.86 0.86
2 -3 13 2 0.58
2 -3 13 1.33 0.72
3 -3 13 12.54 1.2
4 -3 13 2.01 0.67
5 -3 13 1.66 0.66
6 -3 13 31.13 2.15
7 -3 13 -0.26 0.58
8 -3 13 10.94 1.31
-5 -2 13 1.34 0.9
-4 -2 13 13.85 1.61
-3 -2 13 3.68 0.96
-2 -2 13 5.58 1.06
-1 -2 13 9 1.22
0 -2 13 0.96 0.72
1 -2 13 15.07 1.51
2 -2 13 3.6 0.68
2 -2 13 4.25 0.88
3 -2 13 -0.21 0.43
3 -2 13 -0.03 0.7
4 -2 13 0.61 0.5
5 -2 13 7.66 1.01
6 -2 13 1.29 0.64
7 -2 13 16.57 1.51
8 -2 13 2.38 0.78
9 -2 13 4.32 0.9
-6 -1 13 0.11 0.78
-5 -1 13 8 1.23
-4 -1 13 1.37 0.81
-3 -1 13 14.61 1.55
-2 -1 13 19.49 1.81
-1 -1 13 0.68 0.71
0 -1 13 27.65 2.12
1 -1 13 3.36 0.82
2 -1 13 16.07 1.49
2 -1 13 15.88 1.28
3 -1 13 1.29 0.66
3 -1 13 0.3 0.46
4 -1 13 5.45 0.8
5 -1 13 12.38 1.21
6 -1 13 7.36 0.99
7 -1 13 -0.43 0.52
8 -1 13 15.47 1.45
9 -1 13 3.5 0.82
10 -1 13 0.73 0.64
-7 0 13 6.99 1.24
-6 0 13 5.96 1.09
-5 0 13 -0.48 0.73
-4 0 13 2.58 0.81
-3 0 13 10.32 1.27
-2 0 13 3.82 0.91
-1 0 13 13.6 1.41
0 0 13 -0.1 0.65
1 0 13 30.67 2.41
1 0 13 39.35 2.21
2 0 13 0.37 0.61
2 0 13 0.91 0.5
3 0 13 12.24 1.07
3 0 13 8.36 1.08
4 0 13 19.35 1.48
5 0 13 1.42 0.57
6 0 13 12.49 1.19
7 0 13 6.05 0.89
8 0 13 1.71 0.64
9 0 13 5.13 0.88
10 0 13 16.5 1.47
11 0 13 -0.07 0.6
-7 1 13 -0.78 0.76
-6 1 13 7.28 1.18
-5 1 13 2.97 0.85
-4 1 13 -0.78 0.57
-3 1 13 0.38 0.63
-2 1 13 16.58 1.54
-1 1 13 -0.06 0.64
0 1 13 49.57 3.2
1 1 13 0.92 0.64
1 1 13 0.6 0.46
2 1 13 20.75 1.53
2 1 13 20.76 1.67
3 1 13 25.59 1.7
3 1 13 22.73 1.82
4 1 13 5.55 0.81
5 1 13 7.56 0.93
6 1 13 0.03 0.42
7 1 13 2.14 0.63
8 1 13 -0.07 0.47
9 1 13 16.04 1.41
10 1 13 -0.03 0.53
11 1 13 9.27 1.16
12 1 13 0.04 0.6
-8 2 13 0.29 0.85
-7 2 13 15.61 1.72
-6 2 13 -0.11 0.68
-5 2 13 25.33 2.09
-4 2 13 1.06 0.73
-3 2 13 -0.08 0.59
-2 2 13 3.36 0.8
-1 2 13 46.83 3.06
0 2 13 2.09 0.54
0 2 13 0.94 0.65
1 2 13 37.81 2.38
1 2 13 41.77 2.66
2 2 13 10.46 1.18
2 2 13 9.14 0.99
3 2 13 1.54 0.6
3 2 13 1.91 0.57
4 2 13 63.06 3.63
4 2 13 65.93 3.92
5 2 13 3.7 0.69
6 2 13 21.01 1.56
7 2 13 0.81 0.5
8 2 13 -0.07 0.45
9 2 13 11.62 1.16
10 2 13 7.63 1.01
11 2 13 2.1 0.69
12 2 13 5.37 1
-8 3 13 14.53 1.64
-7 3 13 0.22 0.7
-6 3 13 43.82 3.09
-5 3 13 6.23 1.03
-4 3 13 14.66 1.52
-3 3 13 19.76 1.68
-2 3 13 6.3 0.99
-1 3 13 -0.46 0.53
-1 3 13 0.55 0.45
0 3 13 12.09 1.25
0 3 13 8.92 0.95
1 3 13 4.73 0.71
1 3 13 4.29 0.82
2 3 13 1.52 0.6
2 3 13 1.51 0.51
3 3 13 26.86 1.9
3 3 13 24.99 1.73
4 3 13 4.53 0.78
4 3 13 5.06 0.76
5 3 13 78.54 4.32
6 3 13 1.51 0.55
7 3 13 7.1 0.91
8 3 13 14.29 1.24
9 3 13 -0.09 0.47
10 3 13 19.19 1.52
11 3 13 8.21 1.08
12 3 13 0.54 0.63
-8 4 13 1.46 0.88
-7 4 13 23.08 2.05
-6 4 13 4.01 0.99
-5 4 13 31.15 2.38
-4 4 13 18.14 1.63
-3 4 13 3.97 0.86
-2 4 13 26.99 2.07
-1 4 13 4.47 0.66
-1 4 13 5.37 0.92
0 4 13 0.73 0.44
0 4 13 1.24 0.62
1 4 13 1.77 0.5
1 4 13 1.65 0.66
2 4 13 10.25 1.07
2 4 13 8.57 0.94
3 4 13 10.9 1.04
3 4 13 10.75 1.17
4 4 13 23.17 1.73
4 4 13 22.07 1.58
5 4 13 8.77 0.98
6 4 13 17.99 1.39
7 4 13 11.01 1.06
8 4 13 -0.55 0.42
9 4 13 29.29 1.97
10 4 13 1.37 0.58
11 4 13 8.3 1.08
12 4 13 0.81 0.62
13 4 13 1.88 0.73
-8 5 13 13.57 1.58
-7 5 13 -0.12 0.65
-6 5 13 11.14 1.4
-5 5 13 8 1.18
-4 5 13 1.1 0.69
-3 5 13 61.41 3.89
-2 5 13 6.13 0.99
-1 5 13 36.38 2.53
-1 5 13 36.74 2.19
0 5 13 0.59 0.4
0 5 13 1.03 0.61
1 5 13 0.69 0.44
1 5 13 1.5 0.62
2 5 13 21.19 1.7
2 5 13 21.48 1.48
3 5 13 10.15 1.08
3 5 13 9.28 0.96
4 5 13 3.49 0.69
4 5 13 5.53 0.73
5 5 13 1.77 0.54
6 5 13 6.08 0.8
7 5 13 17.87 1.4
8 5 13 9.32 1.03
9 5 13 0.18 0.49
10 5 13 22.37 1.67
11 5 13 3.71 0.79
12 5 13 1.95 0.7
13 5 13 4.69 0.92
-8 6 13 5.94 1.11
-7 6 13 7.57 1.16
-6 6 13 0.3 0.65
-5 6 13 0.07 0.67
-4 6 13 25.82 2.03
-3 6 13 4.81 0.91
-2 6 13 57.04 3.64
-1 6 13 15.02 1.42
0 6 13 13.44 1.36
0 6 13 14.57 1.11
1 6 13 9.31 0.89
1 6 13 10.05 1.12
2 6 13 2.14 0.5
2 6 13 1.75 0.61
3 6 13 16.17 1.35
3 6 13 16.75 1.24
4 6 13 -0.06 0.37
4 6 13 0.11 0.45
5 6 13 5.1 0.71
5 6 13 4.94 0.71
6 6 13 6.02 0.77
7 6 13 6.96 0.84
8 6 13 1.91 0.56
9 6 13 8.92 1.02
10 6 13 -0.34 0.46
11 6 13 10.84 1.21
12 6 13 5.69 0.96
13 6 13 -0.47 0.59
-8 7 13 0 0.64
-7 7 13 4.56 0.97
-6 7 13 1.55 0.7
-5 7 13 1.06 0.69
-4 7 13 6.14 0.97
-3 7 13 6 0.92
-2 7 13 1 0.6
-1 7 13 53.55 3.37
0 7 13 18.26 1.53
1 7 13 0.13 0.46
2 7 13 21.46 1.39
2 7 13 19.97 1.58
3 7 13 0.05 0.43
3 7 13 -0.05 0.34
4 7 13 14.88 1.11
4 7 13 12.28 1.16
5 7 13 2.82 0.56
5 7 13 2.92 0.57
6 7 13 0.08 0.41
7 7 13 1.96 0.55
8 7 13 13.65 1.21
9 7 13 1.31 0.57
10 7 13 1.97 0.66
11 7 13 3.18 0.76
12 7 13 1.67 0.67
13 7 13 14.36 1.48
-7 8 13 1.67 0.77
-6 8 13 0.96 0.67
-5 8 13 0.17 0.61
-4 8 13 2.47 0.73
-3 8 13 1.96 0.65
-2 8 13 14.09 1.35
-1 8 13 2.44 0.68
0 8 13 25.57 1.9
1 8 13 14.13 1.31
2 8 13 -0.06 0.47
3 8 13 33.5 2.01
3 8 13 34.81 2.28
4 8 13 1.09 0.49
4 8 13 1.15 0.4
5 8 13 14.07 1.19
5 8 13 13.51 1.08
6 8 13 5.94 0.75
7 8 13 0.32 0.44
8 8 13 21.14 1.55
9 8 13 8.46 0.99
10 8 13 2.54 0.68
11 8 13 -0.33 0.52
12 8 13 18.11 1.56
13 8 13 1.48 0.76
-7 9 13 16.56 1.72
-6 9 13 6.97 1.11
-5 9 13 0.5 0.63
-4 9 13 14.2 1.47
-3 9 13 4.97 0.88
-2 9 13 -0.12 0.47
-1 9 13 0.42 0.51
0 9 13 9.63 1.11
1 9 13 2.31 0.63
2 9 13 20.78 1.62
3 9 13 3.12 0.67
4 9 13 28.51 1.76
4 9 13 26.55 1.91
5 9 13 2.34 0.5
5 9 13 1.92 0.55
6 9 13 3.8 0.64
7 9 13 25.94 1.73
8 9 13 1.23 0.55
9 9 13 5.67 0.84
10 9 13 -0.04 0.48
11 9 13 -0.01 0.56
12 9 13 0.35 0.65
13 9 13 18.48 1.69
-6 10 13 5.11 1
-5 10 13 15.8 1.56
-4 10 13 0.93 0.64
-3 10 13 5.28 0.92
-2 10 13 0.57 0.57
-1 10 13 0.31 0.55
0 10 13 9.33 1.14
1 10 13 17.52 1.49
2 10 13 3.31 0.69
3 10 13 8.89 1.02
4 10 13 2.58 0.63
5 10 13 7.13 0.91
6 10 13 19.72 1.4
7 10 13 -0.03 0.43
8 10 13 16.43 1.33
9 10 13 0.14 0.5
10 10 13 0.67 0.55
11 10 13 4.5 0.84
12 10 13 2.13 0.74
-5 11 13 0.38 0.65
-4 11 13 29.08 2.28
-3 11 13 0.18 0.57
-2 11 13 11.45 1.3
-1 11 13 5.48 0.89
0 11 13 0.03 0.49
1 11 13 10.78 1.22
2 11 13 5.49 0.88
3 11 13 -0.14 0.48
4 11 13 4.67 0.81
5 11 13 11.14 1.16
6 11 13 0.24 0.48
7 11 13 15.32 1.26
8 11 13 1.4 0.55
9 11 13 9.53 1.07
10 11 13 3.51 0.74
11 11 13 -0.33 0.56
12 11 13 9.43 1.22
-4 12 13 0.26 0.63
-3 12 13 23.58 1.99
-2 12 13 2.23 0.73
-1 12 13 1.64 0.63
0 12 13 16.64 1.52
1 12 13 0.04 0.54
2 12 13 4.47 0.85
3 12 13 0.6 0.57
4 12 13 0.46 0.56
5 12 13 1.05 0.59
6 12 13 12.46 1.27
9 12 13 1.37 0.58
10 12 13 0.26 0.55
11 12 13 8.97 1.15
-2 13 13 7.14 1.11
-1 13 13 3.84 0.87
0 13 13 0.07 0.57
1 13 13 23.3 1.9
2 13 13 -0.09 0.56
3 13 13 1.51 0.66
4 13 13 8.32 1.12
5 13 13 2.08 0.71
6 13 13 9.27 1.17
10 13 13 10.66 1.25
-1 14 13 0.42 0.62
0 14 13 12.03 1.43
1 14 13 0.54 0.65
2 14 13 11.77 1.39
3 14 13 4.51 0.92
4 14 13 0.31 0.6
5 14 13 11.35 1.34
6 14 13 5.94 1.03
2 15 13 3.98 0.95
3 15 13 2.31 0.8
4 15 13 10.39 1.36
5 15 13 2.71 0.85
6 15 13 8.39 1.24
1 -4 14 -0.1 0.54
1 -4 14 0.13 0.78
2 -4 14 0.12 0.54
3 -4 14 0.24 0.63
4 -4 14 8.47 1.13
-1 -3 14 8.45 1.3
0 -3 14 1.66 0.85
1 -3 14 4.21 0.79
1 -3 14 2.79 0.92
2 -3 14 3.58 0.75
2 -3 14 2.16 0.86
3 -3 14 -0.06 0.51
4 -3 14 -0.18 0.55
5 -3 14 11.06 1.27
6 -3 14 -0.81 0.56
-3 -2 14 5.52 1.15
-2 -2 14 4.23 1.07
-1 -2 14 2.65 0.91
0 -2 14 9.51 1.29
1 -2 14 -0.44 0.7
1 -2 14 0.23 0.51
2 -2 14 12.57 1.21
2 -2 14 13.42 1.49
3 -2 14 1.43 0.61
4 -2 14 0.13 0.51
5 -2 14 1.08 0.63
6 -2 14 13.17 1.39
7 -2 14 0.97 0.68
8 -2 14 15.42 1.54
-4 -1 14 1.96 0.93
-3 -1 14 1.45 0.85
-2 -1 14 -1.03 0.74
-1 -1 14 9.27 1.28
0 -1 14 0.73 0.75
1 -1 14 21.85 1.61
1 -1 14 22.15 1.91
2 -1 14 0.14 0.51
2 -1 14 -0.2 0.67
3 -1 14 8.54 1.05
4 -1 14 14.23 1.31
5 -1 14 1.65 0.63
6 -1 14 5.52 0.89
7 -1 14 1.66 0.69
8 -1 14 2.17 0.76
9 -1 14 1.06 0.71
-5 0 14 2.21 0.94
-4 0 14 -0.59 0.74
-3 0 14 0.02 0.77
-2 0 14 3.27 0.94
-1 0 14 4.51 0.99
0 0 14 22.56 1.93
1 0 14 -0.08 0.46
1 0 14 0.77 0.7
2 0 14 24.35 1.72
2 0 14 22.99 1.93
3 0 14 17.17 1.63
3 0 14 20.22 1.51
4 0 14 5.81 0.87
5 0 14 26.18 1.86
6 0 14 0.95 0.59
7 0 14 2.12 0.68
8 0 14 -0.25 0.58
9 0 14 4.54 0.89
10 0 14 -0.28 0.62
-5 1 14 4.72 1.05
-4 1 14 0.63 0.76
-3 1 14 1.7 0.78
-2 1 14 3.52 0.9
-1 1 14 5.03 1
0 1 14 2.3 0.79
0 1 14 1.63 0.56
1 1 14 19.95 1.53
1 1 14 22.08 1.8
2 1 14 6.01 0.94
2 1 14 5.32 0.82
3 1 14 9.79 1.06
3 1 14 9.76 1.15
4 1 14 47.9 2.89
5 1 14 0.6 0.54
6 1 14 11.5 1.23
7 1 14 -0.04 0.52
8 1 14 0.06 0.55
9 1 14 2.46 0.71
10 1 14 5.27 0.95
-6 2 14 19.34 1.93
-5 2 14 1.7 0.86
-4 2 14 5.02 1.02
-3 2 14 11.82 1.38
-2 2 14 1.56 0.79
-1 2 14 7.23 1.06
0 2 14 5.32 0.92
0 2 14 3.74 0.68
1 2 14 1.36 0.54
1 2 14 0.06 0.63
2 2 14 2.89 0.67
2 2 14 4.12 0.83
3 2 14 34.88 2.35
3 2 14 31.36 2.15
4 2 14 -0.34 0.46
5 2 14 19.94 1.56
6 2 14 8.2 1.05
7 2 14 2.06 0.65
8 2 14 21.68 1.67
9 2 14 1.94 0.69
10 2 14 15.16 1.43
11 2 14 0.99 0.64
-5 3 14 13.54 1.55
-4 3 14 13.02 1.45
-3 3 14 4.5 0.93
-2 3 14 18.36 1.67
-1 3 14 6.84 0.85
-1 3 14 7.67 1.07
0 3 14 15.33 1.26
0 3 14 14.83 1.5
1 3 14 0.27 0.48
1 3 14 0.39 0.62
2 3 14 1.96 0.67
2 3 14 1.69 0.58
3 3 14 0.87 0.64
3 3 14 2.63 0.64
4 3 14 18.49 1.48
5 3 14 0.89 0.56
6 3 14 34.95 2.27
7 3 14 10.25 1.14
8 3 14 0.97 0.57
9 3 14 37.09 2.43
10 3 14 0.59 0.58
11 3 14 6.95 1.05
12 3 14 -0.67 0.59
-6 4 14 14.13 1.65
-5 4 14 6.41 1.16
-4 4 14 1.4 0.75
-3 4 14 34 2.48
-2 4 14 0.22 0.45
-2 4 14 -0.16 0.68
-1 4 14 30.23 1.87
-1 4 14 25.84 2.15
0 4 14 1.13 0.68
0 4 14 2.21 0.6
1 4 14 0 0.44
1 4 14 0.52 0.62
2 4 14 18 1.37
2 4 14 14.66 1.49
3 4 14 3.61 0.78
3 4 14 1.13 0.57
4 4 14 8.62 1.09
4 4 14 9.39 1.04
5 4 14 29.61 2
6 4 14 0.54 0.52
7 4 14 10.44 1.13
8 4 14 31.05 2.11
9 4 14 0.23 0.55
10 4 14 19.56 1.58
11 4 14 -0.15 0.54
12 4 14 1.44 0.71
-6 5 14 -0.58 0.69
-5 5 14 0.63 0.79
-4 5 14 7.71 1.19
-3 5 14 -0.31 0.62
-2 5 14 58.67 3.78
-1 5 14 8.63 0.97
-1 5 14 7.56 1.14
0 5 14 12.17 1.36
0 5 14 12.41 1.1
1 5 14 39.42 2.72
1 5 14 39.59 2.39
2 5 14 1.9 0.56
2 5 14 1.92 0.68
3 5 14 40.06 2.73
3 5 14 40.34 2.46
4 5 14 2.69 0.64
4 5 14 2.21 0.64
5 5 14 0.37 0.49
6 5 14 0.7 0.53
7 5 14 13.56 1.26
8 5 14 0.02 0.47
9 5 14 32.01 2.16
10 5 14 -0.21 0.53
11 5 14 7.89 1.11
12 5 14 3.09 0.83
-6 6 14 2.45 0.91
-5 6 14 1.44 0.78
-4 6 14 0.77 0.71
-3 6 14 25.59 2.06
-2 6 14 -0.58 0.57
-1 6 14 47.66 3.19
0 6 14 20.2 1.75
1 6 14 3.06 0.74
1 6 14 3.44 0.63
2 6 14 35.82 2.45
2 6 14 35.14 2.19
3 6 14 1.96 0.57
3 6 14 2.14 0.63
4 6 14 9.09 1.01
4 6 14 8.15 0.94
5 6 14 9.16 0.98
6 6 14 0.4 0.49
7 6 14 2.49 0.63
8 6 14 9.36 1.05
9 6 14 -0.28 0.5
10 6 14 21.33 1.69
11 6 14 1.56 0.68
12 6 14 0.34 0.63
-6 7 14 13.41 1.5
-5 7 14 6.31 1.09
-4 7 14 15.36 1.55
-3 7 14 3.61 0.82
-2 7 14 4.84 0.89
-1 7 14 7.95 1.09
0 7 14 8.7 1.09
1 7 14 36.34 2.46
2 7 14 -0.03 0.4
2 7 14 -0.2 0.51
3 7 14 25.55 1.7
3 7 14 27.07 1.94
4 7 14 0.26 0.4
4 7 14 0.25 0.48
5 7 14 10.83 1.04
6 7 14 8.56 0.94
7 7 14 0.14 0.43
8 7 14 17.9 1.43
9 7 14 1.18 0.56
10 7 14 2.68 0.73
11 7 14 0.31 0.6
12 7 14 1.43 0.71
-6 8 14 18.93 1.85
-5 8 14 4.38 0.92
-4 8 14 0.76 0.62
-3 8 14 0.63 0.61
-2 8 14 -0.35 0.52
-1 8 14 0.23 0.56
0 8 14 12.6 1.35
1 8 14 0.42 0.58
2 8 14 42.41 2.8
3 8 14 -0.08 0.47
4 8 14 8.82 1
4 8 14 8.7 0.9
5 8 14 10.72 1.09
5 8 14 10.28 0.99
6 8 14 1.62 0.54
7 8 14 32.69 2.09
8 8 14 0.51 0.53
9 8 14 12.11 1.2
10 8 14 0.24 0.55
11 8 14 4.15 0.87
12 8 14 0.95 0.65
-5 9 14 29.42 2.34
-4 9 14 5.8 1.01
-3 9 14 2.97 0.79
-2 9 14 0.4 0.6
-1 9 14 0.87 0.62
0 9 14 0.66 0.56
1 9 14 8.25 1.05
2 9 14 0.61 0.54
3 9 14 11.03 1.15
4 9 14 -0.13 0.48
5 9 14 4 0.69
5 9 14 4.1 0.65
6 9 14 14.62 1.22
7 9 14 0.86 0.49
8 9 14 33.78 2.18
9 9 14 0.52 0.54
10 9 14 3.84 0.8
11 9 14 0.2 0.61
12 9 14 7.58 1.15
-4 10 14 53.3 3.52
-3 10 14 0.01 0.57
-2 10 14 4.69 0.9
-1 10 14 13.08 1.39
0 10 14 1.11 0.63
1 10 14 4.11 0.84
2 10 14 2.87 0.73
3 10 14 0.68 0.52
4 10 14 7.05 0.94
5 10 14 -0.11 0.46
6 10 14 0.89 0.48
7 10 14 25.91 1.75
8 10 14 0.19 0.51
9 10 14 7.76 0.99
10 10 14 12.88 1.29
11 10 14 -0.03 0.59
12 10 14 3.53 0.86
-4 11 14 4.07 0.98
-3 11 14 28.31 2.25
-2 11 14 5.67 0.99
-1 11 14 0.73 0.63
0 11 14 21.31 1.76
1 11 14 2.46 0.72
2 11 14 9.9 1.17
3 11 14 1.89 0.64
4 11 14 0.93 0.54
5 11 14 2.46 0.68
8 11 14 8.34 0.99
9 11 14 5.41 0.86
10 11 14 0.69 0.6
11 11 14 21.9 1.76
-2 12 14 9 1.2
-1 12 14 8.66 1.18
0 12 14 0.11 0.55
1 12 14 13.56 1.44
2 12 14 0.15 0.57
3 12 14 2.82 0.73
4 12 14 4.54 0.87
5 12 14 1.51 0.65
9 12 14 1.29 0.61
10 12 14 4.7 0.88
-1 13 14 0.31 0.61
0 13 14 10.66 1.34
1 13 14 0.82 0.68
2 13 14 4.87 0.95
3 13 14 1.96 0.74
4 13 14 0.62 0.63
5 13 14 14.5 1.46
1 14 14 11.67 1.44
2 14 14 1.03 0.69
3 14 14 2.1 0.78
4 14 14 15.54 1.6
5 14 14 1.09 0.69
6 14 14 11.66 1.39
4 15 14 0.04 0.61
5 15 14 13.28 1.52
6 15 14 -0.24 0.62
0 -2 15 -0.47 0.8
1 -2 15 8.67 1.3
1 -2 15 7.59 1.04
2 -2 15 6.07 0.95
3 -2 15 1.15 0.66
4 -2 15 12.13 1.31
5 -2 15 0.04 0.56
-1 -1 15 0.1 0.76
0 -1 15 3.43 0.99
0 -1 15 2.77 0.7
1 -1 15 0.96 0.83
1 -1 15 0.38 0.56
2 -1 15 6.02 0.93
2 -1 15 3.68 0.97
3 -1 15 4.11 0.82
4 -1 15 0.49 0.6
5 -1 15 20.95 1.73
6 -1 15 0.13 0.61
7 -1 15 3.58 0.87
-2 0 15 5.99 1.2
-1 0 15 0.37 0.81
0 0 15 2.81 0.69
0 0 15 2.7 0.91
1 0 15 3.37 0.94
1 0 15 2.38 0.69
2 0 15 1.84 0.67
2 0 15 2.28 0.88
3 0 15 3.38 0.75
4 0 15 20.55 1.68
5 0 15 0.57 0.6
6 0 15 22.19 1.78
7 0 15 0.99 0.67
8 0 15 0.48 0.66
-3 1 15 1.74 0.91
-2 1 15 1.52 0.85
-1 1 15 10.24 1.33
0 1 15 0.91 0.79
0 1 15 1.15 0.57
1 1 15 3.32 0.71
1 1 15 2.11 0.81
2 1 15 1 0.73
2 1 15 -0.24 0.51
3 1 15 17.76 1.5
4 1 15 0.36 0.57
5 1 15 14.28 1.39
6 1 15 1.47 0.66
7 1 15 5.04 0.91
8 1 15 3.24 0.81
9 1 15 4.92 0.94
-4 2 15 9.22 1.32
-3 2 15 0.44 0.82
-2 2 15 6.59 1.12
-1 2 15 1.78 0.85
-1 2 15 2.37 0.63
0 2 15 8.5 1.02
0 2 15 8.74 1.21
1 2 15 0.3 0.56
1 2 15 -0.48 0.67
2 2 15 2.04 0.61
2 2 15 0.15 0.69
3 2 15 5.15 1
3 2 15 8.06 1.01
4 2 15 11.64 1.24
5 2 15 1.84 0.67
6 2 15 13.75 1.38
7 2 15 18.63 1.61
8 2 15 0.68 0.65
9 2 15 7.34 1.1
10 2 15 0.21 0.61
-4 3 15 2.08 0.84
-3 3 15 21.31 1.96
-2 3 15 0.06 0.71
-2 3 15 0.65 0.52
-1 3 15 8.46 1.19
-1 3 15 7.12 0.9
0 3 15 2.16 0.65
0 3 15 1.87 0.76
1 3 15 5.67 0.86
1 3 15 4.74 0.95
2 3 15 13.01 1.46
2 3 15 13.93 1.26
3 3 15 0.27 0.6
3 3 15 -0.31 0.5
4 3 15 15.46 1.37
5 3 15 10.67 1.21
6 3 15 4.45 0.86
7 3 15 4.41 0.87
8 3 15 46.76 2.93
9 3 15 2.13 0.73
10 3 15 9.18 1.16
-5 4 15 3.12 1.04
-4 4 15 4.36 1
-3 4 15 -0.45 0.63
-2 4 15 18.57 1.82
-1 4 15 0.18 0.48
-1 4 15 0.45 0.75
0 4 15 15.59 1.57
0 4 15 17.06 1.39
1 4 15 8.22 0.97
1 4 15 8.14 1.15
2 4 15 0.06 0.65
2 4 15 -0.16 0.5
3 4 15 28.45 2.26
3 4 15 30.91 2.05
4 4 15 2.55 0.68
5 4 15 0.98 0.6
6 4 15 2.42 0.69
7 4 15 5.94 0.91
8 4 15 1.67 0.67
9 4 15 27.5 2.02
10 4 15 4.28 0.86
11 4 15 0.04 0.63
-5 5 15 1.02 0.82
-4 5 15 16.25 1.77
-3 5 15 13.4 1.56
-2 5 15 2.67 0.93
-1 5 15 27.56 2.26
0 5 15 4.94 0.79
0 5 15 6.52 1.09
1 5 15 1.55 0.79
1 5 15 1.6 0.59
2 5 15 30.68 2.3
2 5 15 30.87 2.04
3 5 15 0.49 0.52
3 5 15 0.03 0.66
4 5 15 17.92 1.48
5 5 15 1.53 0.62
6 5 15 5.01 0.84
7 5 15 0.39 0.57
8 5 15 10.63 1.19
9 5 15 0.08 0.57
10 5 15 3.08 0.82
11 5 15 0.01 0.62
-5 6 15 4.52 1.04
-4 6 15 -0.08 0.71
-3 6 15 11.05 1.4
-2 6 15 12.92 1.49
-1 6 15 0.32 0.69
0 6 15 1.15 0.72
1 6 15 36.82 2.6
1 6 15 36.18 2.27
2 6 15 0.61 0.51
2 6 15 0.83 0.64
3 6 15 24.62 1.73
3 6 15 23.6 1.88
4 6 15 2.83 0.71
4 6 15 2.23 0.63
5 6 15 11.42 1.15
6 6 15 19.44 1.54
7 6 15 3.73 0.76
8 6 15 12.92 1.28
9 6 15 8.52 1.09
10 6 15 -0.15 0.55
11 6 15 -0.15 0.61
-4 7 15 10.18 1.31
-3 7 15 -0.21 0.64
-2 7 15 6.19 1.03
-1 7 15 1.01 0.7
0 7 15 2.36 0.75
1 7 15 1.56 0.69
2 7 15 24.31 1.91
3 7 15 0.38 0.6
3 7 15 -0.16 0.42
4 7 15 8.27 1.05
4 7 15 8.68 0.96
5 7 15 21.1 1.56
6 7 15 -0.07 0.48
7 7 15 37.54 2.38
8 7 15 0.57 0.56
9 7 15 8.17 1.05
10 7 15 1.08 0.66
11 7 15 0.6 0.69
-4 8 15 -0.26 0.58
-3 8 15 29.69 2.31
-2 8 15 3.08 0.83
-1 8 15 0.22 0.66
0 8 15 5.62 0.96
1 8 15 4.14 0.87
2 8 15 0.96 0.65
3 8 15 18.69 1.6
4 8 15 1.27 0.53
4 8 15 2 0.64
5 8 15 0.86 0.5
6 8 15 22.06 1.59
7 8 15 -0.28 0.46
8 8 15 24.91 1.81
9 8 15 2.6 0.74
10 8 15 -0.12 0.54
11 8 15 3.64 0.87
-4 9 15 8.34 1.31
-3 9 15 13.58 1.46
-2 9 15 1.73 0.74
-1 9 15 19.16 1.75
0 9 15 1.83 0.74
1 9 15 11.47 1.31
2 9 15 2.65 0.73
3 9 15 0.45 0.54
4 9 15 2.54 0.68
5 9 15 4.96 0.75
6 9 15 0.42 0.46
7 9 15 21.65 1.61
8 9 15 -0.1 0.49
9 9 15 14.68 1.37
10 9 15 5.26 0.92
11 9 15 0.6 0.67
-3 10 15 2.5 0.85
-2 10 15 23.01 1.92
-1 10 15 2.8 0.81
0 10 15 13.42 1.45
1 10 15 -0.33 0.56
2 10 15 7.47 1.06
3 10 15 0.87 0.59
4 10 15 0.47 0.52
5 10 15 0.13 0.51
7 10 15 1.18 0.56
8 10 15 7.82 0.97
9 10 15 4.32 0.84
10 10 15 3.77 0.8
11 10 15 7.65 1.12
-2 11 15 17.76 1.73
-1 11 15 22.63 1.96
0 11 15 0.29 0.61
1 11 15 10.8 1.3
2 11 15 0.41 0.59
3 11 15 2.26 0.7
4 11 15 0.14 0.52
5 11 15 0.03 0.51
8 11 15 0.36 0.53
9 11 15 -0.21 0.5
10 11 15 10.47 1.2
-1 12 15 1.45 0.67
0 12 15 18.32 1.75
1 12 15 0.85 0.64
2 12 15 7.57 1.11
3 12 15 1.68 0.69
4 12 15 1.06 0.63
5 12 15 10.13 1.24
1 13 15 11 1.37
2 13 15 -0.26 0.58
3 13 15 2.65 0.81
4 13 15 15.8 1.59
5 13 15 0.32 0.62
3 14 15 4.38 0.99
4 14 15 0.47 0.69
5 14 15 6.63 1.11
1 -1 16 -0.16 0.59
2 -1 16 4.72 0.93
3 -1 16 1.46 0.7
-1 0 16 2.72 0.76
0 0 16 -0.13 0.55
0 0 16 -0.6 0.8
1 0 16 1.12 0.89
2 0 16 1.68 0.97
2 0 16 2.73 0.77
3 0 16 8.68 1.15
4 0 16 0.21 0.63
5 0 16 5.46 0.96
6 0 16 0.11 0.6
-1 1 16 0.09 0.56
-1 1 16 1 0.86
0 1 16 0.23 0.58
0 1 16 0.34 0.78
1 1 16 4.46 1.04
1 1 16 3.53 0.83
2 1 16 0.03 0.77
2 1 16 -0.21 0.53
3 1 16 1.75 0.68
4 1 16 4.43 0.87
5 1 16 -0.31 0.59
6 1 16 1.79 0.74
7 1 16 0.04 0.62
-2 2 16 1.23 0.98
-2 2 16 1.58 0.65
-1 2 16 4.25 0.8
-1 2 16 4.4 1.06
0 2 16 0.92 0.82
0 2 16 0.37 0.57
1 2 16 0.44 0.58
1 2 16 0.36 0.77
2 2 16 17.81 1.52
2 2 16 18.98 1.79
3 2 16 0.45 0.57
4 2 16 14.54 1.42
5 2 16 1.63 0.71
6 2 16 -0.09 0.59
7 2 16 0.59 0.67
8 2 16 7.87 1.15
-2 3 16 10.24 1.12
-2 3 16 10.8 1.46
-1 3 16 0.12 0.73
-1 3 16 -0.38 0.54
0 3 16 3.34 0.77
0 3 16 3.54 0.95
1 3 16 2.77 0.7
1 3 16 3.51 0.94
2 3 16 0.26 0.75
2 3 16 0.4 0.55
3 3 16 38.25 2.49
4 3 16 0.7 0.6
5 3 16 14.41 1.44
6 3 16 0.24 0.6
7 3 16 3.94 0.88
8 3 16 1.65 0.72
9 3 16 7.69 1.16
-2 4 16 3.03 0.95
-1 4 16 6.09 0.91
-1 4 16 6.05 1.13
0 4 16 7.51 1.2
0 4 16 7.2 0.96
1 4 16 0.38 0.75
1 4 16 0.34 0.55
2 4 16 13.13 1.47
2 4 16 11.47 1.25
3 4 16 2.48 0.72
3 4 16 3.16 0.9
4 4 16 20.25 1.68
5 4 16 -0.03 0.54
6 4 16 3.54 0.82
7 4 16 5.79 0.98
8 4 16 5.9 0.99
9 4 16 8.4 1.19
-3 5 16 14.35 1.68
-2 5 16 2.47 1
-1 5 16 0.65 0.84
0 5 16 0.41 0.57
0 5 16 1.18 0.85
1 5 16 7.63 1.19
1 5 16 7.81 0.98
2 5 16 2.21 0.87
2 5 16 3.22 0.72
3 5 16 16.57 1.64
3 5 16 14.73 1.39
4 5 16 4.79 0.86
5 5 16 1.39 0.65
6 5 16 23.63 1.82
7 5 16 -0.37 0.56
8 5 16 7.84 1.12
9 5 16 0.93 0.68
10 5 16 3.01 0.85
-3 6 16 0.77 0.83
-2 6 16 12.28 1.53
-1 6 16 0.63 0.81
0 6 16 0.61 0.75
1 6 16 1.88 0.82
2 6 16 5.57 0.87
2 6 16 7.4 1.12
3 6 16 1.27 0.72
3 6 16 1.93 0.67
4 6 16 4.52 0.84
5 6 16 11.11 1.21
6 6 16 0.44 0.55
7 6 16 21.22 1.69
8 6 16 0.23 0.57
9 6 16 2.43 0.77
10 6 16 1.66 0.76
-3 7 16 11.52 1.44
-2 7 16 -0.13 0.68
-1 7 16 6.75 1.12
0 7 16 11.42 1.36
2 7 16 11.88 1.34
3 7 16 1.63 0.59
3 7 16 1.92 0.73
4 7 16 0.66 0.55
5 7 16 3.07 0.72
6 7 16 10.64 1.17
7 7 16 0.15 0.58
8 7 16 29.98 2.09
9 7 16 0.21 0.63
10 7 16 0.58 0.7
-2 8 16 9.2 1.26
-1 8 16 9.99 1.32
0 8 16 0.3 0.66
1 8 16 19.92 1.81
2 8 16 0.53 0.63
3 8 16 4.85 0.9
4 8 16 0.05 0.57
4 8 16 0.47 0.52
5 8 16 9.96 1.06
6 8 16 4 0.75
7 8 16 32.58 2.19
8 8 16 -0.16 0.56
9 8 16 6.92 1.05
10 8 16 1.73 0.76
-2 9 16 3.06 0.91
-1 9 16 1.87 0.77
0 9 16 16.91 1.67
1 9 16 0.4 0.63
2 9 16 9.4 1.22
3 9 16 0.84 0.63
4 9 16 2.28 0.71
6 9 16 11.74 1.17
7 9 16 1.21 0.6
8 9 16 3.64 0.79
9 9 16 3.14 0.79
10 9 16 0.01 0.62
-1 10 16 25.02 2.1
0 10 16 0.99 0.72
1 10 16 14.87 1.54
2 10 16 1.12 0.67
3 10 16 4.38 0.88
4 10 16 7.33 1.05
7 10 16 1.57 0.61
8 10 16 0.87 0.59
9 10 16 0.3 0.58
0 11 16 17.1 1.67
1 11 16 0.19 0.63
2 11 16 5.72 1
3 11 16 4.82 0.91
4 11 16 0.19 0.58
9 11 16 1.65 0.68
1 12 16 7.18 1.14
2 12 16 1.56 0.75
3 12 16 -0.04 0.55
4 12 16 9.75 1.24
3 13 16 3.44 0.86
4 13 16 0.37 0.67
5 13 16 8.52 1.35
0 2 17 3.7 0.86
1 2 17 12.63 1.54
1 2 17 10.73 1.26
2 2 17 0.61 0.66
2 2 17 0.82 0.87
3 2 17 8.6 1.16
4 2 17 2.15 0.77
5 2 17 16.3 1.59
-1 3 17 -0.03 0.59
0 3 17 9.93 1.19
0 3 17 11.11 1.53
1 3 17 2.17 0.96
1 3 17 1.28 0.66
2 3 17 8.13 1.26
2 3 17 8.09 1.11
3 3 17 0.63 0.65
4 3 17 16.03 1.56
5 3 17 3.94 0.93
6 3 17 3.55 0.92
0 4 17 0.59 0.88
0 4 17 0.01 0.57
1 4 17 15.93 1.74
1 4 17 12.28 1.35
2 4 17 -0.23 0.81
2 4 17 0.1 0.6
3 4 17 2.85 0.77
4 4 17 2.24 0.78
5 4 17 7.49 1.12
6 4 17 6.51 1.08
7 4 17 0.03 0.68
0 5 17 0.2 0.85
1 5 17 4.48 1.04
1 5 17 4.23 0.85
2 5 17 10.08 1.2
2 5 17 11.63 1.46
3 5 17 -0.24 0.57
4 5 17 0.81 0.66
5 5 17 -0.12 0.63
6 5 17 6.55 1.04
7 5 17 20.28 1.73
8 5 17 0.3 0.65
-1 6 17 7.06 1.31
0 6 17 19.68 1.95
1 6 17 -0.16 0.74
2 6 17 6.55 0.97
3 6 17 1.75 0.7
3 6 17 2.24 0.87
4 6 17 0.29 0.6
5 6 17 5.55 0.92
6 6 17 22.48 1.81
7 6 17 0.31 0.62
8 6 17 12.57 1.41
0 7 17 8.94 1.27
1 7 17 17.54 1.69
2 7 17 0.45 0.71
3 7 17 4.88 0.97
4 7 17 0.22 0.54
5 7 17 0.47 0.59
6 7 17 13.75 1.42
7 7 17 10.29 1.21
8 7 17 0.1 0.6
0 8 17 12.65 1.51
1 8 17 0.76 0.72
2 8 17 22.39 1.97
3 8 17 1.21 0.73
5 8 17 5.38 0.9
6 8 17 0.66 0.6
7 8 17 1.98 0.71
8 8 17 5.62 0.99
0 9 17 0.26 0.75
1 9 17 14.03 1.52
2 9 17 0.49 0.7
3 9 17 8.93 1.19
7 9 17 2.12 0.71
8 9 17 0.67 0.65
1 10 17 0.49 0.66
2 10 17 2.61 0.81
3 10 17 7.74 1.15
4 10 17 2.97 0.85
8 10 17 1.32 0.67
2 11 17 1.1 0.74
3 11 17 0.1 0.64
4 11 17 12.54 1.43
4 12 17 2.16 0.79
2 5 18 13.42 1.66
2 5 18 12.65 1.4
3 5 18 -1.13 0.58
4 5 18 0.55 0.69
2 6 18 0.5 0.82
3 6 18 14.35 1.47
4 6 18 3.49 0.89
5 6 18 2.48 0.8
2 7 18 17.5 1.79
4 7 18 2.92 0.8
5 7 18 5.64 0.98
2 8 18 1.06 0.82
3 8 18 5.66 1.09
3 9 18 1.26 0.8
loop_
_platon_missing_refln_index_h
_platon_missing_refln_index_k
_platon_missing_refln_index_l
_platon_missing_refln_theta
-2 1 0 4.014
0 2 0 3.530
4 3 0 8.166
1 5 0 8.824
-1 -4 1 7.953
0 -4 1 7.896
1 -4 1 8.205
2 -4 1 8.843
-3 -3 1 7.767
-1 -3 1 6.289
-2 -2 1 5.506
-1 -1 1 3.343
2 0 1 3.598
0 1 1 1.875
-3 2 1 6.562
3 2 1 5.518
0 3 1 4.873
4 3 1 7.708
0 4 1 6.580
3 4 1 7.696
-3 -3 2 8.835
-2 -2 2 6.697
1 0 2 3.538
2 1 2 4.103
-3 2 2 6.988
-2 2 2 5.602
3 2 2 5.646
-4 3 2 9.276
4 3 2 7.598
5 3 2 8.983
-2 4 2 7.894
0 4 2 6.492
3 5 2 8.799
-3 -3 3 10.075
-2 -3 3 9.306
2 -3 3 9.282
-2 -2 3 8.064
-1 -1 3 6.288
-1 0 3 5.475
2 1 3 5.185
4 2 3 7.470
-2 3 3 7.206
5 3 3 9.158
-2 4 3 8.259
0 4 3 6.824
3 5 3 8.791
-2 -1 4 8.556
-3 1 4 8.672
2 1 4 6.520
3 2 4 7.170
4 2 4 8.227
-2 3 4 8.110
-3 4 4 10.010
-2 0 5 9.411
2 0 5 8.599
-1 4 5 9.031
2 0 6 10.168
2 5 6 10.183
