#------------------------------------------------------------------------------
#$Date: 2019-11-17 10:57:06 +0200 (Sun, 17 Nov 2019) $
#$Revision: 229459 $
#$URL: file:///home/coder/svn-repositories/cod/cif/7/04/51/7045151.cif $
#------------------------------------------------------------------------------
#
# This file is available in the Crystallography Open Database (COD),
# http://www.crystallography.net/
#
# All data on this site have been placed in the public domain by the
# contributors.
#
data_7045151
loop_
_publ_author_name
'Liu, Fu-Ling'
'Li, Dong'
'Su, Li-Jie'
'Tao, Jun'
_publ_section_title
;
 Reversible three equal-step spin crossover in an iron(ii) Hofmann-type
 metal-organic framework.
;
_journal_issue                   5
_journal_name_full
'Dalton transactions (Cambridge, England : 2003)'
_journal_page_first              1407
_journal_page_last               1411
_journal_paper_doi               10.1039/c7dt04205a
_journal_volume                  47
_journal_year                    2018
_chemical_formula_sum            'C16 Fe N9 Pt'
_chemical_formula_weight         569.19
_space_group_crystal_system      orthorhombic
_space_group_IT_number           51
_space_group_name_Hall           '-P 2a 2a'
_space_group_name_H-M_alt        'P m m a'
_symmetry_space_group_name_Hall  '-P 2a 2a'
_symmetry_space_group_name_H-M   'P m m a'
_audit_creation_method           SHELXL-2014/7
_audit_update_record
;
2017-10-21 deposited with the CCDC.
2017-12-22 downloaded from the CCDC.
;
_cell_angle_alpha                90
_cell_angle_beta                 90
_cell_angle_gamma                90
_cell_formula_units_Z            4
_cell_length_a                   27.4566(6)
_cell_length_b                   7.3683(2)
_cell_length_c                   14.4844(3)
_cell_measurement_reflns_used    5727
_cell_measurement_temperature    280(2)
_cell_measurement_theta_max      65.6710
_cell_measurement_theta_min      4.4140
_cell_volume                     2930.32(12)
_computing_structure_refinement  'SHELXL-2014/7 (Sheldrick, 2014)'
_diffrn_ambient_temperature      280(2)
_diffrn_measured_fraction_theta_full 0.978
_diffrn_measured_fraction_theta_max 0.978
_diffrn_measurement_device_type  'SuperNova, Dual, Cu at zero, Atlas'
_diffrn_radiation_type           CuK\a
_diffrn_radiation_wavelength     1.54184
_diffrn_reflns_av_R_equivalents  0.0418
_diffrn_reflns_av_unetI/netI     0.0333
_diffrn_reflns_Laue_measured_fraction_full 0.978
_diffrn_reflns_Laue_measured_fraction_max 0.978
_diffrn_reflns_limit_h_max       27
_diffrn_reflns_limit_h_min       -32
_diffrn_reflns_limit_k_max       8
_diffrn_reflns_limit_k_min       -8
_diffrn_reflns_limit_l_max       7
_diffrn_reflns_limit_l_min       -17
_diffrn_reflns_number            9778
_diffrn_reflns_point_group_measured_fraction_full 0.978
_diffrn_reflns_point_group_measured_fraction_max 0.978
_diffrn_reflns_theta_full        65.723
_diffrn_reflns_theta_max         65.723
_diffrn_reflns_theta_min         3.450
_exptl_absorpt_coefficient_mu    12.885
_exptl_absorpt_correction_T_max  1.00000
_exptl_absorpt_correction_T_min  0.44530
_exptl_absorpt_correction_type   multi-scan
_exptl_crystal_colour            yellow
_exptl_crystal_density_diffrn    1.290
_exptl_crystal_description       rodlike
_exptl_crystal_F_000             1052
_exptl_crystal_size_max          0.100
_exptl_crystal_size_mid          0.050
_exptl_crystal_size_min          0.050
_refine_diff_density_max         2.088
_refine_diff_density_min         -1.175
_refine_diff_density_rms         0.173
_refine_ls_extinction_method     none
_refine_ls_goodness_of_fit_ref   1.066
_refine_ls_hydrogen_treatment    undef
_refine_ls_matrix_type           full
_refine_ls_number_parameters     245
_refine_ls_number_reflns         2756
_refine_ls_number_restraints     294
_refine_ls_restrained_S_all      1.064
_refine_ls_R_factor_all          0.0475
_refine_ls_R_factor_gt           0.0462
_refine_ls_shift/su_max          0.002
_refine_ls_shift/su_mean         0.000
_refine_ls_structure_factor_coef Fsqd
_refine_ls_weighting_details
'w=1/[\s^2^(Fo^2^)+(0.0783P)^2^+15.7556P] where P=(Fo^2^+2Fc^2^)/3'
_refine_ls_weighting_scheme      calc
_refine_ls_wR_factor_gt          0.1235
_refine_ls_wR_factor_ref         0.1252
_reflns_Friedel_coverage         0.000
_reflns_number_gt                2623
_reflns_number_total             2756
_reflns_threshold_expression     'I > 2\s(I)'
_cod_data_source_file            c7dt04205a2.cif
_cod_data_source_block           p-280K
_cod_depositor_comments
'Adding full bibliography for 7045151--7045154.cif.'
_cod_database_code               7045151
_shelx_shelxl_version_number     2014/7
_shelx_space_group_comment
;
The symmetry employed for this shelxl refinement is uniquely defined
by the following loop, which should always be used as a source of
symmetry information in preference to the above space-group names.
They are only intended as comments.
;
_shelx_estimated_absorpt_t_min   0.359
_shelx_estimated_absorpt_t_max   0.565
_shelx_res_file
;

    p.res created by SHELXL-2014/7


TITL exp_4315_a.res in Pmma
REM Old TITL exp_4315 in P222
REM SHELXT solution in Pmma
REM R1 0.201, Rweak 0.023, Alpha 0.051, Orientation a'=c, b'=a, c'=b
REM Formula found by SHELXT: C21 N9 O8 I2
CELL 1.54184 27.4566 7.3683 14.4844 90 90 90
ZERR 4 0.0006 0.0002 0.0003 0 0 0
LATT 1
SYMM 0.5-X,-Y,+Z
SYMM -X,+Y,-Z
SYMM 0.5+X,-Y,-Z
SFAC C Fe N Pt
UNIT 64 4 36 4
SIMU 0.004 0.008 1.7 C6 C24 C25 N11 N12 N1 N6 C1 C22 C13 C4 C2 C21 C15 C14 =
 C3 C20 C18 N4 N2 N10 N8 C7 N3 C19 N9 C8 C9 C12 C10 C11 N5
SIMU 0.004 0.008 1.7 N4 C25 C24 N12 N11 N6 N7 N1 C13 C23 C17 C22 C1 C14 C15 =
 C16 C21 C4 C2 C20 C3 C18 C6 N10 N8 N2 C19 N9 C7 N3 C8 C9 C12 C10 C11 N5
SIMU 0.004 0.008 1.7 C5 C4
ISOR 0.01 0.2 N12 C25 C24 N11

L.S. 5 0   33
PLAN  40
TEMP 7
size 0.1 0.05 0.05
bond $h
list 4
fmap 2
acta
OMIT 2 1 2
OMIT 2 2 2
OMIT 0 3 0
OMIT 0 1 0
OMIT 1 2 2
OMIT 2 4 2
OMIT 0 2 1
OMIT 2 1 3
OMIT 6 0 2
OMIT 0 5 0
OMIT 0 1 1
OMIT 1 1 2
OMIT 0 3 1
OMIT 0 2 0
OMIT 7 0 1
REM <olex2.extras>
REM <HklSrc "%.\\exp_4315.hkl">
REM </olex2.extras>

ABIN
ACTA
WGHT    0.078300   15.755600
FVAR       0.13789
PT1   4    0.622776    0.500000    1.064753    10.50000    0.01387    0.01710 =
         0.02983    0.00000   -0.00423    0.00000
FE2   2    0.500000    0.000000    1.000000    10.25000    0.01222    0.01673 =
         0.01902    0.00000   -0.00361    0.00000
FE1   2    0.750000    1.000000    1.130266    10.25000    0.03495    0.01734 =
         0.01637    0.00000    0.00000    0.00000
N12   3    0.550768    0.197816    1.003604    11.00000    0.03339    0.03426 =
         0.11292   -0.01416   -0.02981    0.00377
C25   1    0.576986    0.306439    1.024920    11.00000    0.02927    0.03155 =
         0.10227   -0.00780   -0.02741    0.00691
N11   3    0.696378    0.795576    1.125988    11.00000    0.05357    0.03818 =
         0.12868   -0.00298   -0.05183   -0.00405
C4    1    0.750000    1.000000    0.824778    10.25000    0.02646    0.08178 =
         0.01879    0.00000    0.00000    0.00000
C24   1    0.668590    0.688521    1.105322    11.00000    0.04522    0.03471 =
         0.11857    0.00016   -0.04791    0.00001
C9    1    0.750000    1.000000    0.435188    10.25000    0.02628    0.07372 =
         0.02062    0.00000    0.00000    0.00000
N6    3    0.519922    0.000000    0.865232    10.25000    0.02073    0.06007 =
         0.02641    0.00000   -0.00294    0.00000
N5    3    0.733627    1.000000    0.273557    10.25000    0.02467    0.06620 =
         0.01883    0.00000    0.00191    0.00000
C3    1    0.702005    1.000000    0.795817    10.25000    0.02634    0.08119 =
         0.01865    0.00000   -0.00067    0.00000
C2    1    0.664773    1.000000    0.862768    10.25000    0.02431    0.07637 =
         0.01799    0.00000   -0.00145    0.00000
C22   1    0.434827    0.000000    0.824284    10.25000    0.02044    0.06145 =
         0.02407    0.00000   -0.00314    0.00000
N1    3    0.724608    1.000000    0.981880    10.25000    0.01925    0.06797 =
         0.01321    0.00000    0.00094    0.00000
N4    3    0.717875    1.000000    0.626854    10.25000    0.02698    0.08627 =
         0.01786    0.00000   -0.00070    0.00000
C11   1    0.687046    1.000000    0.295932    10.25000    0.02498    0.06956 =
         0.02007    0.00000    0.00112    0.00000
N10   3    0.469566    0.000000    0.491023    10.25000    0.02315    0.08012 =
         0.02401    0.00000   -0.00472    0.00000
C13   1    0.566919    0.000000    0.838295    10.25000    0.02106    0.06045 =
         0.02742    0.00000   -0.00322    0.00000
C6    1    0.685907    1.000000    0.699599    10.25000    0.02760    0.08736 =
         0.02021    0.00000    0.00037    0.00000
C20   1    0.456086    0.000000    0.662554    10.25000    0.02358    0.06821 =
         0.02430    0.00000   -0.00379    0.00000
C8    1    0.704818    1.000000    0.460977    10.25000    0.02613    0.07661 =
         0.01911    0.00000    0.00046    0.00000
C7    1    0.687868    1.000000    0.552783    10.25000    0.02809    0.08519 =
         0.01997    0.00000    0.00104    0.00000
C14   1    0.581348    0.000000    0.748813    10.25000    0.02175    0.06112 =
         0.02795    0.00000   -0.00429    0.00000
C21   1    0.419716    0.000000    0.729861    10.25000    0.02245    0.06474 =
         0.02295    0.00000   -0.00284    0.00000
C15   1    0.545555    0.000000    0.676603    10.25000    0.02292    0.06183 =
         0.02759    0.00000   -0.00530    0.00000
C19   1    0.439955    0.000000    0.418754    10.25000    0.02438    0.08338 =
         0.02454    0.00000   -0.00347    0.00000
C18   1    0.438878    0.000000    0.564492    10.25000    0.02417    0.07777 =
         0.02523    0.00000   -0.00282    0.00000
C1    1    0.679185    1.000000    0.956712    10.25000    0.02129    0.07079 =
         0.01598    0.00000   -0.00099    0.00000
C12   1    0.669944    1.000000    0.388433    10.25000    0.02533    0.07264 =
         0.01946    0.00000    0.00068    0.00000
N9    3    0.394502    0.000000    0.449232    10.25000    0.02750    0.08679 =
         0.02686    0.00000   -0.00346    0.00000
N3    3    0.643644    1.000000    0.578981    10.25000    0.03135    0.09273 =
         0.02189    0.00000    0.00012    0.00000
N2    3    0.639134    1.000000    0.673588    10.25000    0.03209    0.09420 =
         0.02163    0.00000    0.00015    0.00000
N8    3    0.393076    0.000000    0.544666    10.25000    0.02769    0.08508 =
         0.02750    0.00000   -0.00287    0.00000
C10   1    0.732744    1.000000    0.339872    10.25000    0.02558    0.06966 =
         0.02063    0.00000   -0.00014    0.00000
C16   1    0.500235    0.000000    0.696900    10.50000    0.02436    0.06529 =
         0.02910    0.00000   -0.00560    0.00000
N7    3    0.480041    0.000000    0.848856    10.25000    0.02080    0.06064 =
         0.02581    0.00000   -0.00361    0.00000
C23   1    0.514480    0.000000    0.782397    10.25000    0.02265    0.06200 =
         0.02759    0.00000   -0.00341    0.00000
C17   1    0.486020    0.000000    0.802482    10.25000    0.02160    0.06148 =
         0.02680    0.00000   -0.00379    0.00000
C5    1    0.741251    1.000000    0.919047    10.25000    0.02608    0.08122 =
         0.01827    0.00000   -0.00379    0.00000
HKLF 4

REM  exp_4315_a.res in Pmma
REM R1 =  0.0462 for    2623 Fo > 4sig(Fo)  and  0.0475 for all    2756 data
REM    245 parameters refined using    294 restraints

END

WGHT      0.0781     15.9695

REM Highest difference peak  2.088,  deepest hole -1.175,  1-sigma level  0.173
Q1    1   0.6244  0.3383  1.0699  11.00000  0.05    2.09
Q2    1   0.4333 -0.1482  0.5234  11.00000  0.05    2.02
Q3    1   0.6864  0.8493  0.6413  11.00000  0.05    1.89
Q4    1   0.6275  0.5000  1.1377  10.50000  0.05    1.40
Q5    1   0.6887  0.7961  1.1706  11.00000  0.05    1.26
Q6    1   0.6659  0.5000  1.0747  10.50000  0.05    1.24
Q7    1   0.6258  0.9303  1.0718  11.00000  0.05    1.19
Q8    1   0.5783  0.5000  1.0612  10.50000  0.05    1.05
Q9    1   0.6280  0.7951  1.0691  11.00000  0.05    1.03
Q10   1   0.5558  0.2086  0.9577  11.00000  0.05    0.80
Q11   1   0.7010  0.7979  1.0812  11.00000  0.05    0.74
Q12   1   0.6467  0.8971  0.5822  11.00000  0.05    0.74
Q13   1   0.6420  0.8923  0.6783  11.00000  0.05    0.72
Q14   1   0.5476  0.1778  1.0412  11.00000  0.05    0.69
Q15   1   0.6258  0.5000  0.9805  10.50000  0.05    0.61
Q16   1   0.6044  0.4335  0.9808  11.00000  0.05    0.55
Q17   1   0.7500  1.0000  0.8696  10.25000  0.05    0.55
Q18   1   0.3970  0.0979  0.4471  11.00000  0.05    0.55
Q19   1   0.6385  0.5895  0.9916  11.00000  0.05    0.53
Q20   1   0.7500  1.1622  1.1433  10.50000  0.05    0.53
Q21   1   0.5220  0.0000  0.6599  10.50000  0.05    0.50
Q22   1   0.5000  0.1676  1.0000  10.50000  0.05    0.49
Q23   1   0.6934  1.0000  0.5777  10.50000  0.05    0.48
Q24   1   0.4034  0.0000  0.8728  10.50000  0.05    0.47
Q25   1   0.7500  0.7041  1.1460  10.50000  0.05    0.46
Q26   1   0.7290  1.0000  0.7781  10.50000  0.05    0.43
Q27   1   0.5962  0.0000  0.8939  10.50000  0.05    0.42
Q28   1   0.6912  1.0000  0.3291  10.50000  0.05    0.42
Q29   1   0.6606  1.0000  0.2667  10.50000  0.05    0.41
Q30   1   0.7297  1.0000  0.2100  10.50000  0.05    0.41
Q31   1   0.6246  1.0000  0.8405  10.50000  0.05    0.41
Q32   1   0.3722  0.0000  0.6985  10.50000  0.05    0.41
Q33   1   0.6206  0.0000  0.7485  10.50000  0.05    0.39
Q34   1   0.6303  1.0000  0.3936  10.50000  0.05    0.39
Q35   1   0.6039  0.2656  0.9379  11.00000  0.05    0.37
Q36   1   0.6821  1.1464  0.4740  11.00000  0.05    0.35
Q37   1   0.3924 -0.1057  0.5377  11.00000  0.05    0.35
Q38   1   0.6426  0.7740  0.9903  11.00000  0.05    0.35
Q39   1   0.7500  1.0900  0.2086  10.50000  0.05    0.35
Q40   1   0.6175  0.1977  0.9918  11.00000  0.05    0.35
;
_shelx_res_checksum              71942
_shelx_fab_file
;
    4    0    0     24.31      0.00
    6    0    0     -0.73      0.00
    8    0    0      5.41      0.00
   10    0    0     -2.09      0.00
   12    0    0      5.18      0.00
   14    0    0     -3.59      0.00
   16    0    0      8.47      0.00
   18    0    0     -0.92      0.00
   20    0    0      8.84      0.00
   22    0    0     10.01      0.00
   24    0    0      4.15      0.00
   26    0    0      1.12      0.00
   28    0    0      3.11      0.00
   30    0    0      0.45      0.00
    1    0    1    -16.55      0.00
    2    0    1     -3.12      0.00
    3    0    1      4.80      0.00
    4    0    1      8.61      0.00
    5    0    1     13.74      0.00
    6    0    1     -3.93      0.00
    8    0    1     10.39      0.00
    9    0    1     -3.86      0.00
   10    0    1     -4.53      0.00
   11    0    1      1.48      0.00
   12    0    1     -1.74      0.00
   13    0    1     -2.15      0.00
   14    0    1      2.71      0.00
   15    0    1      1.54      0.00
   16    0    1     -1.45      0.00
   17    0    1      2.49      0.00
   18    0    1      0.87      0.00
   19    0    1      4.77      0.00
   20    0    1     -4.36      0.00
   21    0    1      6.94      0.00
   22    0    1     -3.97      0.00
   23    0    1     -0.02      0.00
   24    0    1     -0.82      0.00
   25    0    1      4.39      0.00
   26    0    1      1.65      0.00
   27    0    1      0.69      0.00
   28    0    1     -2.79      0.00
   29    0    1     -0.68      0.00
   30    0    1     -0.55      0.00
   31    0    1      1.01      0.00
   32    0    1     -4.08      0.00
    0    0    2    -23.11      0.00
    1    0    2    -51.17      0.00
    2    0    2     -8.15      0.00
    3    0    2     -1.14      0.00
    4    0    2     -9.93      0.00
    5    0    2    -12.87      0.00
    7    0    2     12.33      0.00
    8    0    2     -0.43      0.00
    9    0    2     -2.87      0.00
   10    0    2      5.25      0.00
   11    0    2      4.01      0.00
   12    0    2      0.57      0.00
   13    0    2     -0.87      0.00
   14    0    2     -8.73      0.00
   15    0    2     -0.12      0.00
   16    0    2     -4.32      0.00
   17    0    2     -3.41      0.00
   18    0    2      0.61      0.00
   19    0    2     -4.07      0.00
   20    0    2     -1.14      0.00
   21    0    2     -1.90      0.00
   22    0    2     -6.13      0.00
   23    0    2     -1.62      0.00
   24    0    2     -3.71      0.00
   25    0    2     -3.86      0.00
   26    0    2     -3.16      0.00
   27    0    2      0.49      0.00
   28    0    2     -1.08      0.00
   29    0    2      0.29      0.00
   30    0    2      0.34      0.00
   31    0    2     -0.97      0.00
   32    0    2     -2.23      0.00
    0    0    3      4.86      0.00
    1    0    3     37.08      0.00
    2    0    3      0.70      0.00
    3    0    3     14.36      0.00
    4    0    3      6.80      0.00
    5    0    3     -9.84      0.00
    6    0    3      1.29      0.00
    7    0    3      7.73      0.00
    8    0    3     -6.25      0.00
    9    0    3     -2.81      0.00
   10    0    3      1.74      0.00
   11    0    3     -6.03      0.00
   12    0    3     -3.72      0.00
   13    0    3      2.39      0.00
   14    0    3      5.21      0.00
   15    0    3      2.66      0.00
   16    0    3      3.35      0.00
   17    0    3      3.23      0.00
   18    0    3     -4.12      0.00
   19    0    3      3.14      0.00
   20    0    3     -0.94      0.00
   21    0    3     -6.76      0.00
   22    0    3      1.60      0.00
   23    0    3      5.10      0.00
   24    0    3      2.92      0.00
   25    0    3      3.26      0.00
   26    0    3      0.07      0.00
   27    0    3     -1.36      0.00
   28    0    3      1.98      0.00
   29    0    3      0.32      0.00
   30    0    3     -0.94      0.00
   31    0    3      1.04      0.00
    0    0    4      1.99      0.00
    1    0    4     -7.80      0.00
    2    0    4     -7.22      0.00
    3    0    4     -5.59      0.00
    4    0    4     -1.42      0.00
    5    0    4     12.95      0.00
    6    0    4     13.77      0.00
    7    0    4    -10.92      0.00
    8    0    4     -2.68      0.00
    9    0    4     10.28      0.00
   10    0    4      4.44      0.00
   11    0    4      0.16      0.00
   12    0    4      4.57      0.00
   13    0    4     -5.09      0.00
   14    0    4      0.78      0.00
   15    0    4      3.74      0.00
   16    0    4     -0.44      0.00
   17    0    4      0.60      0.00
   18    0    4      0.01      0.00
   19    0    4     -5.71      0.00
   20    0    4      4.72      0.00
   21    0    4      8.64      0.00
   22    0    4      0.72      0.00
   23    0    4     -0.62      0.00
   24    0    4      1.20      0.00
   25    0    4     -0.45      0.00
   26    0    4     -0.15      0.00
   27    0    4      1.59      0.00
   28    0    4     -0.67      0.00
   29    0    4      0.60      0.00
   30    0    4      3.52      0.00
   31    0    4      4.92      0.00
    0    0    5      3.75      0.00
    1    0    5    -14.86      0.00
    2    0    5     16.02      0.00
    3    0    5     -1.32      0.00
    4    0    5     -3.27      0.00
    5    0    5     -4.79      0.00
    6    0    5     -8.05      0.00
    7    0    5      8.24      0.00
    8    0    5      3.54      0.00
    9    0    5     -6.26      0.00
   10    0    5    -12.84      0.00
   11    0    5      0.80      0.00
   12    0    5     -0.78      0.00
   13    0    5      3.86      0.00
   14    0    5      4.03      0.00
   15    0    5     -1.68      0.00
   16    0    5      0.38      0.00
   17    0    5     -3.50      0.00
   18    0    5      2.90      0.00
   19    0    5      8.53      0.00
   20    0    5     -4.94      0.00
   21    0    5     -5.19      0.00
   22    0    5      4.46      0.00
   23    0    5      0.30      0.00
   24    0    5      0.26      0.00
   25    0    5     -0.29      0.00
   26    0    5      1.51      0.00
   27    0    5      2.60      0.00
   28    0    5      2.51      0.00
   29    0    5      0.17      0.00
   30    0    5      0.82      0.00
   31    0    5      0.85      0.00
    0    0    6    -11.70      0.00
    1    0    6     13.69      0.00
    2    0    6    -12.32      0.00
    3    0    6     10.96      0.00
    4    0    6      8.20      0.00
    5    0    6     -5.00      0.00
    6    0    6    -13.97      0.00
    7    0    6     -8.07      0.00
    8    0    6     -1.98      0.00
    9    0    6     -2.26      0.00
   10    0    6      2.87      0.00
   11    0    6      4.63      0.00
   12    0    6     -1.94      0.00
   13    0    6      1.76      0.00
   14    0    6     -0.84      0.00
   15    0    6      2.79      0.00
   16    0    6      0.60      0.00
   17    0    6      1.33      0.00
   18    0    6     -5.77      0.00
   19    0    6     -4.05      0.00
   20    0    6      7.38      0.00
   21    0    6      2.76      0.00
   22    0    6     -7.23      0.00
   23    0    6      0.94      0.00
   24    0    6     -2.09      0.00
   25    0    6      0.81      0.00
   26    0    6     -3.12      0.00
   27    0    6     -1.12      0.00
   28    0    6     -3.13      0.00
   29    0    6      0.30      0.00
   30    0    6     -2.15      0.00
    0    0    7     -4.90      0.00
    1    0    7     -2.66      0.00
    2    0    7      4.30      0.00
    3    0    7     -6.59      0.00
    4    0    7    -10.26      0.00
    5    0    7     -0.68      0.00
    6    0    7     17.45      0.00
    7    0    7      6.28      0.00
    8    0    7     -8.02      0.00
    9    0    7      1.00      0.00
   10    0    7      1.76      0.00
   11    0    7      0.03      0.00
   12    0    7      2.17      0.00
   13    0    7     -1.13      0.00
   14    0    7     -3.09      0.00
   15    0    7     -2.44      0.00
   16    0    7     -0.30      0.00
   17    0    7     -0.22      0.00
   18    0    7      5.70      0.00
   19    0    7      1.55      0.00
   20    0    7     -6.34      0.00
   21    0    7     -0.30      0.00
   22    0    7      3.26      0.00
   23    0    7     -2.65      0.00
   24    0    7      0.96      0.00
   25    0    7     -2.21      0.00
   26    0    7      0.86      0.00
   27    0    7      1.51      0.00
   28    0    7     -2.38      0.00
   29    0    7     -0.94      0.00
    0    0    8     19.06      0.00
    1    0    8      5.08      0.00
    2    0    8     -0.18      0.00
    3    0    8     -0.26      0.00
    4    0    8     -0.23      0.00
    5    0    8      3.04      0.00
    6    0    8     -6.38      0.00
    7    0    8     -6.02      0.00
    8    0    8      4.27      0.00
    9    0    8      1.29      0.00
   10    0    8      1.65      0.00
   11    0    8     -4.90      0.00
   12    0    8      0.56      0.00
   13    0    8     -2.42      0.00
   14    0    8     -0.02      0.00
   15    0    8      0.06      0.00
   16    0    8     -0.76      0.00
   17    0    8     -2.43      0.00
   18    0    8     -2.97      0.00
   19    0    8     -0.95      0.00
   20    0    8      5.59      0.00
   21    0    8     -1.91      0.00
   22    0    8      1.33      0.00
   23    0    8      2.62      0.00
   24    0    8     -0.89      0.00
   25    0    8     -3.05      0.00
   26    0    8      1.40      0.00
   27    0    8     -5.19      0.00
   28    0    8     -3.97      0.00
    0    0    9    -13.47      0.00
    1    0    9     -2.55      0.00
    2    0    9     -6.12      0.00
    3    0    9     -5.47      0.00
    4    0    9      5.44      0.00
    5    0    9      7.77      0.00
    6    0    9      2.10      0.00
    7    0    9     -3.27      0.00
    8    0    9      7.20      0.00
    9    0    9      5.90      0.00
   10    0    9     -1.14      0.00
   11    0    9      1.83      0.00
   12    0    9     -0.71      0.00
   13    0    9     -1.79      0.00
   14    0    9      2.81      0.00
   15    0    9     -0.83      0.00
   16    0    9     -0.30      0.00
   17    0    9     -0.67      0.00
   18    0    9     -0.94      0.00
   19    0    9      0.51      0.00
   20    0    9      0.42      0.00
   21    0    9      1.21      0.00
   22    0    9     -1.23      0.00
   23    0    9     -0.11      0.00
   24    0    9     -0.99      0.00
   25    0    9      1.82      0.00
   26    0    9      0.61      0.00
   27    0    9      5.23      0.00
    0    0   10      5.02      0.00
    1    0   10      5.86      0.00
    2    0   10     -0.29      0.00
    3    0   10      0.50      0.00
    4    0   10     -0.24      0.00
    5    0   10     -2.11      0.00
    6    0   10     -7.36      0.00
    7    0   10     -0.92      0.00
    8    0   10     -3.71      0.00
    9    0   10     -3.32      0.00
   10    0   10     -2.50      0.00
   11    0   10     -0.34      0.00
   12    0   10      1.08      0.00
   13    0   10      5.35      0.00
   14    0   10     -1.62      0.00
   15    0   10     -1.63      0.00
   16    0   10      2.62      0.00
   17    0   10      1.08      0.00
   18    0   10      0.06      0.00
   19    0   10      0.16      0.00
   20    0   10      0.80      0.00
   21    0   10     -1.80      0.00
   22    0   10      0.18      0.00
   23    0   10     -1.95      0.00
   24    0   10      0.53      0.00
   25    0   10      2.38      0.00
   26    0   10      5.57      0.00
    0    0   11      2.56      0.00
    1    0   11     -5.18      0.00
    2    0   11     -0.61      0.00
    3    0   11      3.74      0.00
    4    0   11      0.26      0.00
    5    0   11     -1.69      0.00
    6    0   11     -0.40      0.00
    7    0   11      1.43      0.00
    8    0   11      0.78      0.00
    9    0   11     -1.80      0.00
   10    0   11     -1.90      0.00
   11    0   11     -0.74      0.00
   12    0   11     -0.62      0.00
   13    0   11     -3.28      0.00
   14    0   11     -4.03      0.00
   15    0   11     -0.40      0.00
   16    0   11     -2.07      0.00
   17    0   11      0.95      0.00
   18    0   11      1.23      0.00
   19    0   11      1.22      0.00
   20    0   11     -1.52      0.00
   21    0   11      1.21      0.00
   22    0   11      1.87      0.00
   23    0   11     -2.08      0.00
   24    0   11      0.46      0.00
    0    0   12      3.77      0.00
    1    0   12      0.99      0.00
    2    0   12     -0.40      0.00
    3    0   12     -0.59      0.00
    4    0   12      2.52      0.00
    5    0   12     -1.39      0.00
    6    0   12     -1.02      0.00
    7    0   12     -1.52      0.00
    8    0   12      0.29      0.00
    9    0   12      2.77      0.00
   10    0   12      3.34      0.00
   11    0   12      2.54      0.00
   12    0   12      0.79      0.00
   13    0   12      0.58      0.00
   14    0   12      1.17      0.00
   15    0   12      0.73      0.00
   16    0   12      2.82      0.00
   17    0   12     -0.83      0.00
   18    0   12     -1.41      0.00
   19    0   12     -1.32      0.00
   20    0   12      1.11      0.00
   21    0   12     -0.10      0.00
   22    0   12     -0.12      0.00
   23    0   12     -2.48      0.00
    0    0   13     -6.07      0.00
    1    0   13     -2.47      0.00
    2    0   13      5.27      0.00
    3    0   13      0.55      0.00
    4    0   13     -0.78      0.00
    5    0   13      0.69      0.00
    6    0   13      1.63      0.00
    7    0   13      3.63      0.00
    8    0   13      3.69      0.00
    9    0   13     -0.94      0.00
   10    0   13     -1.68      0.00
   11    0   13     -2.58      0.00
   12    0   13     -1.43      0.00
   13    0   13      0.44      0.00
   14    0   13     -1.55      0.00
   15    0   13      2.93      0.00
   16    0   13      0.97      0.00
   17    0   13      0.70      0.00
   18    0   13      0.38      0.00
   19    0   13      0.97      0.00
   20    0   13      1.58      0.00
   21    0   13     -1.29      0.00
    0    0   14      7.63      0.00
    1    0   14      3.51      0.00
    2    0   14     -1.76      0.00
    3    0   14      1.29      0.00
    4    0   14      3.36      0.00
    5    0   14     -0.97      0.00
    6    0   14     -1.26      0.00
    7    0   14      0.38      0.00
    8    0   14      1.46      0.00
    9    0   14      1.67      0.00
   10    0   14      0.24      0.00
   11    0   14      0.86      0.00
   12    0   14      3.23      0.00
   13    0   14     -2.47      0.00
   14    0   14     -1.23      0.00
   15    0   14     -2.11      0.00
   16    0   14     -0.05      0.00
   17    0   14     -0.79      0.00
   18    0   14     -3.33      0.00
    0    0   15      0.25      0.00
    1    0   15     -2.61      0.00
    2    0   15     -1.39      0.00
    3    0   15     -2.00      0.00
    4    0   15     -3.41      0.00
    5    0   15     -1.09      0.00
    6    0   15     -0.58      0.00
    7    0   15      1.24      0.00
    8    0   15      2.04      0.00
    9    0   15     -1.80      0.00
   10    0   15     -2.95      0.00
   11    0   15     -0.87      0.00
   12    0   15      2.57      0.00
   13    0   15     -0.43      0.00
   14    0   15      1.89      0.00
   15    0   15      1.12      0.00
    0    0   16     -2.78      0.00
    1    0   16     -1.26      0.00
    2    0   16     -1.43      0.00
    3    0   16      0.15      0.00
    4    0   16     -0.22      0.00
    5    0   16     -1.87      0.00
    6    0   16      1.91      0.00
    7    0   16      1.08      0.00
    8    0   16      1.21      0.00
    9    0   16     -1.24      0.00
   10    0   16     -1.20      0.00
   11    0   16     -1.76      0.00
    3    0   17     -1.56      0.00
    2    1    0      9.34      0.00
    4    1    0    -21.38      0.00
    6    1    0      3.98      0.00
    8    1    0     -7.73      0.00
   10    1    0      1.30      0.00
   12    1    0     -4.40      0.00
   14    1    0      2.34      0.00
   16    1    0     -5.47      0.00
   18    1    0      1.09      0.00
   20    1    0     -7.66      0.00
   22    1    0     -9.43      0.00
   24    1    0     -3.34      0.00
   26    1    0     -1.12      0.00
   28    1    0     -2.76      0.00
   30    1    0     -0.13      0.00
   32    1    0      0.35      0.00
   32    1    1      1.43      0.00
   31    1    1     -0.18      0.00
   30    1    1     -0.22      0.00
   29    1    1      0.37      0.00
   28    1    1      2.18      0.00
   27    1    1     -0.51      0.00
   26    1    1     -1.65      0.00
   25    1    1     -4.41      0.00
   24    1    1      1.21      0.00
   23    1    1     -0.32      0.00
   22    1    1      3.37      0.00
   21    1    1     -6.58      0.00
   20    1    1      4.73      0.00
   19    1    1     -4.67      0.00
   18    1    1     -1.05      0.00
   17    1    1     -2.63      0.00
   16    1    1      0.82      0.00
   15    1    1     -0.37      0.00
   14    1    1     -2.22      0.00
   13    1    1      1.61      0.00
   12    1    1      2.37      0.00
   11    1    1     -1.79      0.00
   10    1    1      3.61      0.00
    9    1    1      3.96      0.00
    8    1    1     -5.53      0.00
    7    1    1      3.69      0.00
    6    1    1     -1.31      0.00
    5    1    1     -9.85      0.00
    4    1    1     -6.60      0.00
    3    1    1     -1.45      0.00
    2    1    1      1.63      0.00
    1    1    1     10.72      0.00
   31    1    2     -0.20      0.00
   30    1    2      0.78      0.00
   29    1    2      0.04      0.00
   28    1    2      1.12      0.00
   27    1    2     -0.59      0.00
   26    1    2      3.03      0.00
   25    1    2      3.72      0.00
   24    1    2      3.22      0.00
   23    1    2      1.89      0.00
   22    1    2      4.35      0.00
   21    1    2      0.47      0.00
   20    1    2      0.96      0.00
   19    1    2      4.37      0.00
   18    1    2     -0.89      0.00
   17    1    2      3.78      0.00
   16    1    2      3.69      0.00
   15    1    2     -0.54      0.00
   14    1    2      6.44      0.00
   13    1    2      0.35      0.00
   12    1    2     -0.26      0.00
   11    1    2     -2.08      0.00
   10    1    2     -5.21      0.00
    9    1    2      1.17      0.00
    8    1    2     -0.66      0.00
    7    1    2     -9.47      0.00
    6    1    2      9.40      0.00
    5    1    2      9.91      0.00
    4    1    2     10.17      0.00
    3    1    2     -0.84      0.00
    0    1    2     20.75      0.00
   32    1    2      1.07      0.00
   31    1    3     -1.92      0.00
   30    1    3     -0.58      0.00
   29    1    3     -1.21      0.00
   28    1    3     -0.38      0.00
   27    1    3      0.54      0.00
   26    1    3     -0.52      0.00
   25    1    3     -2.80      0.00
   24    1    3     -4.70      0.00
   23    1    3     -4.96      0.00
   22    1    3     -0.36      0.00
   21    1    3      6.21      0.00
   20    1    3      1.27      0.00
   19    1    3     -2.49      0.00
   18    1    3      3.64      0.00
   17    1    3     -3.39      0.00
   16    1    3     -2.74      0.00
   15    1    3     -2.33      0.00
   14    1    3     -4.00      0.00
   13    1    3     -2.93      0.00
   12    1    3      3.24      0.00
   11    1    3      5.00      0.00
   10    1    3     -0.75      0.00
    9    1    3      3.55      0.00
    8    1    3      5.27      0.00
    7    1    3     -7.42      0.00
    6    1    3     -0.62      0.00
    5    1    3      9.09      0.00
    4    1    3     -5.10      0.00
    3    1    3    -10.23      0.00
    1    1    3    -34.28      0.00
    0    1    3     -5.84      0.00
   31    1    4     -3.31      0.00
   30    1    4     -1.94      0.00
   29    1    4     -0.29      0.00
   28    1    4     -0.81      0.00
   27    1    4     -0.66      0.00
   26    1    4     -0.51      0.00
   25    1    4      0.46      0.00
   24    1    4      3.16      0.00
   23    1    4      0.99      0.00
   22    1    4     -1.17      0.00
   21    1    4     -7.67      0.00
   20    1    4     -5.38      0.00
   19    1    4      4.96      0.00
   18    1    4      0.47      0.00
   17    1    4     -0.57      0.00
   16    1    4      1.18      0.00
   15    1    4     -2.04      0.00
   14    1    4      0.22      0.00
   13    1    4      4.51      0.00
   12    1    4     -4.13      0.00
   11    1    4     -0.79      0.00
   10    1    4     -2.79      0.00
    9    1    4     -9.06      0.00
    8    1    4      3.06      0.00
    7    1    4      7.87      0.00
    6    1    4    -12.46      0.00
    5    1    4    -13.16      0.00
    4    1    4      0.78      0.00
    3    1    4      6.18      0.00
    2    1    4      4.11      0.00
    1    1    4      5.11      0.00
    0    1    4     -1.82      0.00
   30    1    5     -0.69      0.00
   29    1    5      0.36      0.00
   28    1    5     -1.51      0.00
   27    1    5     -1.95      0.00
   26    1    5     -0.89      0.00
   25    1    5     -0.26      0.00
   24    1    5     -0.69      0.00
   23    1    5      0.85      0.00
   22    1    5     -3.66      0.00
   21    1    5      4.26      0.00
   20    1    5      4.82      0.00
   19    1    5     -7.92      0.00
   18    1    5     -3.60      0.00
   17    1    5      3.82      0.00
   16    1    5     -0.75      0.00
   15    1    5      0.21      0.00
   14    1    5     -4.93      0.00
   13    1    5     -1.67      0.00
   12    1    5     -0.25      0.00
   11    1    5     -0.96      0.00
   10    1    5      7.28      0.00
    9    1    5      4.23      0.00
    8    1    5     -1.99      0.00
    7    1    5     -5.40      0.00
    6    1    5      4.00      0.00
    5    1    5      3.70      0.00
    4    1    5      4.00      0.00
    3    1    5      1.73      0.00
    2    1    5     -9.49      0.00
    1    1    5     14.80      0.00
    0    1    5     -4.62      0.00
   30    1    6      0.32      0.00
   29    1    6     -1.07      0.00
   28    1    6      3.51      0.00
   27    1    6      1.53      0.00
   26    1    6      2.44      0.00
   25    1    6     -1.40      0.00
   24    1    6      0.87      0.00
   23    1    6     -0.42      0.00
   22    1    6      6.86      0.00
   21    1    6     -2.37      0.00
   20    1    6     -6.74      0.00
   19    1    6      3.64      0.00
   18    1    6      5.22      0.00
   17    1    6     -2.54      0.00
   16    1    6      0.07      0.00
   15    1    6     -1.89      0.00
   14    1    6      0.72      0.00
   13    1    6     -2.18      0.00
   12    1    6      3.25      0.00
   11    1    6     -3.60      0.00
   10    1    6     -1.28      0.00
    9    1    6      2.56      0.00
    8    1    6     -0.90      0.00
    7    1    6      6.05      0.00
    6    1    6     13.23      0.00
    5    1    6      4.79      0.00
    4    1    6     -8.17      0.00
    3    1    6     -9.36      0.00
    2    1    6     10.84      0.00
    1    1    6    -12.98      0.00
    0    1    6     13.19      0.00
   29    1    7      1.20      0.00
   28    1    7      2.83      0.00
   27    1    7     -0.42      0.00
   26    1    7     -0.55      0.00
   25    1    7      1.04      0.00
   24    1    7     -0.54      0.00
   23    1    7      2.63      0.00
   22    1    7     -3.38      0.00
   21    1    7      1.51      0.00
   20    1    7      6.60      0.00
   19    1    7     -1.67      0.00
   18    1    7     -5.61      0.00
   17    1    7      0.83      0.00
   16    1    7     -0.44      0.00
   15    1    7      2.35      0.00
   14    1    7      3.01      0.00
   13    1    7      0.93      0.00
   12    1    7     -1.81      0.00
   11    1    7     -0.57      0.00
   10    1    7     -0.78      0.00
    9    1    7     -0.65      0.00
    8    1    7      9.51      0.00
    7    1    7     -4.66      0.00
    6    1    7    -14.11      0.00
    5    1    7     -0.22      0.00
    4    1    7      9.77      0.00
    3    1    7      7.37      0.00
    2    1    7     -3.49      0.00
    1    1    7      2.10      0.00
    0    1    7      2.90      0.00
   28    1    8      1.80      0.00
   27    1    8      3.74      0.00
   26    1    8     -1.92      0.00
   25    1    8      1.38      0.00
   24    1    8     -0.72      0.00
   23    1    8     -2.75      0.00
   22    1    8     -1.37      0.00
   21    1    8     -0.31      0.00
   20    1    8     -5.39      0.00
   19    1    8      1.54      0.00
   18    1    8      3.32      0.00
   17    1    8      1.69      0.00
   16    1    8      0.24      0.00
   15    1    8     -1.24      0.00
   14    1    8     -0.73      0.00
   13    1    8      1.80      0.00
   12    1    8      0.19      0.00
   11    1    8      4.88      0.00
   10    1    8     -1.25      0.00
    9    1    8     -0.72      0.00
    8    1    8     -3.78      0.00
    7    1    8      6.00      0.00
    6    1    8      5.42      0.00
    5    1    8     -3.27      0.00
    4    1    8     -0.38      0.00
    3    1    8     -2.11      0.00
    2    1    8     -0.58      0.00
    1    1    8     -4.45      0.00
    0    1    8    -16.83      0.00
   27    1    9     -2.71      0.00
   26    1    9      0.08      0.00
   25    1    9     -0.90      0.00
   24    1    9     -0.33      0.00
   23    1    9      0.05      0.00
   22    1    9      1.22      0.00
   21    1    9     -0.99      0.00
   20    1    9     -0.26      0.00
   19    1    9     -0.19      0.00
   18    1    9      0.39      0.00
   17    1    9      0.79      0.00
   16    1    9      0.82      0.00
   15    1    9      1.72      0.00
   14    1    9     -1.92      0.00
   13    1    9      1.96      0.00
   12    1    9     -0.41      0.00
   11    1    9     -1.41      0.00
   10    1    9     -0.81      0.00
    9    1    9     -5.55      0.00
    8    1    9     -6.23      0.00
    7    1    9      2.28      0.00
    6    1    9     -2.30      0.00
    5    1    9     -6.41      0.00
    4    1    9     -5.60      0.00
    3    1    9      6.07      0.00
    2    1    9      5.89      0.00
    1    1    9      2.56      0.00
    0    1    9     11.54      0.00
   25    1   10     -1.75      0.00
   24    1   10      0.47      0.00
   23    1   10      2.37      0.00
   22    1   10      0.36      0.00
   21    1   10      1.31      0.00
   20    1   10     -1.03      0.00
   19    1   10     -0.28      0.00
   18    1   10      0.26      0.00
   17    1   10     -0.26      0.00
   16    1   10     -2.04      0.00
   15    1   10      0.91      0.00
   14    1   10      0.85      0.00
   13    1   10     -5.18      0.00
   12    1   10     -0.09      0.00
   11    1   10     -0.42      0.00
   10    1   10      2.89      0.00
    9    1   10      2.50      0.00
    8    1   10      3.73      0.00
    7    1   10      1.21      0.00
    6    1   10      7.60      0.00
    5    1   10      1.92      0.00
    4    1   10      0.44      0.00
    3    1   10     -0.27      0.00
    2    1   10     -0.09      0.00
    1    1   10     -6.73      0.00
    0    1   10     -4.78      0.00
   24    1   11     -0.49      0.00
   23    1   11      2.36      0.00
   22    1   11     -0.54      0.00
   21    1   11     -0.01      0.00
   20    1   11      0.70      0.00
   19    1   11     -0.86      0.00
   18    1   11     -0.99      0.00
   17    1   11     -0.74      0.00
   16    1   11      2.40      0.00
   15    1   11      0.03      0.00
   14    1   11      3.29      0.00
   13    1   11      3.77      0.00
   12    1   11      1.01      0.00
   11    1   11      1.27      0.00
   10    1   11      1.78      0.00
    9    1   11      1.11      0.00
    8    1   11     -1.27      0.00
    7    1   11     -1.48      0.00
    6    1   11     -0.43      0.00
    5    1   11      1.95      0.00
    4    1   11      0.66      0.00
    3    1   11     -3.88      0.00
    2    1   11      0.14      0.00
    1    1   11      5.94      0.00
    0    1   11     -2.27      0.00
   22    1   12     -0.30      0.00
   21    1   12      0.62      0.00
   20    1   12     -1.51      0.00
   19    1   12      0.69      0.00
   18    1   12      0.45      0.00
   17    1   12      0.73      0.00
   16    1   12     -3.22      0.00
   15    1   12     -0.70      0.00
   14    1   12     -0.42      0.00
   13    1   12     -1.14      0.00
   12    1   12     -0.90      0.00
   11    1   12     -2.23      0.00
   10    1   12     -3.57      0.00
    9    1   12     -1.76      0.00
    8    1   12     -0.94      0.00
    7    1   12      0.86      0.00
    6    1   12      0.09      0.00
    5    1   12      1.29      0.00
    4    1   12     -3.32      0.00
    3    1   12      0.26      0.00
    2    1   12      1.60      0.00
    1    1   12     -1.56      0.00
    0    1   12     -2.98      0.00
   20    1   13      0.08      0.00
   19    1   13     -2.10      0.00
   18    1   13     -0.35      0.00
   17    1   13     -0.78      0.00
   16    1   13      0.19      0.00
   15    1   13     -2.41      0.00
   14    1   13     -0.48      0.00
   13    1   13     -0.02      0.00
   12    1   13      1.21      0.00
   11    1   13      1.77      0.00
   10    1   13      1.33      0.00
    9    1   13      1.02      0.00
    8    1   13     -2.38      0.00
    7    1   13     -3.24      0.00
    6    1   13     -1.26      0.00
    5    1   13     -0.97      0.00
    4    1   13      1.98      0.00
    3    1   13      0.68      0.00
    2    1   13     -4.94      0.00
    1    1   13      2.94      0.00
    0    1   13      4.74      0.00
   15    1   14      2.14      0.00
   14    1   14      0.82      0.00
   13    1   14      1.66      0.00
   12    1   14     -1.97      0.00
   11    1   14      0.42      0.00
   10    1   14     -0.49      0.00
    9    1   14     -1.28      0.00
    8    1   14     -1.24      0.00
    7    1   14     -0.04      0.00
    6    1   14      1.26      0.00
    5    1   14      0.92      0.00
    4    1   14     -2.31      0.00
    3    1   14     -2.01      0.00
    2    1   14      0.68      0.00
    1    1   14     -2.81      0.00
    0    1   14     -6.21      0.00
   14    1   15     -0.55      0.00
   13    1   15      0.16      0.00
   12    1   15     -2.19      0.00
   11    1   15      1.24      0.00
   10    1   15      3.16      0.00
    9    1   15      1.01      0.00
    8    1   15      0.27      0.00
    7    1   15     -1.43      0.00
    6    1   15     -0.13      0.00
    5    1   15      0.41      0.00
    4    1   15      2.05      0.00
    3    1   15      2.14      0.00
    2    1   15      1.74      0.00
    1    1   15      1.33      0.00
    0    1   15      0.37      0.00
   10    1   16      1.06      0.00
    9    1   16      0.97      0.00
    8    1   16     -1.61      0.00
    7    1   16      0.22      0.00
    6    1   16     -2.01      0.00
    5    1   16      0.41      0.00
    4    1   16     -1.43      0.00
    3    1   16      0.55      0.00
    2    1   16      0.81      0.00
    1    1   16      1.75      0.00
    0    1   16      1.68      0.00
    2    2    0     -2.09      0.00
    4    2    0     15.61      0.00
    6    2    0     -8.19      0.00
    8    2    0      9.50      0.00
   10    2    0     -0.23      0.00
   12    2    0      2.90      0.00
   14    2    0     -0.83      0.00
   16    2    0      1.33      0.00
   18    2    0     -0.92      0.00
   20    2    0      4.96      0.00
   22    2    0      7.86      0.00
   24    2    0      2.41      0.00
   26    2    0      0.92      0.00
   28    2    0      2.72      0.00
   30    2    0     -0.73      0.00
   31    2    1     -0.54      0.00
   30    2    1      1.21      0.00
   29    2    1     -0.33      0.00
   28    2    1     -1.56      0.00
   27    2    1      0.10      0.00
   26    2    1      1.76      0.00
   25    2    1      3.98      0.00
   24    2    1     -1.89      0.00
   23    2    1      0.83      0.00
   22    2    1     -2.24      0.00
   21    2    1      5.74      0.00
   20    2    1     -4.30      0.00
   19    2    1      3.93      0.00
   18    2    1      0.92      0.00
   17    2    1      2.47      0.00
   16    2    1     -0.43      0.00
   15    2    1     -0.96      0.00
   14    2    1      1.56      0.00
   13    2    1     -0.77      0.00
   12    2    1     -3.59      0.00
   11    2    1      1.90      0.00
   10    2    1     -1.70      0.00
    9    2    1     -3.65      0.00
    8    2    1     -0.91      0.00
    7    2    1     -6.21      0.00
    6    2    1      8.35      0.00
    5    2    1      3.33      0.00
    4    2    1      2.71      0.00
    3    2    1     -3.37      0.00
    2    2    1      0.77      0.00
    1    2    1     -0.48      0.00
   31    2    2      1.59      0.00
   30    2    2     -1.10      0.00
   29    2    2      0.02      0.00
   28    2    2     -1.11      0.00
   27    2    2      0.56      0.00
   26    2    2     -2.54      0.00
   25    2    2     -2.90      0.00
   24    2    2     -2.03      0.00
   23    2    2     -1.90      0.00
   22    2    2     -1.97      0.00
   21    2    2      0.92      0.00
   20    2    2     -1.16      0.00
   19    2    2     -4.54      0.00
   18    2    2      1.27      0.00
   17    2    2     -3.96      0.00
   16    2    2     -2.74      0.00
   15    2    2      1.27      0.00
   14    2    2     -2.38      0.00
   13    2    2      0.57      0.00
   12    2    2      0.23      0.00
   11    2    2     -0.89      0.00
   10    2    2      4.26      0.00
    9    2    2      1.27      0.00
    8    2    2      1.54      0.00
    7    2    2      4.82      0.00
    6    2    2     -9.08      0.00
    5    2    2     -5.51      0.00
    4    2    2     -9.83      0.00
    3    2    2      2.72      0.00
    0    2    2    -13.62      0.00
   31    2    3      3.04      0.00
   30    2    3      1.69      0.00
   29    2    3      2.48      0.00
   28    2    3     -1.60      0.00
   27    2    3      0.13      0.00
   26    2    3      0.58      0.00
   25    2    3      1.78      0.00
   24    2    3      6.49      0.00
   23    2    3      3.80      0.00
   22    2    3     -1.00      0.00
   21    2    3     -4.91      0.00
   20    2    3     -1.48      0.00
   19    2    3      1.75      0.00
   18    2    3     -2.82      0.00
   17    2    3      3.05      0.00
   16    2    3      1.93      0.00
   15    2    3      1.68      0.00
   14    2    3      1.94      0.00
   13    2    3      3.73      0.00
   12    2    3     -2.54      0.00
   11    2    3     -3.14      0.00
   10    2    3     -0.55      0.00
    9    2    3     -4.80      0.00
    8    2    3     -3.51      0.00
    7    2    3      6.28      0.00
    6    2    3      0.09      0.00
    5    2    3     -6.31      0.00
    4    2    3      2.31      0.00
    3    2    3      3.70      0.00
    2    2    3      4.64      0.00
    1    2    3     28.01      0.00
    0    2    3      6.99      0.00
   30    2    4     -0.64      0.00
   29    2    4     -0.03      0.00
   28    2    4      2.77      0.00
   27    2    4     -0.31      0.00
   26    2    4      1.01      0.00
   25    2    4     -0.52      0.00
   24    2    4     -8.45      0.00
   23    2    4     -1.35      0.00
   22    2    4      1.18      0.00
   21    2    4      6.31      0.00
   20    2    4      5.89      0.00
   19    2    4     -4.02      0.00
   18    2    4     -1.06      0.00
   17    2    4      0.99      0.00
   16    2    4     -2.35      0.00
   15    2    4     -0.86      0.00
   14    2    4     -1.14      0.00
   13    2    4     -3.54      0.00
   12    2    4      3.54      0.00
   11    2    4      1.99      0.00
   10    2    4     -0.33      0.00
    9    2    4      6.77      0.00
    8    2    4     -3.26      0.00
    7    2    4     -3.17      0.00
    6    2    4      8.96      0.00
    5    2    4     12.06      0.00
    4    2    4      0.80      0.00
    3    2    4     -6.50      0.00
    2    2    4      0.55      0.00
    1    2    4     -1.31      0.00
    0    2    4     -0.18      0.00
   29    2    5     -0.94      0.00
   28    2    5     -0.17      0.00
   27    2    5      0.50      0.00
   26    2    5     -0.32      0.00
   25    2    5      0.93      0.00
   24    2    5      1.00      0.00
   23    2    5     -1.92      0.00
   22    2    5      2.49      0.00
   21    2    5     -3.33      0.00
   20    2    5     -3.97      0.00
   19    2    5      7.07      0.00
   18    2    5      4.34      0.00
   17    2    5     -4.13      0.00
   16    2    5      1.17      0.00
   15    2    5      1.44      0.00
   14    2    5      5.28      0.00
   13    2    5     -1.43      0.00
   12    2    5      1.45      0.00
   11    2    5      1.09      0.00
   10    2    5      2.50      0.00
    9    2    5     -1.58      0.00
    8    2    5     -0.33      0.00
    7    2    5      1.60      0.00
    6    2    5      2.57      0.00
    5    2    5     -2.24      0.00
    4    2    5     -5.12      0.00
    3    2    5     -1.77      0.00
    2    2    5     -0.21      0.00
    1    2    5    -12.25      0.00
    0    2    5      5.62      0.00
   30    2    5     -0.06      0.00
   29    2    6      1.83      0.00
   28    2    6     -3.10      0.00
   27    2    6     -1.58      0.00
   26    2    6     -1.11      0.00
   25    2    6      2.13      0.00
   24    2    6      0.68      0.00
   23    2    6     -0.60      0.00
   22    2    6     -5.99      0.00
   21    2    6      2.13      0.00
   20    2    6      5.29      0.00
   19    2    6     -2.80      0.00
   18    2    6     -3.92      0.00
   17    2    6      3.57      0.00
   16    2    6     -0.32      0.00
   15    2    6      1.10      0.00
   14    2    6     -0.51      0.00
   13    2    6      1.99      0.00
   12    2    6     -4.48      0.00
   11    2    6      2.33      0.00
   10    2    6     -1.30      0.00
    9    2    6     -2.36      0.00
    8    2    6      4.58      0.00
    7    2    6     -3.21      0.00
    6    2    6    -10.74      0.00
    5    2    6     -3.84      0.00
    4    2    6      7.04      0.00
    3    2    6      6.49      0.00
    2    2    6     -8.56      0.00
    1    2    6      9.83      0.00
    0    2    6    -13.44      0.00
   27    2    7     -1.36      0.00
   26    2    7      0.47      0.00
   25    2    7      0.33      0.00
   24    2    7      0.27      0.00
   23    2    7     -2.53      0.00
   22    2    7      3.60      0.00
   21    2    7     -3.29      0.00
   20    2    7     -6.38      0.00
   19    2    7      1.86      0.00
   18    2    7      5.06      0.00
   17    2    7     -1.49      0.00
   16    2    7      0.74      0.00
   15    2    7     -2.26      0.00
   14    2    7     -2.34      0.00
   13    2    7     -0.33      0.00
   12    2    7      0.41      0.00
   11    2    7      0.90      0.00
   10    2    7     -0.68      0.00
    9    2    7      0.12      0.00
    8    2    7    -10.50      0.00
    7    2    7      2.34      0.00
    6    2    7      7.50      0.00
    5    2    7      1.50      0.00
    4    2    7     -8.41      0.00
    3    2    7     -8.57      0.00
    2    2    7      2.62      0.00
    1    2    7     -0.15      0.00
    0    2    7     -0.73      0.00
   28    2    7     -3.27      0.00
   27    2    8     -1.26      0.00
   26    2    8      2.73      0.00
   25    2    8      2.08      0.00
   24    2    8      3.26      0.00
   23    2    8      3.32      0.00
   22    2    8      0.95      0.00
   21    2    8      3.11      0.00
   20    2    8      4.59      0.00
   19    2    8     -2.24      0.00
   18    2    8     -3.44      0.00
   17    2    8     -0.35      0.00
   16    2    8      0.91      0.00
   15    2    8      2.92      0.00
   14    2    8      1.38      0.00
   13    2    8     -0.43      0.00
   12    2    8     -1.31      0.00
   11    2    8     -4.37      0.00
   10    2    8      0.78      0.00
    9    2    8     -0.29      0.00
    8    2    8      2.51      0.00
    7    2    8     -5.17      0.00
    6    2    8     -3.51      0.00
    5    2    8      2.96      0.00
    4    2    8      1.56      0.00
    3    2    8      5.74      0.00
    2    2    8      1.25      0.00
    1    2    8      2.66      0.00
    0    2    8     12.74      0.00
   26    2    9     -1.62      0.00
   25    2    9     -0.78      0.00
   24    2    9      2.54      0.00
   23    2    9     -0.92      0.00
   22    2    9     -1.02      0.00
   21    2    9      0.82      0.00
   20    2    9      0.15      0.00
   19    2    9     -0.10      0.00
   18    2    9      0.48      0.00
   17    2    9     -1.06      0.00
   16    2    9     -1.14      0.00
   15    2    9     -2.69      0.00
   14    2    9      0.52      0.00
   13    2    9     -2.09      0.00
   12    2    9      2.31      0.00
   11    2    9      0.77      0.00
   10    2    9      3.26      0.00
    9    2    9      4.91      0.00
    8    2    9      4.72      0.00
    7    2    9     -1.09      0.00
    6    2    9      2.61      0.00
    5    2    9      3.71      0.00
    4    2    9      4.49      0.00
    3    2    9     -6.29      0.00
    2    2    9     -5.19      0.00
    1    2    9     -2.50      0.00
    0    2    9     -7.98      0.00
   24    2   10     -2.14      0.00
   23    2   10     -1.86      0.00
   22    2   10     -1.42      0.00
   21    2   10     -1.21      0.00
   20    2   10      1.16      0.00
   19    2   10     -0.04      0.00
   18    2   10     -0.45      0.00
   17    2   10     -1.12      0.00
   16    2   10      0.44      0.00
   15    2   10      0.82      0.00
   14    2   10      0.51      0.00
   13    2   10      4.23      0.00
   12    2   10     -1.04      0.00
   11    2   10      0.95      0.00
   10    2   10     -3.23      0.00
    9    2   10     -1.61      0.00
    8    2   10     -3.71      0.00
    7    2   10     -1.02      0.00
    6    2   10     -7.28      0.00
    5    2   10     -1.22      0.00
    4    2   10     -0.49      0.00
    3    2   10     -0.34      0.00
    2    2   10      0.98      0.00
    1    2   10      7.33      0.00
    0    2   10      4.09      0.00
   25    2   10      0.32      0.00
   23    2   11     -2.11      0.00
   22    2   11     -1.29      0.00
   21    2   11     -1.93      0.00
   20    2   11      0.47      0.00
   19    2   11      0.97      0.00
   18    2   11      0.67      0.00
   17    2   11      0.63      0.00
   16    2   11     -2.50      0.00
   15    2   11      0.25      0.00
   14    2   11     -1.99      0.00
   13    2   11     -4.04      0.00
   12    2   11     -1.89      0.00
   11    2   11     -1.86      0.00
   10    2   11     -1.03      0.00
    9    2   11     -0.29      0.00
    8    2   11      1.63      0.00
    7    2   11      1.92      0.00
    6    2   11      1.99      0.00
    5    2   11     -2.11      0.00
    4    2   11     -1.87      0.00
    3    2   11      3.81      0.00
    2    2   11      1.16      0.00
    1    2   11     -6.46      0.00
    0    2   11      1.39      0.00
   21    2   12     -0.70      0.00
   20    2   12      1.70      0.00
   19    2   12     -0.14      0.00
   18    2   12      0.35      0.00
   17    2   12     -0.57      0.00
   16    2   12      2.98      0.00
   15    2   12      0.31      0.00
   14    2   12     -0.40      0.00
   13    2   12      1.73      0.00
   12    2   12      1.39      0.00
   11    2   12      1.77      0.00
   10    2   12      2.22      0.00
    9    2   12      0.67      0.00
    8    2   12      1.47      0.00
    7    2   12     -0.25      0.00
    6    2   12      1.36      0.00
    5    2   12     -1.03      0.00
    4    2   12      4.09      0.00
    3    2   12      0.10      0.00
    2    2   12     -3.17      0.00
    1    2   12      1.87      0.00
    0    2   12      1.43      0.00
   19    2   13      3.68      0.00
   18    2   13      0.29      0.00
   17    2   13      0.91      0.00
   16    2   13     -1.44      0.00
   15    2   13      1.23      0.00
   14    2   13      2.75      0.00
   13    2   13     -0.78      0.00
   12    2   13     -0.66      0.00
   11    2   13     -0.16      0.00
   10    2   13     -0.12      0.00
    9    2   13     -1.66      0.00
    8    2   13      0.72      0.00
    7    2   13      2.56      0.00
    6    2   13      0.46      0.00
    5    2   13      1.46      0.00
    4    2   13     -3.67      0.00
    3    2   13     -2.43      0.00
    2    2   13      3.81      0.00
    1    2   13     -2.64      0.00
    0    2   13     -2.90      0.00
   16    2   14     -4.75      0.00
   15    2   14     -1.59      0.00
   14    2   14     -0.06      0.00
   13    2   14     -0.38      0.00
   12    2   14      0.24      0.00
   11    2   14     -1.65      0.00
   10    2   14      1.12      0.00
    9    2   14      0.81      0.00
    8    2   14      0.16      0.00
    7    2   14     -0.99      0.00
    6    2   14     -0.33      0.00
    5    2   14     -1.21      0.00
    4    2   14      1.04      0.00
    3    2   14      2.73      0.00
    2    2   14      0.72      0.00
    1    2   14      1.29      0.00
    0    2   14      3.80      0.00
   13    2   15     -0.04      0.00
   12    2   15      0.73      0.00
   11    2   15     -1.62      0.00
   10    2   15     -3.25      0.00
    9    2   15     -0.13      0.00
    8    2   15     -3.09      0.00
    7    2   15      1.69      0.00
    6    2   15      0.09      0.00
    5    2   15      1.24      0.00
    4    2   15     -0.39      0.00
    3    2   15     -1.90      0.00
    2    2   15     -1.57      0.00
    1    2   15      1.20      0.00
    0    2   15     -2.18      0.00
    6    2   16      2.26      0.00
    5    2   16      1.43      0.00
    4    2   16      3.80      0.00
    3    2   16     -1.72      0.00
    2    2   16     -0.34      0.00
    2    3    0     -1.16      0.00
    4    3    0    -12.86      0.00
    6    3    0      6.58      0.00
    8    3    0     -5.27      0.00
   10    3    0      0.25      0.00
   12    3    0     -1.93      0.00
   14    3    0      1.00      0.00
   16    3    0     -1.39      0.00
   18    3    0     -0.01      0.00
   20    3    0     -2.95      0.00
   22    3    0     -6.21      0.00
   24    3    0     -3.11      0.00
   26    3    0     -0.36      0.00
   28    3    0     -2.62      0.00
   30    3    1     -0.78      0.00
   29    3    1      1.18      0.00
   28    3    1      1.59      0.00
   27    3    1      0.33      0.00
   26    3    1     -1.88      0.00
   25    3    1     -3.10      0.00
   24    3    1      1.93      0.00
   23    3    1     -1.02      0.00
   22    3    1      1.90      0.00
   21    3    1     -4.68      0.00
   20    3    1      2.24      0.00
   19    3    1     -2.39      0.00
   18    3    1     -0.15      0.00
   17    3    1     -1.89      0.00
   16    3    1      1.54      0.00
   15    3    1      0.32      0.00
   14    3    1     -1.34      0.00
   13    3    1      0.57      0.00
   12    3    1      3.84      0.00
   11    3    1     -1.16      0.00
   10    3    1      0.54      0.00
    9    3    1      2.22      0.00
    8    3    1     -0.50      0.00
    7    3    1      5.02      0.00
    6    3    1     -6.48      0.00
    5    3    1     -0.94      0.00
    4    3    1     -0.11      0.00
    3    3    1      3.34      0.00
    2    3    1     -1.01      0.00
    1    3    1     -4.08      0.00
   30    3    2     -1.77      0.00
   29    3    2     -1.41      0.00
   28    3    2      0.92      0.00
   27    3    2     -0.18      0.00
   26    3    2      1.83      0.00
   25    3    2      1.88      0.00
   24    3    2      1.06      0.00
   23    3    2      1.40      0.00
   22    3    2      2.19      0.00
   21    3    2      0.59      0.00
   20    3    2      2.22      0.00
   19    3    2      3.69      0.00
   18    3    2     -0.70      0.00
   17    3    2      3.15      0.00
   16    3    2      2.22      0.00
   15    3    2     -0.64      0.00
   14    3    2      0.64      0.00
   13    3    2     -0.90      0.00
   12    3    2     -0.79      0.00
   11    3    2      1.08      0.00
   10    3    2     -1.99      0.00
    9    3    2     -1.33      0.00
    8    3    2     -0.31      0.00
    7    3    2     -2.80      0.00
    6    3    2      5.68      0.00
    5    3    2      5.01      0.00
    4    3    2      7.88      0.00
    3    3    2     -1.21      0.00
    2    3    2      2.44      0.00
    1    3    2     20.57      0.00
    0    3    2      4.98      0.00
   29    3    3     -1.90      0.00
   28    3    3      0.72      0.00
   27    3    3      1.16      0.00
   26    3    3      0.88      0.00
   25    3    3     -0.94      0.00
   24    3    3     -4.47      0.00
   23    3    3     -2.04      0.00
   22    3    3      0.25      0.00
   21    3    3      3.70      0.00
   20    3    3      0.75      0.00
   19    3    3     -2.25      0.00
   18    3    3      2.21      0.00
   17    3    3     -1.47      0.00
   16    3    3     -1.93      0.00
   15    3    3     -1.50      0.00
   14    3    3     -1.24      0.00
   13    3    3     -3.55      0.00
   12    3    3      2.37      0.00
   11    3    3      2.03      0.00
   10    3    3      0.54      0.00
    9    3    3      5.37      0.00
    8    3    3      2.58      0.00
    7    3    3     -4.73      0.00
    6    3    3     -0.86      0.00
    5    3    3      2.32      0.00
    4    3    3     -1.46      0.00
    3    3    3     -2.01      0.00
    2    3    3     -6.76      0.00
    1    3    3    -21.13      0.00
    0    3    3     -6.01      0.00
   28    3    4     -2.25      0.00
   27    3    4     -0.34      0.00
   26    3    4      0.14      0.00
   25    3    4      0.86      0.00
   24    3    4      5.59      0.00
   23    3    4      0.90      0.00
   22    3    4      0.21      0.00
   21    3    4     -6.00      0.00
   20    3    4     -4.62      0.00
   19    3    4      4.09      0.00
   18    3    4      0.40      0.00
   17    3    4     -1.93      0.00
   16    3    4      2.47      0.00
   15    3    4      1.83      0.00
   14    3    4      0.11      0.00
   13    3    4      2.86      0.00
   12    3    4     -3.22      0.00
   11    3    4     -2.18      0.00
   10    3    4      1.35      0.00
    9    3    4     -5.02      0.00
    8    3    4      2.39      0.00
    7    3    4      2.19      0.00
    6    3    4     -4.86      0.00
    5    3    4     -8.55      0.00
    4    3    4     -1.97      0.00
    3    3    4      4.73      0.00
    2    3    4     -0.58      0.00
    1    3    4      1.39      0.00
    0    3    4      4.16      0.00
   29    3    4     -0.52      0.00
   28    3    5      0.49      0.00
   27    3    5      0.24      0.00
   26    3    5      1.14      0.00
   25    3    5     -0.91      0.00
   24    3    5     -0.41      0.00
   23    3    5      0.45      0.00
   22    3    5     -2.61      0.00
   21    3    5      3.92      0.00
   20    3    5      2.55      0.00
   19    3    5     -6.55      0.00
   18    3    5     -3.50      0.00
   17    3    5      3.72      0.00
   16    3    5     -0.74      0.00
   15    3    5     -0.57      0.00
   14    3    5     -3.14      0.00
   13    3    5      1.25      0.00
   12    3    5     -1.04      0.00
   11    3    5     -0.74      0.00
   10    3    5     -6.04      0.00
    9    3    5      1.76      0.00
    8    3    5      0.86      0.00
    7    3    5     -1.87      0.00
    6    3    5     -4.04      0.00
    5    3    5      2.70      0.00
    4    3    5      4.78      0.00
    3    3    5      0.34      0.00
    2    3    5     -0.07      0.00
    1    3    5      6.27      0.00
    0    3    5     -4.59      0.00
   27    3    6      0.08      0.00
   26    3    6      0.06      0.00
   25    3    6     -1.45      0.00
   24    3    6     -0.07      0.00
   23    3    6      0.89      0.00
   22    3    6      4.92      0.00
   21    3    6     -2.51      0.00
   20    3    6     -4.25      0.00
   19    3    6      2.03      0.00
   18    3    6      2.74      0.00
   17    3    6     -2.17      0.00
   16    3    6     -1.24      0.00
   15    3    6     -1.90      0.00
   14    3    6      0.45      0.00
   13    3    6     -0.19      0.00
   12    3    6      2.87      0.00
   11    3    6     -2.60      0.00
   10    3    6      2.07      0.00
    9    3    6      0.91      0.00
    8    3    6     -3.56      0.00
    7    3    6      3.00      0.00
    6    3    6      7.41      0.00
    5    3    6      1.87      0.00
    4    3    6     -4.17      0.00
    3    3    6     -4.72      0.00
    2    3    6      8.05      0.00
    1    3    6     -4.89      0.00
    0    3    6      8.72      0.00
   26    3    7     -1.16      0.00
   25    3    7      0.45      0.00
   24    3    7     -1.01      0.00
   23    3    7      2.22      0.00
   22    3    7     -3.26      0.00
   21    3    7      2.93      0.00
   20    3    7      4.72      0.00
   19    3    7     -1.89      0.00
   18    3    7     -4.04      0.00
   17    3    7      1.31      0.00
   16    3    7      0.66      0.00
   15    3    7      2.24      0.00
   14    3    7      1.21      0.00
   13    3    7     -0.25      0.00
   12    3    7      0.88      0.00
   11    3    7     -0.11      0.00
   10    3    7      0.54      0.00
    9    3    7     -0.39      0.00
    8    3    7      7.27      0.00
    7    3    7     -2.26      0.00
    6    3    7     -3.53      0.00
    5    3    7     -1.08      0.00
    4    3    7      6.48      0.00
    3    3    7      7.82      0.00
    2    3    7     -3.14      0.00
    1    3    7     -2.09      0.00
    0    3    7      1.63      0.00
   27    3    7      1.59      0.00
   25    3    8     -3.75      0.00
   24    3    8     -3.72      0.00
   23    3    8     -3.91      0.00
   22    3    8     -0.10      0.00
   21    3    8     -1.58      0.00
   20    3    8     -3.06      0.00
   19    3    8      1.53      0.00
   18    3    8      2.44      0.00
   17    3    8     -0.23      0.00
   16    3    8     -1.40      0.00
   15    3    8     -2.94      0.00
   14    3    8     -0.64      0.00
   13    3    8     -0.32      0.00
   12    3    8      1.79      0.00
   11    3    8      3.19      0.00
   10    3    8     -0.69      0.00
    9    3    8      1.01      0.00
    8    3    8     -1.30      0.00
    7    3    8      3.10      0.00
    6    3    8      2.38      0.00
    5    3    8     -1.39      0.00
    4    3    8     -2.04      0.00
    3    3    8     -5.46      0.00
    2    3    8     -0.44      0.00
    1    3    8     -0.45      0.00
    0    3    8     -9.37      0.00
   26    3    8     -2.69      0.00
   24    3    9     -2.43      0.00
   23    3    9      2.86      0.00
   22    3    9      0.75      0.00
   21    3    9     -1.06      0.00
   20    3    9     -0.52      0.00
   19    3    9      0.07      0.00
   18    3    9     -0.86      0.00
   17    3    9      1.08      0.00
   16    3    9      0.38      0.00
   15    3    9      1.86      0.00
   14    3    9     -0.21      0.00
   13    3    9      1.58      0.00
   12    3    9     -2.67      0.00
   11    3    9     -0.76      0.00
   10    3    9     -2.34      0.00
    9    3    9     -4.35      0.00
    8    3    9     -3.99      0.00
    7    3    9      1.13      0.00
    6    3    9     -2.64      0.00
    5    3    9     -1.77      0.00
    4    3    9     -1.19      0.00
    3    3    9      4.59      0.00
    2    3    9      4.17      0.00
    1    3    9      2.04      0.00
    0    3    9      5.78      0.00
   25    3    9      1.29      0.00
   22    3   10      1.55      0.00
   21    3   10      2.45      0.00
   20    3   10     -0.32      0.00
   19    3   10      0.87      0.00
   18    3   10     -0.13      0.00
   17    3   10      1.15      0.00
   16    3   10      0.74      0.00
   15    3   10     -2.06      0.00
   14    3   10     -0.99      0.00
   13    3   10     -2.71      0.00
   12    3   10      0.19      0.00
   11    3   10      0.44      0.00
   10    3   10      2.45      0.00
    9    3   10      2.09      0.00
    8    3   10      3.41      0.00
    7    3   10      0.17      0.00
    6    3   10      5.10      0.00
    5    3   10      0.01      0.00
    4    3   10     -0.19      0.00
    3    3   10      0.80      0.00
    2    3   10     -1.45      0.00
    1    3   10     -5.53      0.00
    0    3   10     -2.95      0.00
   23    3   10     -0.71      0.00
   21    3   11      2.11      0.00
   20    3   11     -0.58      0.00
   19    3   11     -2.21      0.00
   18    3   11     -0.49      0.00
   17    3   11     -0.69      0.00
   16    3   11      1.78      0.00
   15    3   11      0.45      0.00
   14    3   11      1.33      0.00
   13    3   11      2.86      0.00
   12    3   11      2.22      0.00
   11    3   11      1.15      0.00
   10    3   11      0.22      0.00
    9    3   11      0.70      0.00
    8    3   11     -0.84      0.00
    7    3   11     -2.65      0.00
    6    3   11     -2.29      0.00
    5    3   11      1.42      0.00
    4    3   11      1.55      0.00
    3    3   11     -2.99      0.00
    2    3   11     -2.66      0.00
    1    3   11      4.88      0.00
    0    3   11      0.00      0.00
   22    3   11      1.02      0.00
   19    3   12      0.77      0.00
   18    3   12      0.99      0.00
   17    3   12      0.24      0.00
   16    3   12     -1.25      0.00
   15    3   12      0.53      0.00
   14    3   12      0.04      0.00
   13    3   12     -0.94      0.00
   12    3   12     -1.82      0.00
   11    3   12     -1.60      0.00
   10    3   12      0.72      0.00
    9    3   12     -1.20      0.00
    8    3   12     -0.50      0.00
    7    3   12      0.65      0.00
    6    3   12     -1.41      0.00
    5    3   12      0.87      0.00
    4    3   12     -3.01      0.00
    3    3   12      0.07      0.00
    2    3   12      2.67      0.00
    1    3   12     -1.06      0.00
    0    3   12     -1.06      0.00
   20    3   12     -0.49      0.00
   17    3   13     -0.50      0.00
   16    3   13      0.42      0.00
   15    3   13     -0.43      0.00
   14    3   13     -0.82      0.00
   13    3   13      1.13      0.00
   12    3   13     -0.06      0.00
   11    3   13     -0.59      0.00
   10    3   13     -0.85      0.00
    9    3   13      2.24      0.00
    8    3   13     -0.86      0.00
    7    3   13     -1.66      0.00
    6    3   13     -0.12      0.00
    5    3   13     -1.23      0.00
    4    3   13      3.26      0.00
    3    3   13      1.82      0.00
    2    3   13     -2.55      0.00
    1    3   13      1.01      0.00
    0    3   13      3.11      0.00
   14    3   14     -0.55      0.00
   13    3   14      0.39      0.00
   12    3   14     -0.30      0.00
   11    3   14     -0.04      0.00
   10    3   14     -1.65      0.00
    9    3   14     -0.78      0.00
    8    3   14      0.95      0.00
    7    3   14      1.67      0.00
    6    3   14     -1.82      0.00
    5    3   14      1.36      0.00
    4    3   14     -1.31      0.00
    3    3   14     -1.30      0.00
    2    3   14     -0.25      0.00
    1    3   14     -0.46      0.00
    0    3   14     -2.80      0.00
   10    3   15      2.55      0.00
    9    3   15      0.61      0.00
    8    3   15      1.58      0.00
    7    3   15     -1.29      0.00
    6    3   15      2.48      0.00
    5    3   15     -2.21      0.00
    4    3   15      1.07      0.00
    3    3   15      0.74      0.00
    1    3   15     -2.55      0.00
    0    3   15      4.31      0.00
    2    3   15      0.06      0.00
    0    4    0     81.31      0.00
    2    4    0      1.37      0.00
    4    4    0     14.43      0.00
    6    4    0     -2.54      0.00
    8    4    0     -0.59      0.00
   10    4    0     -0.32      0.00
   12    4    0      1.00      0.00
   14    4    0     -0.86      0.00
   16    4    0      2.81      0.00
   18    4    0      0.66      0.00
   20    4    0      3.21      0.00
   22    4    0      5.16      0.00
   24    4    0      4.07      0.00
   26    4    0     -0.05      0.00
   28    4    0     -0.36      0.00
   28    4    1     -0.32      0.00
   27    4    1     -0.78      0.00
   26    4    1      1.47      0.00
   25    4    1      2.67      0.00
   24    4    1     -0.82      0.00
   23    4    1      1.29      0.00
   22    4    1     -2.48      0.00
   21    4    1      3.41      0.00
   20    4    1     -1.52      0.00
   19    4    1      1.29      0.00
   18    4    1     -0.26      0.00
   17    4    1      1.83      0.00
   16    4    1     -2.72      0.00
   15    4    1      0.39      0.00
   14    4    1      0.79      0.00
   13    4    1     -0.75      0.00
   12    4    1     -1.94      0.00
   11    4    1      0.33      0.00
   10    4    1     -0.87      0.00
    9    4    1     -0.47      0.00
    8    4    1      4.89      0.00
    7    4    1     -1.29      0.00
    6    4    1      0.45      0.00
    5    4    1      1.42      0.00
    4    4    1     -0.81      0.00
    3    4    1     -0.76      0.00
    2    4    1     -0.33      0.00
    1    4    1      3.67      0.00
    0    4    1    -36.80      0.00
   28    4    2     -0.73      0.00
   27    4    2     -0.13      0.00
   26    4    2     -1.33      0.00
   25    4    2     -2.27      0.00
   24    4    2     -1.44      0.00
   23    4    2     -1.61      0.00
   22    4    2     -2.86      0.00
   21    4    2     -2.04      0.00
   20    4    2     -2.63      0.00
   19    4    2     -2.60      0.00
   18    4    2     -0.79      0.00
   17    4    2     -2.34      0.00
   16    4    2     -1.08      0.00
   15    4    2     -0.39      0.00
   14    4    2     -1.03      0.00
   13    4    2      0.54      0.00
   12    4    2      0.18      0.00
   11    4    2      0.85      0.00
   10    4    2      0.14      0.00
    9    4    2      0.44      0.00
    8    4    2     -0.60      0.00
    7    4    2      1.63      0.00
    6    4    2     -1.73      0.00
    5    4    2     -5.93      0.00
    4    4    2     -5.55      0.00
    3    4    2      0.17      0.00
    1    4    2    -21.37      0.00
    0    4    2     -1.37      0.00
   28    4    3      1.06      0.00
   27    4    3     -2.52      0.00
   26    4    3     -2.13      0.00
   25    4    3      0.66      0.00
   24    4    3      1.37      0.00
   23    4    3      2.02      0.00
   22    4    3      0.48      0.00
   21    4    3     -3.24      0.00
   20    4    3      0.48      0.00
   19    4    3      3.15      0.00
   18    4    3     -1.44      0.00
   17    4    3     -0.20      0.00
   16    4    3      1.62      0.00
   15    4    3      1.75      0.00
   14    4    3      1.63      0.00
   13    4    3      2.46      0.00
   12    4    3     -2.11      0.00
   11    4    3     -1.62      0.00
   10    4    3     -0.18      0.00
    9    4    3     -5.36      0.00
    8    4    3     -2.01      0.00
    7    4    3      3.81      0.00
    6    4    3      1.24      0.00
    5    4    3     -0.09      0.00
    4    4    3      1.84      0.00
    3    4    3      2.95      0.00
    2    4    3      6.89      0.00
    1    4    3     14.22      0.00
    0    4    3      4.03      0.00
   27    4    4      0.87      0.00
   26    4    4     -1.56      0.00
   25    4    4     -1.36      0.00
   24    4    4      0.16      0.00
   23    4    4     -0.50      0.00
   22    4    4     -1.24      0.00
   21    4    4      5.13      0.00
   20    4    4      2.46      0.00
   19    4    4     -3.97      0.00
   18    4    4      1.22      0.00
   17    4    4      2.01      0.00
   16    4    4     -1.64      0.00
   15    4    4     -0.92      0.00
   14    4    4      0.59      0.00
   13    4    4     -1.63      0.00
   12    4    4      2.47      0.00
   11    4    4      0.88      0.00
   10    4    4      0.44      0.00
    9    4    4      3.63      0.00
    8    4    4     -1.32      0.00
    7    4    4     -2.87      0.00
    6    4    4      2.50      0.00
    5    4    4      5.19      0.00
    4    4    4      1.56      0.00
    3    4    4     -2.14      0.00
    2    4    4     -1.83      0.00
    1    4    4     -2.88      0.00
    0    4    4     -6.08      0.00
   26    4    5     -1.03      0.00
   25    4    5      1.01      0.00
   24    4    5      0.33      0.00
   23    4    5      1.48      0.00
   22    4    5      3.56      0.00
   21    4    5     -3.67      0.00
   20    4    5     -1.74      0.00
   19    4    5      5.16      0.00
   18    4    5      2.05      0.00
   17    4    5     -2.68      0.00
   16    4    5     -0.13      0.00
   15    4    5     -0.25      0.00
   14    4    5      1.28      0.00
   13    4    5     -0.04      0.00
   12    4    5      0.65      0.00
   11    4    5      0.22      0.00
   10    4    5      3.40      0.00
    9    4    5     -2.31      0.00
    8    4    5     -0.97      0.00
    7    4    5      2.97      0.00
    6    4    5      1.45      0.00
    5    4    5     -3.68      0.00
    4    4    5     -3.00      0.00
    3    4    5      0.87      0.00
    2    4    5      5.97      0.00
    1    4    5     -1.80      0.00
    0    4    5      2.52      0.00
   26    4    6      0.49      0.00
   25    4    6      0.00      0.00
   24    4    6     -1.67      0.00
   23    4    6      0.24      0.00
   22    4    6     -3.57      0.00
   21    4    6      1.88      0.00
   20    4    6      3.77      0.00
   19    4    6     -1.36      0.00
   18    4    6     -2.39      0.00
   17    4    6      0.73      0.00
   16    4    6      2.25      0.00
   15    4    6      1.96      0.00
   14    4    6     -0.46      0.00
   13    4    6     -0.76      0.00
   12    4    6     -1.04      0.00
   11    4    6      2.84      0.00
   10    4    6     -1.86      0.00
    9    4    6      0.21      0.00
    8    4    6      1.26      0.00
    7    4    6     -3.34      0.00
    6    4    6     -5.18      0.00
    5    4    6     -0.20      0.00
    4    4    6      1.94      0.00
    3    4    6      3.94      0.00
    2    4    6     -7.85      0.00
    1    4    6      1.97      0.00
    0    4    6     -4.19      0.00
   25    4    7     -2.12      0.00
   24    4    7      1.83      0.00
   23    4    7     -1.89      0.00
   22    4    7      2.10      0.00
   21    4    7     -0.73      0.00
   20    4    7     -2.46      0.00
   19    4    7      1.65      0.00
   18    4    7      3.33      0.00
   17    4    7     -1.21      0.00
   16    4    7     -1.31      0.00
   15    4    7     -1.82      0.00
   14    4    7     -0.68      0.00
   13    4    7     -0.09      0.00
   12    4    7      0.66      0.00
   11    4    7     -0.22      0.00
   10    4    7      0.58      0.00
    9    4    7      1.31      0.00
    8    4    7     -3.16      0.00
    7    4    7      2.66      0.00
    6    4    7      3.12      0.00
    5    4    7      0.07      0.00
    4    4    7     -4.94      0.00
    3    4    7     -4.86      0.00
    2    4    7      3.48      0.00
    1    4    7      2.28      0.00
    0    4    7     -1.98      0.00
   24    4    8      2.26      0.00
   23    4    8      3.39      0.00
   22    4    8     -0.17      0.00
   21    4    8     -2.20      0.00
   20    4    8      1.65      0.00
   19    4    8     -0.04      0.00
   18    4    8     -1.36      0.00
   17    4    8     -0.30      0.00
   16    4    8      0.42      0.00
   15    4    8      1.93      0.00
   14    4    8      0.19      0.00
   13    4    8     -0.35      0.00
   12    4    8     -2.51      0.00
   11    4    8     -2.19      0.00
   10    4    8      0.37      0.00
    9    4    8     -1.64      0.00
    8    4    8      1.15      0.00
    7    4    8     -1.38      0.00
    6    4    8     -2.33      0.00
    5    4    8     -0.10      0.00
    4    4    8      1.81      0.00
    3    4    8      1.93      0.00
    2    4    8     -0.12      0.00
    1    4    8     -0.47      0.00
    0    4    8      5.80      0.00
   22    4    9     -0.62      0.00
   21    4    9      0.97      0.00
   20    4    9      0.59      0.00
   19    4    9     -0.22      0.00
   18    4    9      1.14      0.00
   17    4    9     -0.24      0.00
   16    4    9     -0.19      0.00
   15    4    9     -0.51      0.00
   14    4    9      0.47      0.00
   13    4    9     -0.84      0.00
   12    4    9      1.68      0.00
   11    4    9      1.15      0.00
   10    4    9      0.26      0.00
    9    4    9      3.67      0.00
    8    4    9      2.98      0.00
    7    4    9     -0.49      0.00
    6    4    9      2.32      0.00
    5    4    9      0.97      0.00
    4    4    9     -1.37      0.00
    3    4    9     -2.43      0.00
    2    4    9     -3.06      0.00
    1    4    9     -1.30      0.00
    0    4    9     -4.50      0.00
   21    4   10     -2.81      0.00
   20    4   10     -0.96      0.00
   19    4   10     -1.03      0.00
   18    4   10      0.60      0.00
   17    4   10      0.42      0.00
   16    4   10      0.26      0.00
   15    4   10      1.67      0.00
   14    4   10      0.63      0.00
   13    4   10      2.17      0.00
   12    4   10      0.66      0.00
   11    4   10     -1.44      0.00
   10    4   10     -1.13      0.00
    9    4   10     -2.38      0.00
    8    4   10     -2.35      0.00
    7    4   10     -0.62      0.00
    6    4   10     -2.31      0.00
    5    4   10      0.88      0.00
    4    4   10      0.91      0.00
    3    4   10     -0.87      0.00
    2    4   10      0.68      0.00
    1    4   10      3.25      0.00
    0    4   10      1.25      0.00
   19    4   11      2.73      0.00
   18    4   11     -0.34      0.00
   17    4   11     -0.03      0.00
   16    4   11     -1.38      0.00
   15    4   11     -1.55      0.00
   14    4   11     -1.08      0.00
   13    4   11     -1.25      0.00
   12    4   11     -1.21      0.00
   11    4   11     -0.05      0.00
   10    4   11     -0.74      0.00
    9    4   11     -1.27      0.00
    8    4   11     -0.11      0.00
    7    4   11      2.72      0.00
    6    4   11      0.74      0.00
    5    4   11     -0.29      0.00
    4    4   11     -0.59      0.00
    3    4   11      1.99      0.00
    2    4   11      2.99      0.00
    1    4   11     -2.86      0.00
    0    4   11     -1.14      0.00
   17    4   12      0.34      0.00
   16    4   12      0.33      0.00
   15    4   12     -0.80      0.00
   14    4   12     -0.10      0.00
   13    4   12     -0.38      0.00
   12    4   12      1.39      0.00
   11    4   12      1.20      0.00
   10    4   12     -0.84      0.00
    9    4   12      1.26      0.00
    8    4   12     -0.71      0.00
    7    4   12     -0.54      0.00
    6    4   12      0.61      0.00
    5    4   12     -1.29      0.00
    4    4   12      1.31      0.00
    3    4   12      0.02      0.00
    2    4   12     -1.43      0.00
    1    4   12      1.19      0.00
    0    4   12      2.54      0.00
   14    4   13     -2.30      0.00
   13    4   13     -1.06      0.00
   12    4   13      0.56      0.00
   11    4   13      0.00      0.00
   10    4   13     -0.08      0.00
    9    4   13     -1.20      0.00
    8    4   13      0.82      0.00
    7    4   13     -0.05      0.00
    6    4   13      0.53      0.00
    5    4   13      0.18      0.00
    4    4   13     -1.28      0.00
    3    4   13      0.43      0.00
    2    4   13      2.59      0.00
    1    4   13     -1.24      0.00
    0    4   13     -3.55      0.00
   11    4   14      2.12      0.00
   10    4   14      1.33      0.00
    9    4   14      0.61      0.00
    8    4   14      0.05      0.00
    7    4   14     -0.54      0.00
    6    4   14      2.98      0.00
    5    4   14     -0.37      0.00
    4    4   14      1.28      0.00
    3    4   14     -1.06      0.00
    2    4   14     -0.91      0.00
    1    4   14      0.98      0.00
    0    4   14      2.40      0.00
    2    5    0     -2.24      0.00
    4    5    0    -13.81      0.00
    6    5    0      1.64      0.00
    8    5    0      1.40      0.00
   10    5    0     -0.43      0.00
   12    5    0     -0.17      0.00
   14    5    0      0.04      0.00
   16    5    0     -1.56      0.00
   18    5    0     -0.24      0.00
   20    5    0     -2.74      0.00
   22    5    0     -3.90      0.00
   24    5    0     -3.51      0.00
   26    5    0      0.01      0.00
   26    5    1     -0.51      0.00
   25    5    1     -2.32      0.00
   24    5    1     -0.41      0.00
   23    5    1     -1.90      0.00
   22    5    1      2.65      0.00
   21    5    1     -2.53      0.00
   20    5    1      2.44      0.00
   19    5    1     -1.04      0.00
   18    5    1     -0.19      0.00
   17    5    1     -2.16      0.00
   16    5    1      2.00      0.00
   15    5    1      0.23      0.00
   14    5    1     -0.19      0.00
   13    5    1      0.82      0.00
   12    5    1      0.10      0.00
   11    5    1     -0.37      0.00
   10    5    1      1.54      0.00
    9    5    1     -0.09      0.00
    8    5    1     -4.13      0.00
    7    5    1     -0.41      0.00
    6    5    1      0.64      0.00
    5    5    1     -0.95      0.00
    4    5    1      0.33      0.00
    3    5    1      0.44      0.00
    2    5    1      0.74      0.00
    1    5    1     -3.16      0.00
    0    5    1     29.95      0.00
   26    5    2      0.82      0.00
   25    5    2      3.32      0.00
   24    5    2      2.64      0.00
   23    5    2      2.04      0.00
   22    5    2      1.25      0.00
   21    5    2      0.72      0.00
   20    5    2      2.12      0.00
   19    5    2      1.88      0.00
   18    5    2      1.39      0.00
   17    5    2      2.17      0.00
   16    5    2     -0.45      0.00
   15    5    2      0.32      0.00
   14    5    2      1.23      0.00
   13    5    2     -0.39      0.00
   12    5    2      1.09      0.00
   11    5    2     -1.03      0.00
   10    5    2      0.05      0.00
    9    5    2     -0.59      0.00
    8    5    2     -0.21      0.00
    7    5    2      0.17      0.00
    6    5    2      0.55      0.00
    5    5    2      4.33      0.00
    4    5    2      4.56      0.00
    3    5    2     -1.86      0.00
    2    5    2      7.97      0.00
    1    5    2     17.21      0.00
    0    5    2      3.48      0.00
   25    5    3     -0.63      0.00
   24    5    3     -0.55      0.00
   23    5    3     -3.33      0.00
   22    5    3     -0.13      0.00
   21    5    3      2.95      0.00
   20    5    3     -1.45      0.00
   19    5    3     -2.59      0.00
   18    5    3      0.65      0.00
   17    5    3      0.61      0.00
   16    5    3     -0.24      0.00
   15    5    3     -1.61      0.00
   14    5    3     -1.27      0.00
   13    5    3     -1.55      0.00
   12    5    3      1.39      0.00
   11    5    3      1.00      0.00
   10    5    3      0.23      0.00
    9    5    3      4.59      0.00
    8    5    3      0.87      0.00
    7    5    3     -3.03      0.00
    6    5    3     -0.55      0.00
    5    5    3      0.24      0.00
    4    5    3     -1.21      0.00
    3    5    3     -1.62      0.00
    2    5    3     -5.00      0.00
    1    5    3     -8.10      0.00
    0    5    3     -3.30      0.00
   25    5    4      1.45      0.00
   24    5    4     -0.66      0.00
   23    5    4      1.06      0.00
   22    5    4      1.25      0.00
   21    5    4     -2.67      0.00
   20    5    4     -1.03      0.00
   19    5    4      2.73      0.00
   18    5    4     -2.06      0.00
   17    5    4     -0.78      0.00
   16    5    4      0.96      0.00
   15    5    4     -0.18      0.00
   14    5    4      0.18      0.00
   13    5    4      0.26      0.00
   12    5    4     -1.66      0.00
   11    5    4      0.47      0.00
   10    5    4     -1.54      0.00
    9    5    4     -2.38      0.00
    8    5    4      1.07      0.00
    7    5    4      1.76      0.00
    6    5    4     -1.96      0.00
    5    5    4     -4.15      0.00
    4    5    4     -0.93      0.00
    3    5    4      1.05      0.00
    2    5    4      1.45      0.00
    1    5    4      1.68      0.00
    0    5    4      3.95      0.00
   24    5    5     -1.14      0.00
   23    5    5     -1.20      0.00
   22    5    5     -3.94      0.00
   21    5    5      1.50      0.00
   20    5    5      1.51      0.00
   19    5    5     -3.22      0.00
   18    5    5     -1.47      0.00
   17    5    5      1.56      0.00
   16    5    5      0.15      0.00
   15    5    5     -0.96      0.00
   14    5    5     -1.25      0.00
   13    5    5      0.44      0.00
   12    5    5     -1.08      0.00
   11    5    5     -0.11      0.00
   10    5    5     -1.69      0.00
    9    5    5      0.93      0.00
    8    5    5      1.62      0.00
    7    5    5     -1.70      0.00
    6    5    5     -0.40      0.00
    5    5    5      3.16      0.00
    4    5    5      1.77      0.00
    3    5    5     -0.18      0.00
    2    5    5     -5.89      0.00
    1    5    5      1.86      0.00
    0    5    5     -1.96      0.00
   23    5    6     -1.63      0.00
   22    5    6      1.87      0.00
   21    5    6     -0.39      0.00
   20    5    6     -1.98      0.00
   19    5    6      1.18      0.00
   18    5    6      2.18      0.00
   17    5    6     -1.08      0.00
   16    5    6     -0.78      0.00
   15    5    6     -0.49      0.00
   14    5    6     -0.26      0.00
   13    5    6      0.10      0.00
   12    5    6      1.02      0.00
   11    5    6     -1.90      0.00
   10    5    6      2.35      0.00
    9    5    6      0.10      0.00
    8    5    6     -1.50      0.00
    7    5    6      2.21      0.00
    6    5    6      4.31      0.00
    5    5    6     -0.28      0.00
    4    5    6     -1.61      0.00
    3    5    6     -2.95      0.00
    2    5    6      6.02      0.00
    1    5    6     -1.96      0.00
    0    5    6      4.36      0.00
   22    5    7     -0.74      0.00
   21    5    7     -0.74      0.00
   20    5    7     -0.09      0.00
   19    5    7     -1.32      0.00
   18    5    7     -3.07      0.00
   17    5    7      1.69      0.00
   16    5    7      0.30      0.00
   15    5    7      1.01      0.00
   14    5    7      0.68      0.00
   13    5    7      0.46      0.00
   12    5    7     -3.00      0.00
   11    5    7     -0.25      0.00
   10    5    7     -0.78      0.00
    9    5    7     -1.66      0.00
    8    5    7      2.25      0.00
    7    5    7     -1.09      0.00
    6    5    7     -2.70      0.00
    5    5    7     -0.50      0.00
    4    5    7      3.56      0.00
    3    5    7      2.19      0.00
    2    5    7     -2.49      0.00
    1    5    7     -0.64      0.00
    0    5    7      0.23      0.00
   21    5    8      3.32      0.00
   20    5    8     -0.78      0.00
   19    5    8     -0.49      0.00
   18    5    8      1.01      0.00
   17    5    8      0.89      0.00
   16    5    8      0.68      0.00
   15    5    8     -0.80      0.00
   14    5    8     -0.77      0.00
   13    5    8      1.51      0.00
   12    5    8      2.38      0.00
   11    5    8      1.69      0.00
   10    5    8      0.09      0.00
    9    5    8      1.84      0.00
    8    5    8     -1.39      0.00
    7    5    8      0.97      0.00
    6    5    8      2.07      0.00
    5    5    8     -0.03      0.00
    4    5    8     -1.48      0.00
    3    5    8      0.32      0.00
    2    5    8     -0.86      0.00
    1    5    8     -0.63      0.00
    0    5    8     -2.98      0.00
   20    5    9      0.31      0.00
   19    5    9      0.44      0.00
   18    5    9     -1.40      0.00
   17    5    9     -1.15      0.00
   16    5    9      1.32      0.00
   15    5    9      0.34      0.00
   14    5    9      0.01      0.00
   13    5    9      1.30      0.00
   12    5    9     -0.61      0.00
   11    5    9     -1.00      0.00
   10    5    9     -0.19      0.00
    9    5    9     -2.84      0.00
    8    5    9     -1.57      0.00
    7    5    9     -0.73      0.00
    6    5    9     -1.64      0.00
    5    5    9     -0.39      0.00
    4    5    9      0.54      0.00
    3    5    9      1.40      0.00
    2    5    9      2.50      0.00
    1    5    9      0.82      0.00
    0    5    9      3.00      0.00
   18    5   10     -0.01      0.00
   17    5   10     -1.75      0.00
   16    5   10     -2.25      0.00
   15    5   10     -0.56      0.00
   14    5   10     -0.78      0.00
   13    5   10     -3.14      0.00
   12    5   10      1.23      0.00
   11    5   10     -0.53      0.00
   10    5   10      0.70      0.00
    9    5   10      1.16      0.00
    8    5   10      0.69      0.00
    7    5   10      1.50      0.00
    6    5   10      1.58      0.00
    5    5   10     -0.67      0.00
    4    5   10     -0.66      0.00
    3    5   10      1.47      0.00
    2    5   10      0.25      0.00
    1    5   10     -2.63      0.00
    0    5   10      0.38      0.00
   16    5   11      1.55      0.00
   15    5   11      1.83      0.00
   14    5   11      0.78      0.00
   13    5   11      0.34      0.00
   12    5   11     -0.61      0.00
   11    5   11      0.68      0.00
   10    5   11      1.62      0.00
    9    5   11      0.81      0.00
    8    5   11      0.35      0.00
    7    5   11     -1.58      0.00
    6    5   11      0.35      0.00
    5    5   11     -0.30      0.00
    4    5   11      0.81      0.00
    3    5   11     -1.93      0.00
    2    5   11     -1.29      0.00
    1    5   11      2.11      0.00
    0    5   11      1.32      0.00
   13    5   12      0.87      0.00
   12    5   12     -0.50      0.00
   11    5   12     -0.40      0.00
   10    5   12     -2.16      0.00
    9    5   12      0.50      0.00
    8    5   12      0.54      0.00
    7    5   12     -0.58      0.00
    6    5   12     -0.48      0.00
    5    5   12      1.83      0.00
    4    5   12     -1.41      0.00
    3    5   12     -0.75      0.00
    2    5   12      1.49      0.00
    1    5   12     -2.61      0.00
    0    5   12     -3.90      0.00
    8    5   13      0.62      0.00
    7    5   13      1.73      0.00
    6    5   13     -0.62      0.00
    5    5   13      0.61      0.00
    4    5   13      0.21      0.00
    3    5   13     -1.50      0.00
    2    5   13     -3.53      0.00
    1    5   13      3.72      0.00
    0    5   13      1.60      0.00
    9    5   13     -0.76      0.00
    0    6    0     37.68      0.00
    2    6    0      2.85      0.00
    4    6    0      7.73      0.00
    6    6    0     -1.94      0.00
    8    6    0      0.67      0.00
   10    6    0      0.57      0.00
   12    6    0      0.33      0.00
   14    6    0     -0.86      0.00
   16    6    0     -0.23      0.00
   18    6    0     -0.67      0.00
   20    6    0     -0.97      0.00
   22    6    0      1.83      0.00
   23    6    1      2.19      0.00
   22    6    1     -1.70      0.00
   21    6    1      2.40      0.00
   20    6    1     -1.58      0.00
   19    6    1      0.72      0.00
   18    6    1      0.62      0.00
   17    6    1      1.74      0.00
   16    6    1     -0.08      0.00
   15    6    1     -0.52      0.00
   14    6    1      0.54      0.00
   13    6    1     -0.86      0.00
   12    6    1     -0.84      0.00
   11    6    1      0.71      0.00
   10    6    1     -1.25      0.00
    9    6    1     -0.57      0.00
    8    6    1      1.00      0.00
    7    6    1     -0.59      0.00
    6    6    1      1.04      0.00
    5    6    1      0.28      0.00
    4    6    1      0.95      0.00
    3    6    1     -1.55      0.00
    2    6    1     -0.23      0.00
    1    6    1      2.63      0.00
    0    6    1    -13.14      0.00
   23    6    2     -0.96      0.00
   22    6    2      0.74      0.00
   21    6    2      1.07      0.00
   20    6    2     -2.09      0.00
   19    6    2     -1.00      0.00
   18    6    2      0.00      0.00
   17    6    2     -1.86      0.00
   16    6    2      0.37      0.00
   15    6    2      0.49      0.00
   14    6    2     -1.11      0.00
   13    6    2      0.77      0.00
   12    6    2     -0.39      0.00
   11    6    2     -0.93      0.00
   10    6    2      0.27      0.00
    9    6    2      0.76      0.00
    8    6    2      0.77      0.00
    7    6    2     -0.54      0.00
    6    6    2     -1.32      0.00
    5    6    2     -1.96      0.00
    4    6    2     -4.11      0.00
    3    6    2      2.38      0.00
    2    6    2     -4.87      0.00
    1    6    2     -8.59      0.00
    0    6    2     -4.78      0.00
   22    6    3      0.74      0.00
   21    6    3     -2.12      0.00
   20    6    3      1.85      0.00
   19    6    3      0.59      0.00
   18    6    3     -0.82      0.00
   17    6    3     -0.10      0.00
   16    6    3     -0.56      0.00
   15    6    3      0.75      0.00
   14    6    3      0.28      0.00
   13    6    3      1.12      0.00
   12    6    3     -0.89      0.00
   11    6    3     -0.49      0.00
   10    6    3      0.04      0.00
    9    6    3     -2.72      0.00
    8    6    3      0.18      0.00
    7    6    3      1.67      0.00
    6    6    3      0.51      0.00
    5    6    3     -0.41      0.00
    4    6    3      0.00      0.00
    3    6    3     -0.51      0.00
    2    6    3      2.66      0.00
    1    6    3      4.60      0.00
    0    6    3      3.30      0.00
   22    6    4     -1.62      0.00
   21    6    4      0.41      0.00
   20    6    4      0.45      0.00
   19    6    4     -1.43      0.00
   18    6    4      1.50      0.00
   17    6    4     -0.39      0.00
   16    6    4     -0.80      0.00
   15    6    4      1.13      0.00
   14    6    4     -0.39      0.00
   13    6    4     -0.37      0.00
   12    6    4      1.96      0.00
   11    6    4     -0.34      0.00
   10    6    4      0.28      0.00
    9    6    4      1.61      0.00
    8    6    4     -1.07      0.00
    7    6    4     -0.19      0.00
    6    6    4      1.46      0.00
    5    6    4      3.80      0.00
    4    6    4      1.93      0.00
    3    6    4     -1.24      0.00
    2    6    4      0.75      0.00
    1    6    4      0.50      0.00
    0    6    4     -1.30      0.00
   21    6    5      0.20      0.00
   20    6    5     -0.81      0.00
   19    6    5      2.44      0.00
   18    6    5      1.24      0.00
   17    6    5     -0.64      0.00
   16    6    5      0.67      0.00
   15    6    5      1.45      0.00
   14    6    5      0.86      0.00
   13    6    5     -0.64      0.00
   12    6    5      0.72      0.00
   11    6    5      0.58      0.00
   10    6    5      2.25      0.00
    9    6    5      0.14      0.00
    8    6    5     -1.30      0.00
    7    6    5      0.54      0.00
    6    6    5      1.47      0.00
    5    6    5     -2.02      0.00
    4    6    5     -1.97      0.00
    3    6    5     -0.83      0.00
    2    6    5      0.78      0.00
    1    6    5     -2.63      0.00
    0    6    5      2.43      0.00
   20    6    6     -1.19      0.00
   19    6    6     -1.65      0.00
   18    6    6     -1.20      0.00
   17    6    6      1.31      0.00
   16    6    6     -1.13      0.00
   15    6    6      0.31      0.00
   14    6    6      1.69      0.00
   13    6    6     -0.45      0.00
   12    6    6     -0.97      0.00
   11    6    6      1.02      0.00
   10    6    6     -2.54      0.00
    9    6    6     -0.61      0.00
    8    6    6      1.48      0.00
    7    6    6     -1.30      0.00
    6    6    6     -3.34      0.00
    5    6    6      0.38      0.00
    4    6    6      1.09      0.00
    3    6    6      1.46      0.00
    2    6    6     -3.78      0.00
    1    6    6      1.68      0.00
    0    6    6     -5.27      0.00
   19    6    7      1.22      0.00
   18    6    7      2.49      0.00
   17    6    7     -1.88      0.00
   16    6    7      0.05      0.00
   15    6    7     -0.58      0.00
   14    6    7     -0.40      0.00
   13    6    7      0.82      0.00
   12    6    7      1.61      0.00
   11    6    7     -0.05      0.00
   10    6    7      0.25      0.00
    9    6    7      1.07      0.00
    8    6    7     -2.84      0.00
    7    6    7     -1.17      0.00
    6    6    7      0.80      0.00
    5    6    7      1.51      0.00
    4    6    7     -1.57      0.00
    3    6    7     -1.44      0.00
    2    6    7      1.43      0.00
    1    6    7      0.01      0.00
    0    6    7      0.12      0.00
   17    6    8     -0.60      0.00
   16    6    8     -0.36      0.00
   15    6    8     -0.61      0.00
   14    6    8      0.87      0.00
   13    6    8     -1.86      0.00
   12    6    8      0.50      0.00
   11    6    8     -1.14      0.00
   10    6    8      0.03      0.00
    9    6    8     -0.93      0.00
    8    6    8      0.91      0.00
    7    6    8     -0.59      0.00
    6    6    8     -0.78      0.00
    5    6    8      1.20      0.00
    4    6    8      1.29      0.00
    3    6    8      0.29      0.00
    2    6    8      1.71      0.00
    1    6    8      1.89      0.00
    0    6    8      3.12      0.00
   15    6    9     -0.63      0.00
   14    6    9     -1.08      0.00
   13    6    9     -2.73      0.00
   12    6    9     -0.24      0.00
   11    6    9      0.09      0.00
   10    6    9      0.82      0.00
    9    6    9      2.50      0.00
    8    6    9      1.60      0.00
    7    6    9     -0.25      0.00
    6    6    9      0.29      0.00
    5    6    9     -0.32      0.00
    4    6    9      1.32      0.00
    3    6    9     -1.08      0.00
    2    6    9     -2.68      0.00
    1    6    9     -0.64      0.00
    0    6    9     -1.88      0.00
   12    6   10     -3.98      0.00
   11    6   10      3.44      0.00
   10    6   10     -1.32      0.00
    9    6   10     -0.03      0.00
    8    6   10      0.45      0.00
    7    6   10     -0.29      0.00
    6    6   10     -2.67      0.00
    5    6   10     -0.12      0.00
    4    6   10     -0.13      0.00
    3    6   10     -2.60      0.00
    2    6   10      0.25      0.00
    1    6   10      2.40      0.00
    0    6   10     -0.83      0.00
    9    6   11     -0.22      0.00
    8    6   11     -0.43      0.00
    7    6   11      0.47      0.00
    6    6   11      0.71      0.00
    5    6   11      0.23      0.00
    4    6   11     -1.66      0.00
    3    6   11      2.43      0.00
    2    6   11     -1.10      0.00
    1    6   11     -1.64      0.00
    0    6   11     -0.72      0.00
    1    6   12      2.59      0.00
    2    6   12     -1.88      0.00
    3    6   12      1.13      0.00
    4    6   12      2.68      0.00
    5    6   12     -1.49      0.00
    0    7    0    -18.49      0.00
    2    7    0     -1.40      0.00
    4    7    0     -3.31      0.00
    6    7    0      0.32      0.00
    8    7    0      0.14      0.00
   10    7    0      0.72      0.00
   12    7    0     -0.40      0.00
   14    7    0      2.39      0.00
   16    7    0     -0.28      0.00
   18    7    0      1.22      0.00
   18    7    1     -0.36      0.00
   17    7    1     -0.64      0.00
   16    7    1     -0.78      0.00
   15    7    1      0.00      0.00
   14    7    1     -0.98      0.00
   13    7    1      0.70      0.00
   12    7    1      1.96      0.00
   11    7    1     -0.41      0.00
   10    7    1      0.46      0.00
    9    7    1      1.09      0.00
    8    7    1     -1.26      0.00
    7    7    1      1.10      0.00
    6    7    1      0.17      0.00
    5    7    1     -0.93      0.00
    4    7    1     -0.64      0.00
    3    7    1      1.23      0.00
    2    7    1      0.51      0.00
    1    7    1     -1.59      0.00
    0    7    1      6.27      0.00
   18    7    2     -1.62      0.00
   17    7    2      1.04      0.00
   16    7    2      1.04      0.00
   15    7    2     -1.01      0.00
   14    7    2      1.52      0.00
   13    7    2     -0.80      0.00
   12    7    2     -1.51      0.00
   11    7    2      1.59      0.00
   10    7    2     -0.09      0.00
    9    7    2     -0.26      0.00
    8    7    2     -0.53      0.00
    7    7    2     -0.22      0.00
    6    7    2      1.30      0.00
    5    7    2      1.27      0.00
    4    7    2      2.25      0.00
    3    7    2     -0.14      0.00
    2    7    2      1.63      0.00
    1    7    2      5.05      0.00
    0    7    2      2.26      0.00
   18    7    3      1.69      0.00
   17    7    3     -0.18      0.00
   16    7    3     -0.45      0.00
   15    7    3      0.27      0.00
   14    7    3     -0.35      0.00
   13    7    3     -0.61      0.00
   12    7    3      0.83      0.00
   11    7    3      1.04      0.00
   10    7    3     -0.43      0.00
    9    7    3      1.02      0.00
    8    7    3     -0.41      0.00
    7    7    3     -0.99      0.00
    6    7    3     -0.96      0.00
    5    7    3     -0.03      0.00
    4    7    3      0.26      0.00
    3    7    3      0.19      0.00
    2    7    3     -1.71      0.00
    1    7    3     -3.49      0.00
    0    7    3     -2.37      0.00
   17    7    4      0.56      0.00
   16    7    4      0.71      0.00
   15    7    4     -2.14      0.00
   14    7    4     -0.31      0.00
   13    7    4      1.28      0.00
   12    7    4     -2.67      0.00
   11    7    4     -0.73      0.00
   10    7    4      0.47      0.00
    9    7    4     -0.78      0.00
    8    7    4      0.66      0.00
    7    7    4     -0.20      0.00
    6    7    4     -0.95      0.00
    5    7    4     -2.20      0.00
    4    7    4     -3.47      0.00
    3    7    4      1.02      0.00
    2    7    4     -0.60      0.00
    1    7    4     -0.37      0.00
    0    7    4      1.35      0.00
   16    7    5     -0.91      0.00
   15    7    5      0.22      0.00
   14    7    5      0.27      0.00
   13    7    5     -0.35      0.00
   12    7    5      0.26      0.00
   11    7    5     -1.24      0.00
   10    7    5     -1.09      0.00
    9    7    5      0.48      0.00
    8    7    5      0.09      0.00
    7    7    5     -0.78      0.00
    6    7    5     -1.21      0.00
    5    7    5      1.54      0.00
    4    7    5      2.18      0.00
    3    7    5      0.08      0.00
    2    7    5      0.72      0.00
    1    7    5      1.01      0.00
    0    7    5     -1.60      0.00
   15    7    6     -1.66      0.00
   14    7    6     -2.28      0.00
   13    7    6      1.79      0.00
   12    7    6      0.36      0.00
   11    7    6     -0.66      0.00
   10    7    6      1.10      0.00
    9    7    6      0.31      0.00
    8    7    6      0.66      0.00
    7    7    6      1.29      0.00
    6    7    6      1.90      0.00
    5    7    6     -0.57      0.00
    4    7    6      0.52      0.00
    3    7    6     -0.02      0.00
    2    7    6      2.54      0.00
    1    7    6     -0.36      0.00
    0    7    6      3.06      0.00
   12    7    7      1.66      0.00
   11    7    7      0.74      0.00
   10    7    7     -0.35      0.00
    9    7    7     -0.63      0.00
    8    7    7      2.27      0.00
    7    7    7      1.78      0.00
    6    7    7      0.32      0.00
    5    7    7     -1.10      0.00
    4    7    7     -0.12      0.00
    3    7    7      1.40      0.00
    2    7    7     -0.86      0.00
    1    7    7     -0.92      0.00
    0    7    7      0.76      0.00
   13    7    7     -2.62      0.00
   11    7    8      0.53      0.00
   10    7    8     -0.36      0.00
    9    7    8     -0.31      0.00
    8    7    8     -0.53      0.00
    7    7    8     -0.48      0.00
    6    7    8     -0.53      0.00
    5    7    8     -1.82      0.00
    4    7    8     -1.29      0.00
    3    7    8     -1.52      0.00
    2    7    8     -0.99      0.00
    1    7    8     -1.30      0.00
    0    7    8     -3.67      0.00
    9    7    9     -2.67      0.00
    8    7    9     -2.60      0.00
    7    7    9      2.49      0.00
    6    7    9      1.40      0.00
    5    7    9      0.86      0.00
    4    7    9     -0.76      0.00
    3    7    9      0.90      0.00
    2    7    9      2.60      0.00
    1    7    9      0.20      0.00
    0    7    9      1.40      0.00
    0    8    0     19.33      0.00
    2    8    0     -0.27      0.00
    4    8    0      4.89      0.00
    6    8    0      1.06      0.00
    8    8    0     -2.62      0.00
   10    8    0     -1.77      0.00
   12    8    1     -0.63      0.00
   11    8    1     -0.11      0.00
   10    8    1     -0.26      0.00
    9    8    1     -0.82      0.00
    8    8    1      2.87      0.00
    7    8    1     -0.18      0.00
    6    8    1     -2.18      0.00
    5    8    1      1.29      0.00
    4    8    1     -1.63      0.00
    3    8    1     -0.06      0.00
    2    8    1     -1.22      0.00
    1    8    1      1.72      0.00
    0    8    1     -6.43      0.00
   12    8    2      1.51      0.00
   11    8    2     -0.15      0.00
   10    8    2      0.11      0.00
    9    8    2      0.22      0.00
    8    8    2      0.87      0.00
    7    8    2     -0.26      0.00
    6    8    2     -0.15      0.00
    5    8    2     -0.88      0.00
    4    8    2      0.30      0.00
    3    8    2     -1.43      0.00
    2    8    2     -1.21      0.00
    1    8    2     -6.79      0.00
    0    8    2      0.13      0.00
   11    8    3     -1.75      0.00
   10    8    3     -0.01      0.00
    9    8    3     -0.74      0.00
    8    8    3      0.26      0.00
    7    8    3      1.51      0.00
    6    8    3      0.01      0.00
    5    8    3     -0.33      0.00
    4    8    3     -0.02      0.00
    3    8    3      1.21      0.00
    2    8    3      1.98      0.00
    1    8    3      2.52      0.00
    0    8    3      0.88      0.00
   10    8    4      0.67      0.00
    9    8    4     -0.56      0.00
    8    8    4     -0.35      0.00
    7    8    4      0.52      0.00
    6    8    4      1.26      0.00
    5    8    4      0.38      0.00
    4    8    4      3.25      0.00
    3    8    4     -0.29      0.00
    2    8    4     -1.55      0.00
    1    8    4     -0.87      0.00
    0    8    4     -2.50      0.00
    8    8    5      0.17      0.00
    7    8    5      0.29      0.00
    6    8    5     -0.48      0.00
    5    8    5     -1.14      0.00
    4    8    5     -1.42      0.00
    3    8    5      1.26      0.00
    2    8    5      1.65      0.00
    1    8    5      0.66      0.00
    0    8    5     -0.08      0.00
    5    8    6      0.40      0.00
    4    8    6     -1.35      0.00
    3    8    6     -0.64      0.00
    2    8    6     -1.36      0.00
    1    8    6      0.16      0.00
    0    8    6     -0.49      0.00
    6    8    6     -0.86      0.00
    2    0    0    -13.53      0.00
   32    0    0      2.86      0.00
    0    1    0   -198.82      0.00
    0    2    0     90.80      0.00
   32    2    0     -5.43      0.00
    0    3    0    -58.56      0.00
   30    3    0      1.55      0.00
   32    3    0      5.75      0.00
   30    4    0     -1.47      0.00
   32    4    0     -1.81      0.00
    0    5    0    -74.88      0.00
   28    5    0      4.14      0.00
   30    5    0      0.73      0.00
   24    6    0      1.98      0.00
   26    6    0      0.11      0.00
   28    6    0     -3.49      0.00
   20    7    0      3.53      0.00
   22    7    0     -0.17      0.00
   24    7    0     -0.59      0.00
   12    8    0     -0.96      0.00
   14    8    0     -1.80      0.00
   16    8    0      1.19      0.00
   18    8    0     -1.05      0.00
    0    9    0    -13.21      0.00
    2    9    0      0.30      0.00
    4    9    0     -5.63      0.00
    6    9    0     -0.41      0.00
    8    9    0      2.26      0.00
   10    9    0      1.36      0.00
   12    9    0      1.97      0.00
    0    0    1    -94.14      0.00
    7    0    1     -1.82      0.00
   33    0    1      0.39      0.00
    0    1    1     70.96      0.00
   33    1    1     -1.17      0.00
    0    2    1    -34.70      0.00
   32    2    1      3.10      0.00
   33    2    1      2.31      0.00
    0    3    1     27.88      0.00
   31    3    1     -0.35      0.00
   32    3    1     -4.07      0.00
   33    3    1     -2.02      0.00
   29    4    1     -1.39      0.00
   30    4    1     -0.20      0.00
   31    4    1      1.12      0.00
   32    4    1      1.37      0.00
   27    5    1      0.85      0.00
   28    5    1     -1.68      0.00
   29    5    1      0.47      0.00
   30    5    1      0.32      0.00
   24    6    1      0.43      0.00
   25    6    1      1.11      0.00
   26    6    1     -0.14      0.00
   27    6    1     -0.32      0.00
   28    6    1      1.43      0.00
   19    7    1     -0.35      0.00
   20    7    1     -0.61      0.00
   21    7    1     -2.05      0.00
   22    7    1      0.59      0.00
   23    7    1     -1.62      0.00
   24    7    1      0.26      0.00
   13    8    1     -0.09      0.00
   14    8    1      0.27      0.00
   15    8    1     -0.14      0.00
   16    8    1      0.21      0.00
   17    8    1     -0.08      0.00
   18    8    1     -0.10      0.00
   19    8    1      0.54      0.00
    0    9    1      3.31      0.00
    1    9    1     -2.21      0.00
    2    9    1      0.73      0.00
    3    9    1     -0.11      0.00
    4    9    1      2.39      0.00
    5    9    1     -0.45      0.00
    6    9    1      1.32      0.00
    7    9    1     -0.16      0.00
    8    9    1     -2.00      0.00
    9    9    1      0.32      0.00
   10    9    1      0.34      0.00
   11    9    1      0.05      0.00
   12    9    1     -0.97      0.00
    6    0    2     -8.80      0.00
   33    0    2      0.75      0.00
    1    1    2     42.23      0.00
    2    1    2      5.63      0.00
   33    1    2     -0.29      0.00
    1    2    2    -26.71      0.00
    2    2    2     -1.84      0.00
   32    2    2      0.66      0.00
   33    2    2     -0.42      0.00
   31    3    2     -0.87      0.00
   32    3    2     -0.76      0.00
   33    3    2      0.35      0.00
    2    4    2     -6.51      0.00
   29    4    2      2.32      0.00
   30    4    2      3.70      0.00
   31    4    2     -0.40      0.00
   32    4    2      0.10      0.00
   27    5    2      0.31      0.00
   28    5    2      0.65      0.00
   29    5    2     -1.38      0.00
   30    5    2     -1.69      0.00
   24    6    2     -2.75      0.00
   25    6    2     -2.57      0.00
   26    6    2     -0.02      0.00
   27    6    2     -0.56      0.00
   19    7    2      0.15      0.00
   20    7    2      2.24      0.00
   21    7    2     -0.93      0.00
   22    7    2     -0.71      0.00
   23    7    2     -0.60      0.00
   24    7    2      1.41      0.00
   13    8    2      0.12      0.00
   14    8    2     -1.63      0.00
   15    8    2      1.04      0.00
   16    8    2     -1.32      0.00
   17    8    2     -0.33      0.00
   18    8    2      1.44      0.00
   19    8    2     -0.12      0.00
    0    9    2      0.02      0.00
    1    9    2      5.55      0.00
    2    9    2      1.35      0.00
    3    9    2      0.76      0.00
    4    9    2     -1.11      0.00
    5    9    2     -0.25      0.00
    6    9    2     -0.64      0.00
    7    9    2      1.07      0.00
    8    9    2     -1.18      0.00
    9    9    2     -0.54      0.00
   10    9    2     -0.61      0.00
   11    9    2     -0.52      0.00
   12    9    2     -0.10      0.00
   32    0    3      8.05      0.00
   33    0    3      2.75      0.00
    2    1    3     -1.94      0.00
   32    1    3     -5.59      0.00
   33    1    3     -1.50      0.00
   32    2    3      1.13      0.00
   33    2    3     -0.41      0.00
   30    3    3      0.86      0.00
   31    3    3     -2.30      0.00
   32    3    3      0.59      0.00
   33    3    3      0.70      0.00
   29    4    3      0.09      0.00
   30    4    3     -3.21      0.00
   31    4    3      0.40      0.00
   32    4    3      0.42      0.00
   26    5    3      1.59      0.00
   27    5    3      1.62      0.00
   28    5    3     -1.01      0.00
   29    5    3      0.81      0.00
   30    5    3      1.79      0.00
   23    6    3      2.92      0.00
   24    6    3      0.60      0.00
   25    6    3      0.48      0.00
   26    6    3     -0.30      0.00
   27    6    3      0.27      0.00
   19    7    3      0.78      0.00
   20    7    3     -1.44      0.00
   21    7    3      1.09      0.00
   22    7    3     -1.85      0.00
   23    7    3     -0.90      0.00
   12    8    3     -0.64      0.00
   13    8    3     -0.01      0.00
   14    8    3      1.20      0.00
   15    8    3     -0.67      0.00
   16    8    3      1.51      0.00
   17    8    3      0.02      0.00
   18    8    3     -1.60      0.00
   19    8    3     -0.51      0.00
    0    9    3     -0.08      0.00
    1    9    3     -0.91      0.00
    2    9    3     -1.67      0.00
    3    9    3     -0.96      0.00
    4    9    3      0.24      0.00
    5    9    3      1.04      0.00
    6    9    3      1.41      0.00
    7    9    3     -1.44      0.00
    8    9    3     -0.14      0.00
    9    9    3      0.81      0.00
   10    9    3      0.67      0.00
   11    9    3      1.12      0.00
   32    0    4     -2.51      0.00
   33    0    4     -1.95      0.00
   32    1    4      2.88      0.00
   33    1    4      1.51      0.00
   31    2    4     -0.08      0.00
   32    2    4     -2.87      0.00
   33    2    4     -0.64      0.00
   30    3    4      1.40      0.00
   31    3    4      2.18      0.00
   32    3    4      1.71      0.00
   33    3    4     -0.09      0.00
   28    4    4      0.83      0.00
   29    4    4      1.27      0.00
   30    4    4     -0.87      0.00
   31    4    4     -1.53      0.00
   26    5    4      1.29      0.00
   27    5    4     -0.03      0.00
   28    5    4     -0.50      0.00
   29    5    4     -0.89      0.00
   23    6    4     -1.78      0.00
   24    6    4     -1.57      0.00
   25    6    4     -0.86      0.00
   26    6    4     -0.05      0.00
   27    6    4     -0.58      0.00
   18    7    4     -0.62      0.00
   19    7    4      0.80      0.00
   20    7    4     -0.13      0.00
   21    7    4      0.33      0.00
   22    7    4      1.83      0.00
   23    7    4      1.47      0.00
   11    8    4      0.99      0.00
   12    8    4      2.08      0.00
   13    8    4     -0.98      0.00
   14    8    4      0.30      0.00
   15    8    4      2.24      0.00
   16    8    4     -0.38      0.00
   17    8    4     -0.30      0.00
   18    8    4      0.19      0.00
    0    9    4      2.00      0.00
    1    9    4      0.67      0.00
    2    9    4      2.13      0.00
    3    9    4      0.06      0.00
    4    9    4     -1.40      0.00
    5    9    4      0.12      0.00
    6    9    4     -1.19      0.00
    7    9    4     -0.97      0.00
    8    9    4      0.38      0.00
    9    9    4      1.24      0.00
   10    9    4     -0.98      0.00
   32    0    5     -3.21      0.00
   33    0    5     -1.89      0.00
   31    1    5      0.06      0.00
   32    1    5      3.12      0.00
   33    1    5      0.88      0.00
   31    2    5     -1.14      0.00
   32    2    5     -2.41      0.00
   33    2    5      0.57      0.00
   29    3    5      0.68      0.00
   30    3    5      1.21      0.00
   31    3    5      0.59      0.00
   32    3    5      0.77      0.00
   27    4    5      0.79      0.00
   28    4    5      0.40      0.00
   29    4    5     -0.30      0.00
   30    4    5     -1.50      0.00
   31    4    5      0.41      0.00
   25    5    5     -1.69      0.00
   26    5    5      0.25      0.00
   27    5    5     -1.91      0.00
   28    5    5     -0.94      0.00
   29    5    5      0.23      0.00
   22    6    5      3.34      0.00
   23    6    5     -0.15      0.00
   24    6    5      1.12      0.00
   25    6    5      1.73      0.00
   26    6    5      0.31      0.00
   17    7    5     -0.01      0.00
   18    7    5     -0.56      0.00
   19    7    5     -2.20      0.00
   20    7    5     -0.09      0.00
   21    7    5     -0.42      0.00
   22    7    5     -2.01      0.00
    9    8    5     -0.74      0.00
   10    8    5     -1.36      0.00
   11    8    5      1.34      0.00
   12    8    5     -0.08      0.00
   13    8    5      0.52      0.00
   14    8    5     -0.34      0.00
   15    8    5     -1.19      0.00
   16    8    5      0.13      0.00
   17    8    5      0.23      0.00
    0    9    5      0.43      0.00
    1    9    5     -0.43      0.00
    2    9    5     -1.88      0.00
    3    9    5     -1.14      0.00
    4    9    5      0.40      0.00
    5    9    5      0.42      0.00
    6    9    5      0.65      0.00
    7    9    5      0.68      0.00
    8    9    5      0.31      0.00
   31    0    6     -4.66      0.00
   32    0    6     -2.85      0.00
   33    0    6      1.90      0.00
   31    1    6      3.80      0.00
   32    1    6      1.69      0.00
   33    1    6     -1.56      0.00
   30    2    6      2.47      0.00
   31    2    6     -1.91      0.00
   32    2    6      0.06      0.00
   33    2    6      0.82      0.00
   28    3    6      0.85      0.00
   29    3    6     -0.99      0.00
   30    3    6     -2.37      0.00
   31    3    6      0.42      0.00
   32    3    6     -0.02      0.00
   27    4    6      1.39      0.00
   28    4    6      0.93      0.00
   29    4    6     -0.03      0.00
   30    4    6      0.37      0.00
   24    5    6      1.95      0.00
   25    5    6      0.62      0.00
   26    5    6     -0.62      0.00
   27    5    6     -1.27      0.00
   28    5    6     -0.56      0.00
   21    6    6      0.04      0.00
   22    6    6     -0.33      0.00
   23    6    6      1.56      0.00
   24    6    6     -0.68      0.00
   25    6    6     -0.21      0.00
   16    7    6      1.15      0.00
   17    7    6     -0.25      0.00
   18    7    6      0.21      0.00
   19    7    6      1.53      0.00
   20    7    6      2.32      0.00
   21    7    6     -0.61      0.00
    7    8    6     -0.81      0.00
    8    8    6     -1.75      0.00
    9    8    6      0.04      0.00
   10    8    6      0.51      0.00
   11    8    6      0.11      0.00
   12    8    6     -0.64      0.00
   13    8    6     -1.37      0.00
   14    8    6      1.27      0.00
   15    8    6      1.50      0.00
   16    8    6     -0.22      0.00
    0    9    6      0.15      0.00
    1    9    6     -0.68      0.00
    2    9    6     -0.21      0.00
    3    9    6      0.39      0.00
    4    9    6      0.73      0.00
    5    9    6     -0.14      0.00
   30    0    7      0.72      0.00
   31    0    7     -0.38      0.00
   32    0    7     -0.51      0.00
   33    0    7      0.14      0.00
   30    1    7      0.88      0.00
   31    1    7      1.18      0.00
   32    1    7      0.61      0.00
   33    1    7      0.00      0.00
   29    2    7     -1.27      0.00
   30    2    7     -3.01      0.00
   31    2    7     -2.35      0.00
   32    2    7     -0.57      0.00
   28    3    7      2.24      0.00
   29    3    7      0.61      0.00
   30    3    7      2.20      0.00
   31    3    7      2.06      0.00
   26    4    7      1.32      0.00
   27    4    7     -0.36      0.00
   28    4    7     -0.04      0.00
   29    4    7     -0.15      0.00
   23    5    7      1.75      0.00
   24    5    7     -1.51      0.00
   25    5    7      2.14      0.00
   26    5    7     -0.34      0.00
   27    5    7     -0.54      0.00
   20    6    7      2.73      0.00
   21    6    7      0.47      0.00
   22    6    7      0.04      0.00
   23    6    7     -1.51      0.00
   24    6    7      0.44      0.00
   14    7    7      0.18      0.00
   15    7    7      0.69      0.00
   16    7    7      0.56      0.00
   17    7    7      1.37      0.00
   18    7    7     -1.43      0.00
   19    7    7     -1.13      0.00
   20    7    7     -3.27      0.00
    0    8    7      0.17      0.00
    1    8    7      1.13      0.00
    2    8    7     -0.04      0.00
    3    8    7     -0.83      0.00
    4    8    7      0.37      0.00
    5    8    7     -0.11      0.00
    6    8    7      0.31      0.00
    7    8    7     -0.86      0.00
    8    8    7     -1.31      0.00
    9    8    7      0.84      0.00
   10    8    7      0.78      0.00
   11    8    7     -0.37      0.00
   12    8    7     -1.77      0.00
   13    8    7      2.35      0.00
   14    8    7     -0.48      0.00
   29    0    8     -0.54      0.00
   30    0    8      0.73      0.00
   31    0    8      1.16      0.00
   32    0    8      0.25      0.00
   29    1    8     -0.96      0.00
   30    1    8     -0.94      0.00
   31    1    8     -1.29      0.00
   32    1    8     -0.31      0.00
   28    2    8      2.21      0.00
   29    2    8      3.01      0.00
   30    2    8      1.06      0.00
   31    2    8      1.25      0.00
   27    3    8      0.29      0.00
   28    3    8     -3.67      0.00
   29    3    8     -2.30      0.00
   30    3    8     -0.53      0.00
   25    4    8      2.21      0.00
   26    4    8      1.73      0.00
   27    4    8     -0.42      0.00
   28    4    8      1.50      0.00
   22    5    8     -0.26      0.00
   23    5    8     -1.80      0.00
   24    5    8     -0.81      0.00
   25    5    8      0.08      0.00
   26    5    8     -0.74      0.00
   18    6    8     -0.76      0.00
   19    6    8     -0.13      0.00
   20    6    8      0.13      0.00
   21    6    8     -1.60      0.00
   22    6    8      0.33      0.00
   23    6    8      0.53      0.00
   12    7    8     -3.44      0.00
   13    7    8      1.48      0.00
   14    7    8     -0.27      0.00
   15    7    8      1.48      0.00
   16    7    8     -0.39      0.00
   17    7    8      0.02      0.00
   18    7    8      0.27      0.00
   19    7    8      0.53      0.00
    0    8    8      1.53      0.00
    1    8    8     -0.25      0.00
    2    8    8     -0.10      0.00
    3    8    8      1.48      0.00
    4    8    8      1.17      0.00
    5    8    8      1.37      0.00
    6    8    8      0.58      0.00
    7    8    8      0.98      0.00
    8    8    8      1.09      0.00
    9    8    8      0.58      0.00
   10    8    8      0.17      0.00
   11    8    8     -0.34      0.00
   12    8    8      2.70      0.00
   13    8    8     -0.95      0.00
   28    0    9      6.23      0.00
   29    0    9     -0.71      0.00
   30    0    9      0.66      0.00
   31    0    9     -1.34      0.00
   28    1    9     -5.99      0.00
   29    1    9     -0.21      0.00
   30    1    9     -1.06      0.00
   31    1    9      1.03      0.00
   27    2    9     -1.20      0.00
   28    2    9      4.76      0.00
   29    2    9      1.36      0.00
   30    2    9      1.34      0.00
   26    3    9      2.42      0.00
   27    3    9      1.65      0.00
   28    3    9     -2.29      0.00
   29    3    9     -0.77      0.00
   23    4    9     -3.19      0.00
   24    4    9     -0.19      0.00
   25    4    9     -0.64      0.00
   26    4    9     -1.44      0.00
   27    4    9     -0.09      0.00
   21    5    9     -0.42      0.00
   22    5    9      0.29      0.00
   23    5    9      1.22      0.00
   24    5    9      1.85      0.00
   25    5    9      0.27      0.00
   16    6    9     -1.88      0.00
   17    6    9      1.74      0.00
   18    6    9      1.06      0.00
   19    6    9     -0.13      0.00
   20    6    9     -1.26      0.00
   21    6    9      0.18      0.00
   22    6    9      0.33      0.00
   10    7    9     -0.11      0.00
   11    7    9      0.70      0.00
   12    7    9      0.68      0.00
   13    7    9      2.75      0.00
   14    7    9      1.48      0.00
   15    7    9      0.40      0.00
   16    7    9      0.88      0.00
   17    7    9     -0.99      0.00
    0    8    9     -0.83      0.00
    1    8    9      0.46      0.00
    2    8    9     -1.49      0.00
    3    8    9     -0.80      0.00
    4    8    9     -0.98      0.00
    5    8    9     -0.96      0.00
    6    8    9     -2.00      0.00
    7    8    9     -2.34      0.00
    8    8    9      2.04      0.00
    9    8    9      2.24      0.00
   10    8    9     -0.79      0.00
   27    0   10     -4.05      0.00
   28    0   10     -0.27      0.00
   29    0   10      1.64      0.00
   30    0   10      3.21      0.00
   26    1   10     -2.44      0.00
   27    1   10      3.11      0.00
   28    1   10      0.03      0.00
   29    1   10     -0.52      0.00
   30    1   10     -1.96      0.00
   26    2   10     -2.72      0.00
   27    2   10     -1.23      0.00
   28    2   10      0.10      0.00
   29    2   10     -1.25      0.00
   24    3   10      2.28      0.00
   25    3   10      1.00      0.00
   26    3   10      3.82      0.00
   27    3   10      0.28      0.00
   28    3   10      0.19      0.00
   22    4   10     -0.08      0.00
   23    4   10      2.29      0.00
   24    4   10     -0.69      0.00
   25    4   10     -1.09      0.00
   26    4   10     -1.42      0.00
   19    5   10      0.36      0.00
   20    5   10      1.32      0.00
   21    5   10      1.07      0.00
   22    5   10     -1.13      0.00
   23    5   10     -1.10      0.00
   24    5   10     -0.75      0.00
   13    6   10      3.78      0.00
   14    6   10      1.65      0.00
   15    6   10      0.32      0.00
   16    6   10      2.30      0.00
   17    6   10      1.37      0.00
   18    6   10     -0.85      0.00
   19    6   10      0.04      0.00
   20    6   10     -0.65      0.00
    0    7   10      0.12      0.00
    1    7   10     -1.07      0.00
    2    7   10     -1.22      0.00
    3    7   10      2.50      0.00
    4    7   10      0.39      0.00
    5    7   10      0.19      0.00
    6    7   10      2.42      0.00
    7    7   10     -1.45      0.00
    8    7   10     -0.31      0.00
    9    7   10      0.44      0.00
   10    7   10      1.66      0.00
   11    7   10     -3.44      0.00
   12    7   10      3.70      0.00
   13    7   10     -2.57      0.00
   14    7   10     -1.65      0.00
   15    7   10     -0.70      0.00
    0    8   10      0.45      0.00
    1    8   10     -0.24      0.00
    2    8   10      0.90      0.00
    3    8   10     -0.90      0.00
    4    8   10     -0.12      0.00
    5    8   10      0.48      0.00
    6    8   10     -0.27      0.00
   25    0   11      0.44      0.00
   26    0   11     -1.25      0.00
   27    0   11      0.00      0.00
   28    0   11     -1.20      0.00
   29    0   11      0.15      0.00
   25    1   11      0.93      0.00
   26    1   11      0.15      0.00
   27    1   11     -0.54      0.00
   28    1   11      0.90      0.00
   24    2   11      0.42      0.00
   25    2   11     -3.06      0.00
   26    2   11      1.48      0.00
   27    2   11      1.04      0.00
   28    2   11     -0.22      0.00
   23    3   11      0.50      0.00
   24    3   11     -0.25      0.00
   25    3   11      2.86      0.00
   26    3   11     -1.28      0.00
   20    4   11      0.33      0.00
   21    4   11     -0.70      0.00
   22    4   11     -0.13      0.00
   23    4   11      0.93      0.00
   24    4   11      0.18      0.00
   25    4   11     -0.92      0.00
   17    5   11      1.40      0.00
   18    5   11      1.31      0.00
   19    5   11     -1.42      0.00
   20    5   11     -0.57      0.00
   21    5   11     -0.18      0.00
   22    5   11      0.33      0.00
   10    6   11     -0.86      0.00
   11    6   11     -2.66      0.00
   12    6   11      1.74      0.00
   13    6   11      0.13      0.00
   14    6   11     -0.57      0.00
   15    6   11     -1.03      0.00
   16    6   11     -1.06      0.00
   17    6   11     -1.65      0.00
   18    6   11     -0.93      0.00
    0    7   11      0.10      0.00
    1    7   11      0.61      0.00
    2    7   11      1.65      0.00
    3    7   11     -1.90      0.00
    4    7   11      1.33      0.00
    5    7   11     -0.12      0.00
    6    7   11     -1.83      0.00
    7    7   11     -0.60      0.00
    8    7   11      0.53      0.00
    9    7   11      0.49      0.00
   10    7   11     -0.47      0.00
   11    7   11      3.03      0.00
   12    7   11     -1.37      0.00
   13    7   11     -0.40      0.00
   24    0   12      3.49      0.00
   25    0   12      1.03      0.00
   26    0   12     -1.89      0.00
   27    0   12     -0.98      0.00
   23    1   12     -0.43      0.00
   24    1   12     -3.31      0.00
   25    1   12     -1.35      0.00
   26    1   12      1.61      0.00
   27    1   12      0.70      0.00
   22    2   12      1.42      0.00
   23    2   12      4.56      0.00
   24    2   12      2.80      0.00
   25    2   12      1.90      0.00
   26    2   12     -0.93      0.00
   21    3   12     -0.77      0.00
   22    3   12     -2.20      0.00
   23    3   12     -3.97      0.00
   24    3   12     -1.76      0.00
   25    3   12     -1.68      0.00
   18    4   12     -1.98      0.00
   19    4   12     -1.13      0.00
   20    4   12     -1.07      0.00
   21    4   12      1.54      0.00
   22    4   12      1.78      0.00
   23    4   12      0.49      0.00
   14    5   12      1.03      0.00
   15    5   12      0.03      0.00
   16    5   12     -1.12      0.00
   17    5   12     -0.58      0.00
   18    5   12      0.81      0.00
   19    5   12      0.29      0.00
   20    5   12      1.19      0.00
    0    6   12      3.10      0.00
    6    6   12      0.73      0.00
    7    6   12      0.88      0.00
    8    6   12      0.42      0.00
    9    6   12     -1.78      0.00
   10    6   12      2.98      0.00
   11    6   12     -0.03      0.00
   12    6   12      0.23      0.00
   13    6   12     -0.60      0.00
   14    6   12     -1.07      0.00
   15    6   12      0.67      0.00
   16    6   12      1.34      0.00
    0    7   12     -0.92      0.00
    1    7   12     -0.64      0.00
    2    7   12      1.15      0.00
    3    7   12     -0.68      0.00
    4    7   12     -2.53      0.00
    5    7   12      0.55      0.00
    6    7   12     -0.32      0.00
    7    7   12      0.02      0.00
    8    7   12     -0.81      0.00
    9    7   12      1.08      0.00
   22    0   13     -5.23      0.00
   23    0   13      1.76      0.00
   24    0   13     -1.64      0.00
   25    0   13     -1.04      0.00
   26    0   13     -1.09      0.00
   21    1   13      0.64      0.00
   22    1   13      3.61      0.00
   23    1   13     -0.73      0.00
   24    1   13      1.61      0.00
   25    1   13      0.49      0.00
   20    2   13     -2.71      0.00
   21    2   13      0.03      0.00
   22    2   13     -0.80      0.00
   23    2   13     -0.89      0.00
   24    2   13     -1.47      0.00
   25    2   13      0.11      0.00
   18    3   13     -0.42      0.00
   19    3   13     -3.16      0.00
   20    3   13      3.05      0.00
   21    3   13      0.55      0.00
   22    3   13     -0.55      0.00
   23    3   13      1.15      0.00
   15    4   13      0.62      0.00
   16    4   13      1.05      0.00
   17    4   13     -0.62      0.00
   18    4   13      0.45      0.00
   19    4   13      0.92      0.00
   20    4   13     -1.48      0.00
   21    4   13     -0.82      0.00
   10    5   13      1.89      0.00
   11    5   13      0.84      0.00
   12    5   13     -0.29      0.00
   13    5   13      0.68      0.00
   14    5   13      2.11      0.00
   15    5   13     -1.00      0.00
   16    5   13     -0.73      0.00
   17    5   13      1.15      0.00
   18    5   13     -0.21      0.00
    0    6   13      1.05      0.00
    1    6   13     -4.15      0.00
    2    6   13      3.20      0.00
    3    6   13      0.78      0.00
    4    6   13     -0.55      0.00
    5    6   13     -0.46      0.00
    6    6   13     -0.15      0.00
    7    6   13     -1.75      0.00
    8    6   13     -1.25      0.00
    9    6   13      1.21      0.00
   10    6   13     -2.01      0.00
   11    6   13     -0.72      0.00
   12    6   13     -0.40      0.00
   13    6   13     -0.02      0.00
    0    7   13     -1.43      0.00
   19    0   14     -2.00      0.00
   20    0   14     -2.96      0.00
   21    0   14      2.91      0.00
   22    0   14      0.09      0.00
   23    0   14      1.14      0.00
   24    0   14      0.17      0.00
   16    1   14      2.08      0.00
   17    1   14      0.51      0.00
   18    1   14      2.79      0.00
   19    1   14      2.81      0.00
   20    1   14      3.12      0.00
   21    1   14     -1.99      0.00
   22    1   14     -0.24      0.00
   23    1   14     -0.66      0.00
   17    2   14     -0.65      0.00
   18    2   14     -1.42      0.00
   19    2   14     -3.51      0.00
   20    2   14     -2.89      0.00
   21    2   14      0.52      0.00
   22    2   14      0.41      0.00
   15    3   14     -0.02      0.00
   16    3   14      3.50      0.00
   17    3   14      1.40      0.00
   18    3   14      0.26      0.00
   19    3   14      2.43      0.00
   20    3   14      1.59      0.00
   21    3   14     -0.36      0.00
   12    4   14      0.81      0.00
   13    4   14     -1.13      0.00
   14    4   14      1.01      0.00
   15    4   14      1.50      0.00
   16    4   14     -0.07      0.00
   17    4   14     -1.16      0.00
   18    4   14     -0.06      0.00
   19    4   14     -0.71      0.00
    0    5   14     -1.08      0.00
    1    5   14     -1.48      0.00
    2    5   14      0.63      0.00
    3    5   14      1.45      0.00
    4    5   14      0.33      0.00
    5    5   14     -0.88      0.00
    6    5   14     -1.78      0.00
    7    5   14     -1.36      0.00
    8    5   14     -2.22      0.00
    9    5   14     -0.02      0.00
   10    5   14     -0.31      0.00
   11    5   14     -1.63      0.00
   12    5   14     -0.29      0.00
   13    5   14      1.17      0.00
   14    5   14     -1.09      0.00
   15    5   14     -1.31      0.00
    0    6   14     -0.14      0.00
    1    6   14      0.65      0.00
    2    6   14      0.43      0.00
    3    6   14     -0.04      0.00
    4    6   14     -1.35      0.00
    5    6   14      0.64      0.00
    6    6   14     -0.06      0.00
    7    6   14      1.62      0.00
    8    6   14      2.19      0.00
    9    6   14     -0.33      0.00
   16    0   15      2.37      0.00
   17    0   15     -0.36      0.00
   18    0   15      1.57      0.00
   19    0   15      0.17      0.00
   20    0   15      2.67      0.00
   21    0   15     -2.31      0.00
   15    1   15      0.53      0.00
   16    1   15     -3.89      0.00
   17    1   15     -0.20      0.00
   18    1   15     -1.67      0.00
   19    1   15     -0.16      0.00
   20    1   15     -2.19      0.00
   21    1   15      1.51      0.00
   14    2   15     -1.21      0.00
   15    2   15     -2.73      0.00
   16    2   15      5.54      0.00
   17    2   15      1.31      0.00
   18    2   15      1.67      0.00
   19    2   15     -0.10      0.00
   20    2   15      1.23      0.00
   11    3   15      1.04      0.00
   12    3   15      1.27      0.00
   13    3   15      0.37      0.00
   14    3   15      0.71      0.00
   15    3   15      2.06      0.00
   16    3   15     -3.70      0.00
   17    3   15     -1.50      0.00
   18    3   15     -1.16      0.00
    0    4   15     -4.85      0.00
    1    4   15      1.89      0.00
    2    4   15      1.12      0.00
    3    4   15      0.04      0.00
    4    4   15     -2.33      0.00
    5    4   15      1.33      0.00
    6    4   15     -4.39      0.00
    7    4   15      0.15      0.00
    8    4   15      1.46      0.00
    9    4   15     -1.28      0.00
   10    4   15     -1.29      0.00
   11    4   15      0.11      0.00
   12    4   15     -1.57      0.00
   13    4   15     -0.38      0.00
   14    4   15      0.62      0.00
   15    4   15      0.01      0.00
   16    4   15      0.40      0.00
    0    5   15      3.13      0.00
    1    5   15     -0.43      0.00
    2    5   15     -0.71      0.00
    3    5   15      0.46      0.00
    4    5   15      1.72      0.00
    5    5   15      0.11      0.00
    6    5   15      2.68      0.00
    7    5   15      0.66      0.00
    8    5   15     -1.42      0.00
    9    5   15      0.61      0.00
   10    5   15      0.33      0.00
   11    5   15     -0.55      0.00
   12    0   16     -2.88      0.00
   13    0   16     -0.53      0.00
   14    0   16     -0.88      0.00
   15    0   16     -0.93      0.00
   16    0   16      0.20      0.00
   17    0   16     -0.98      0.00
   18    0   16     -3.05      0.00
   19    0   16      1.16      0.00
   11    1   16     -0.13      0.00
   12    1   16      1.61      0.00
   13    1   16     -0.50      0.00
   14    1   16      0.34      0.00
   15    1   16      0.30      0.00
   16    1   16      0.12      0.00
   17    1   16      0.51      0.00
   18    1   16      2.26      0.00
    0    2   16      1.37      0.00
    1    2   16     -1.95      0.00
    7    2   16     -2.19      0.00
    8    2   16      1.79      0.00
    9    2   16     -0.29      0.00
   10    2   16     -0.52      0.00
   11    2   16      2.63      0.00
   12    2   16      0.28      0.00
   13    2   16      2.19      0.00
   14    2   16      0.43      0.00
   15    2   16      0.72      0.00
   16    2   16     -0.42      0.00
   17    2   16      0.19      0.00
    0    3   16     -4.49      0.00
    1    3   16      0.65      0.00
    2    3   16      1.33      0.00
    3    3   16      1.87      0.00
    4    3   16     -3.53      0.00
    5    3   16     -0.99      0.00
    6    3   16     -2.34      0.00
    7    3   16      2.14      0.00
    8    3   16     -0.42      0.00
    9    3   16     -0.26      0.00
   10    3   16     -0.08      0.00
   11    3   16     -1.86      0.00
   12    3   16     -0.54      0.00
   13    3   16     -2.16      0.00
   14    3   16     -0.35      0.00
   15    3   16     -0.75      0.00
    0    4   16      4.64      0.00
    1    4   16      0.74      0.00
    2    4   16     -2.42      0.00
    3    4   16     -0.88      0.00
    4    4   16      1.68      0.00
    5    4   16     -0.09      0.00
    6    4   16      1.73      0.00
    7    4   16     -0.57      0.00
    8    4   16     -1.19      0.00
    9    4   16      0.10      0.00
   10    4   16      0.17      0.00
   11    4   16     -0.49      0.00
   12    4   16     -0.22      0.00
    0    5   16     -1.82      0.00
    1    5   16     -0.68      0.00
    2    5   16      1.83      0.00
    3    5   16      0.15      0.00
    4    5   16     -0.81      0.00
    0    0   17     -2.62      0.00
    1    0   17     -0.59      0.00
    2    0   17      2.31      0.00
    4    0   17      2.33      0.00
    5    0   17      4.44      0.00
    6    0   17      0.72      0.00
    7    0   17     -0.73      0.00
    8    0   17     -5.25      0.00
    9    0   17     -3.82      0.00
   10    0   17      0.26      0.00
   11    0   17      4.21      0.00
   12    0   17      2.03      0.00
   13    0   17      1.79      0.00
   14    0   17     -0.90      0.00
   15    0   17      3.09      0.00
    0    1   17      2.84      0.00
    1    1   17     -0.30      0.00
    2    1   17     -1.40      0.00
    3    1   17      0.34      0.00
    4    1   17     -0.72      0.00
    5    1   17     -1.90      0.00
    6    1   17      0.35      0.00
    7    1   17      1.23      0.00
    8    1   17      3.39      0.00
    9    1   17      2.07      0.00
   10    1   17     -0.94      0.00
   11    1   17     -2.62      0.00
   12    1   17     -1.13      0.00
   13    1   17     -1.25      0.00
   14    1   17      0.85      0.00
   15    1   17     -2.27      0.00
    0    2   17     -2.16      0.00
    1    2   17      1.37      0.00
    2    2   17      0.06      0.00
    3    2   17      1.39      0.00
    4    2   17     -1.64      0.00
    5    2   17     -1.83      0.00
    6    2   17     -2.00      0.00
    7    2   17     -1.76      0.00
    8    2   17     -0.32      0.00
    9    2   17      0.89      0.00
   10    2   17      1.76      0.00
   11    2   17     -0.22      0.00
   12    2   17     -0.19      0.00
   13    2   17      0.20      0.00
    0    3   17     -0.24      0.00
    1    3   17     -0.90      0.00
    2    3   17     -0.03      0.00
    3    3   17     -1.05      0.00
    4    3   17      1.50      0.00
    5    3   17      1.78      0.00
    6    3   17      2.04      0.00
    7    3   17      1.19      0.00
    8    3   17     -0.76      0.00
    9    3   17     -1.56      0.00
   10    3   17     -1.48      0.00
   11    3   17      1.27      0.00
    0    4   17      1.91      0.00
    1    4   17     -0.12      0.00
    2    4   17      0.83      0.00
    3    4   17     -0.31      0.00
    4    4   17      0.00      0.00
    5    4   17      0.20      0.00
    0    0   18     -0.71      0.00
    1    0   18      2.05      0.00
    2    0   18     -0.26      0.00
    3    0   18      1.76      0.00
    4    0   18     -1.01      0.00
    5    0   18     -1.40      0.00
    6    0   18     -1.00      0.00
    7    0   18      0.16      0.00
    8    0   18      0.36      0.00
    9    0   18      2.18      0.00
   10    0   18     -0.29      0.00
   11    0   18     -0.02      0.00
    0    1   18      0.10      0.00
    1    1   18     -1.40      0.00
    2    1   18     -0.01      0.00
    3    1   18     -1.58      0.00
    4    1   18      1.11      0.00
    5    1   18      0.61      0.00
    6    1   18      0.63      0.00
    7    1   18     -0.06      0.00
    8    1   18     -0.29      0.00
    9    1   18     -1.44      0.00
   10    1   18     -0.04      0.00
    0    2   18      0.42      0.00
    1    2   18      0.17      0.00
    2    2   18      0.26      0.00
    3    2   18      0.94      0.00
    4    2   18     -1.05      0.00
    5    2   18      0.59      0.00
    6    2   18     -0.05      0.00
    7    2   18     -0.02      0.00
    8    2   18      0.39      0.00
    0    0    0      0.00      0.00
# SQUEEZE RESULTS (Version = 290617)
# Note: Data are Listed for all Voids in the P1 Unit Cell
# i.e. Centre of Gravity, Solvent Accessible Volume,
# Recovered number of Electrons in the Void and
# Details about the Squeezed Material
loop_
  _platon_squeeze_void_nr
  _platon_squeeze_void_average_x
  _platon_squeeze_void_average_y
  _platon_squeeze_void_average_z
  _platon_squeeze_void_volume
  _platon_squeeze_void_count_electrons
  _platon_squeeze_void_content
   1 -0.005  0.500  0.500      1296       231 ' '
# Missing Reflections Below sin(th)/lambda = 0.25
loop_
  _platon_missing_refln_index_h
  _platon_missing_refln_index_k
  _platon_missing_refln_index_l
  _platon_missing_refln_theta
    2    0    0     3.219
    0    1    0     6.006
    0    2    0    12.079
    0    3    0    18.293
    0    0    1     3.051
    7    0    1    11.749
    0    1    1     6.741
    0    2    1    12.469
    0    3    1    18.564
    6    0    2    11.495
    1    1    2     8.736
    2    1    2     9.176
    1    2    2    13.677
    2    2    2    13.969
    2    1    3    11.478
_platon_squeeze_void_probe_radius                  1.20
_platon_squeeze_details
)
TITL exp_4315_a.res in Pmma
CELL   27.4566    7.3683   14.4844     90.00     90.00     90.00
SPGR Pmma
# Solvent Accessible Volume =      1281
# Electrons Found in S.A.V. =       226
# Note: Atoms in Void are Labelled as Cxxx and Qxxx for all Others
C101 0.750 0.501 0.344 !       4.31 eA-3
C102 0.676 0.507 0.422 !       3.51 eA-3
C103 0.250 0.519 0.484 !       2.86 eA-3
C104 0.585 0.496 0.406 !       2.79 eA-3
C105 0.563 0.510 0.391 !       2.55 eA-3
C106 0.997 0.495 0.250 !       2.45 eA-3
C107 0.294 0.491 0.656 !       2.28 eA-3
C108 0.681 0.504 0.734 !       2.25 eA-3
Q109 0.124 0.354 0.922 !       2.24 eA-3
C110 0.632 0.510 0.375 !       2.22 eA-3
Q111 0.434 0.830 0.534 !       2.14 eA-3
Q112 0.186 0.840 0.360 !       2.13 eA-3
C113 0.401 0.482 0.484 !       2.04 eA-3
C114 0.722 0.506 0.422 !       1.87 eA-3
C115 0.201 0.491 0.500 !       1.87 eA-3
C116 0.237 0.494 0.203 !       1.86 eA-3
C117 0.948 0.511 0.281 !       1.78 eA-3
C118 0.250 0.512 0.094 !       1.75 eA-3
C119 0.040 0.497 0.266 !       1.69 eA-3
C120 0.993 0.494 0.422 !       1.62 eA-3
C121 0.509 0.506 0.359 !       1.57 eA-3
C122 0.460 0.496 0.391 !       1.53 eA-3
Q123 0.625 0.517 0.125 !       1.48 eA-3
Q124 0.812 0.210 0.166 !       1.46 eA-3
C125 0.415 0.490 0.281 !       1.35 eA-3
Q126 0.375 0.949 0.919 !       1.34 eA-3
Q127 0.334 0.506 0.922 !       1.34 eA-3
C128 0.145 0.507 0.219 !       1.33 eA-3
Q129 0.445 0.203 0.044 !       1.15 eA-3
C130 0.357 0.509 0.469 !       1.08 eA-3
Q131 0.076 0.498 0.938 !       1.05 eA-3
C132 0.046 0.496 0.203 !       0.97 eA-3
Q133 0.873 0.161 0.078 !       0.97 eA-3
Q134 0.798 0.830 0.073 !       0.95 eA-3
C135 0.380 0.505 0.141 !       0.88 eA-3
Q136 0.148 0.901 0.415 !       0.87 eA-3
Q137 0.952 1.000 0.344 !       0.81 eA-3
C138 0.083 0.504 0.359 !       0.80 eA-3
Q139 0.742 0.994 0.297 !       0.80 eA-3
Q140 0.048 0.201 0.951 !       0.78 eA-3
Q141 0.878 0.501 0.906 !       0.77 eA-3
C142 0.063 0.505 0.516 !       0.77 eA-3
Q143 0.737 0.493 0.141 !       0.77 eA-3
Q144 0.829 0.730 0.137 !       0.76 eA-3
Q145 0.568 1.014 0.172 !       0.73 eA-3
C146 0.380 0.490 0.406 !       0.72 eA-3
Q147 0.030 0.490 0.094 !       0.71 eA-3
Q148 0.805 0.275 0.501 !       0.71 eA-3
Q149 0.250 0.380 0.074 !       0.70 eA-3
Q150 0.858 0.917 0.661 !       0.70 eA-3
C151 0.022 0.496 0.500 !       0.67 eA-3
Q152 0.018 0.978 0.344 !       0.66 eA-3
Q153 0.398 0.898 0.450 !       0.65 eA-3
C154 0.750 0.506 0.250 !       0.64 eA-3
Q155 0.015 0.513 0.922 !       0.61 eA-3
C156 0.518 0.494 0.844 !       0.60 eA-3
C157 0.416 0.503 0.156 !       0.60 eA-3
Q158 0.448 1.009 0.313 !       0.60 eA-3
Q159 0.250 0.686 0.159 !       0.60 eA-3
Q160 0.021 1.003 0.141 !       0.59 eA-3
Q161 0.625 0.499 0.984 !       0.59 eA-3
Q162 0.359 0.575 0.012 !       0.59 eA-3
Q163 0.691 1.004 0.578 !       0.58 eA-3
Q164 0.280 1.003 0.016 !       0.58 eA-3
Q165 0.710 0.495 0.250 !       0.57 eA-3
Q166 0.827 0.997 0.969 !       0.57 eA-3
Q167 0.051 0.491 0.828 !       0.56 eA-3
Q168 0.667 0.429 0.017 !       0.56 eA-3
Q169 0.376 0.676 0.499 !       0.56 eA-3
Q170 0.204 1.002 0.547 !       0.55 eA-3
Q171 0.943 0.723 0.358 !       0.55 eA-3
Q172 0.782 0.493 0.031 !       0.55 eA-3
Q173 0.217 0.700 0.327 !       0.55 eA-3
Q174 0.609 0.460 0.970 !       0.54 eA-3
Q175 0.829 0.737 0.497 !       0.53 eA-3
Q176 0.789 0.276 0.954 !       0.53 eA-3
Q177 0.648 0.297 0.326 !       0.53 eA-3
Q178 0.305 0.999 0.203 !       0.52 eA-3
Q179 0.815 0.322 0.658 !       0.52 eA-3
Q180 0.503 0.707 0.296 !       0.51 eA-3
C181 0.750 0.550 0.670 !       0.51 eA-3
Q182 0.404 0.315 0.271 !       0.50 eA-3
)
;
_shelx_fab_checksum              34578
loop_
_space_group_symop_operation_xyz
'x, y, z'
'-x+1/2, -y, z'
'-x, y, -z'
'x+1/2, -y, -z'
'-x, -y, -z'
'x-1/2, y, -z'
'x, -y, z'
'-x-1/2, y, z'
loop_
_atom_site_label
_atom_site_type_symbol
_atom_site_fract_x
_atom_site_fract_y
_atom_site_fract_z
_atom_site_U_iso_or_equiv
_atom_site_adp_type
_atom_site_occupancy
_atom_site_site_symmetry_order
_atom_site_calc_flag
_atom_site_refinement_flags_posn
_atom_site_refinement_flags_adp
_atom_site_refinement_flags_occupancy
Pt1 Pt 0.62278(2) 0.5000 1.06475(2) 0.02027(18) Uani 1 2 d S T P
Fe2 Fe 0.5000 0.0000 1.0000 0.0160(4) Uani 1 4 d S T P
Fe1 Fe 0.7500 1.0000 1.13027(12) 0.0229(4) Uani 1 4 d S T P
N12 N 0.5508(2) 0.1978(9) 1.0036(6) 0.0602(16) Uani 1 1 d . U .
C25 C 0.5770(3) 0.3064(11) 1.0249(7) 0.0544(17) Uani 1 1 d . U .
N11 N 0.6964(3) 0.7956(10) 1.1260(7) 0.0735(19) Uani 1 1 d . U .
C4 C 0.7500 1.0000 0.8248(9) 0.042(2) Uani 1 4 d S TU P
C24 C 0.6686(3) 0.6885(12) 1.1053(8) 0.066(2) Uani 1 1 d . U .
C9 C 0.7500 1.0000 0.4352(8) 0.040(2) Uani 1 4 d S TU P
N6 N 0.5199(5) 0.0000 0.8652(11) 0.0357(17) Uani 0.5 2 d S TU P
N5 N 0.7336(5) 1.0000 0.2736(10) 0.037(2) Uani 0.5 2 d S TU P
C3 C 0.7020(7) 1.0000 0.7958(12) 0.042(2) Uani 0.5 2 d S TU P
C2 C 0.6648(7) 1.0000 0.8628(12) 0.040(2) Uani 0.5 2 d S TU P
C22 C 0.4348(7) 0.0000 0.8243(13) 0.0353(18) Uani 0.5 2 d S TU P
N1 N 0.7246(5) 1.0000 0.9819(9) 0.033(3) Uani 0.5 2 d S TU P
N4 N 0.7179(6) 1.0000 0.6269(10) 0.044(2) Uani 0.5 2 d S TU P
C11 C 0.6870(7) 1.0000 0.2959(12) 0.038(2) Uani 0.5 2 d S TU P
N10 N 0.4696(6) 0.0000 0.4910(11) 0.042(2) Uani 0.5 2 d S TU P
C13 C 0.5669(7) 0.0000 0.8383(13) 0.0363(19) Uani 0.5 2 d S TU P
C6 C 0.6859(7) 1.0000 0.6996(13) 0.045(2) Uani 0.5 2 d S TU P
C20 C 0.4561(7) 0.0000 0.6626(13) 0.0387(18) Uani 0.5 2 d S TU P
C8 C 0.7048(7) 1.0000 0.4610(13) 0.041(2) Uani 0.5 2 d S TU P
C7 C 0.6879(8) 1.0000 0.5528(13) 0.044(2) Uani 0.5 2 d S TU P
C14 C 0.5813(7) 0.0000 0.7488(13) 0.037(2) Uani 0.5 2 d S TU P
C21 C 0.4197(7) 0.0000 0.7299(13) 0.037(2) Uani 0.5 2 d S TU P
C15 C 0.5456(7) 0.0000 0.6766(13) 0.037(2) Uani 0.5 2 d S TU P
C19 C 0.4400(8) 0.0000 0.4188(13) 0.044(2) Uani 0.5 2 d S TU P
C18 C 0.4389(8) 0.0000 0.5645(12) 0.042(2) Uani 0.5 2 d S TU P
C1 C 0.6792(7) 1.0000 0.9567(12) 0.036(2) Uani 0.5 2 d S TU P
C12 C 0.6699(7) 1.0000 0.3884(12) 0.039(2) Uani 0.5 2 d S TU P
N9 N 0.3945(7) 0.0000 0.4492(11) 0.047(2) Uani 0.5 2 d S TU P
N3 N 0.6436(7) 1.0000 0.5790(11) 0.049(2) Uani 0.5 2 d S TU P
N2 N 0.6391(7) 1.0000 0.6736(11) 0.049(2) Uani 0.5 2 d S TU P
N8 N 0.3931(7) 0.0000 0.5447(12) 0.047(2) Uani 0.5 2 d S TU P
C10 C 0.7327(7) 1.0000 0.3399(13) 0.039(2) Uani 0.5 2 d S TU P
C16 C 0.5002(4) 0.0000 0.6969(7) 0.0396(15) Uani 1 2 d S TU P
N7 N 0.4800(6) 0.0000 0.8489(13) 0.0358(17) Uani 0.5 2 d S TU P
C23 C 0.5145(7) 0.0000 0.7824(13) 0.0374(16) Uani 0.5 2 d S TU P
C17 C 0.4860(8) 0.0000 0.8025(16) 0.0366(16) Uani 0.5 2 d S TU P
C5 C 0.7413(7) 1.0000 0.9190(11) 0.042(3) Uani 0.5 2 d S TU P
loop_
_atom_site_aniso_label
_atom_site_aniso_U_11
_atom_site_aniso_U_22
_atom_site_aniso_U_33
_atom_site_aniso_U_23
_atom_site_aniso_U_13
_atom_site_aniso_U_12
Pt1 0.0139(2) 0.0171(2) 0.0298(3) 0.000 -0.00423(12) 0.000
Fe2 0.0122(8) 0.0167(8) 0.0190(8) 0.000 -0.0036(7) 0.000
Fe1 0.0350(11) 0.0173(9) 0.0164(9) 0.000 0.000 0.000
N12 0.033(3) 0.034(3) 0.113(4) -0.014(3) -0.030(3) 0.004(2)
C25 0.029(3) 0.032(3) 0.102(4) -0.008(3) -0.027(3) 0.007(3)
N11 0.054(3) 0.038(3) 0.129(5) -0.003(3) -0.052(3) -0.004(3)
C4 0.026(5) 0.082(6) 0.019(4) 0.000 0.000 0.000
C24 0.045(3) 0.035(3) 0.119(5) 0.000(4) -0.048(4) 0.000(3)
C9 0.026(4) 0.074(5) 0.021(4) 0.000 0.000 0.000
N6 0.021(3) 0.060(4) 0.026(3) 0.000 -0.003(3) 0.000
N5 0.025(4) 0.066(5) 0.019(4) 0.000 0.002(3) 0.000
C3 0.026(4) 0.081(5) 0.019(4) 0.000 -0.001(3) 0.000
C2 0.024(4) 0.076(5) 0.018(4) 0.000 -0.001(4) 0.000
C22 0.020(3) 0.061(4) 0.024(4) 0.000 -0.003(3) 0.000
N1 0.019(5) 0.068(7) 0.013(5) 0.000 0.001(4) 0.000
N4 0.027(4) 0.086(5) 0.018(4) 0.000 -0.001(3) 0.000
C11 0.025(4) 0.070(5) 0.020(4) 0.000 0.001(3) 0.000
N10 0.023(4) 0.080(5) 0.024(4) 0.000 -0.005(4) 0.000
C13 0.021(3) 0.060(4) 0.027(4) 0.000 -0.003(3) 0.000
C6 0.028(4) 0.087(5) 0.020(3) 0.000 0.000(3) 0.000
C20 0.024(3) 0.068(4) 0.024(3) 0.000 -0.004(3) 0.000
C8 0.026(4) 0.077(5) 0.019(3) 0.000 0.000(3) 0.000
C7 0.028(4) 0.085(5) 0.020(3) 0.000 0.001(3) 0.000
C14 0.022(4) 0.061(5) 0.028(4) 0.000 -0.004(4) 0.000
C21 0.022(4) 0.065(5) 0.023(4) 0.000 -0.003(4) 0.000
C15 0.023(4) 0.062(5) 0.028(4) 0.000 -0.005(4) 0.000
C19 0.024(4) 0.083(6) 0.025(4) 0.000 -0.003(4) 0.000
C18 0.024(4) 0.078(5) 0.025(4) 0.000 -0.003(3) 0.000
C1 0.021(4) 0.071(6) 0.016(4) 0.000 -0.001(4) 0.000
C12 0.025(4) 0.073(5) 0.019(4) 0.000 0.001(3) 0.000
N9 0.027(4) 0.087(6) 0.027(4) 0.000 -0.003(4) 0.000
N3 0.031(4) 0.093(5) 0.022(4) 0.000 0.000(4) 0.000
N2 0.032(4) 0.094(5) 0.022(4) 0.000 0.000(4) 0.000
N8 0.028(4) 0.085(5) 0.027(4) 0.000 -0.003(4) 0.000
C10 0.026(4) 0.070(5) 0.021(4) 0.000 0.000(3) 0.000
C16 0.024(3) 0.065(4) 0.029(3) 0.000 -0.006(3) 0.000
N7 0.021(3) 0.061(4) 0.026(3) 0.000 -0.004(3) 0.000
C23 0.023(3) 0.062(4) 0.028(3) 0.000 -0.003(3) 0.000
C17 0.022(3) 0.061(4) 0.027(3) 0.000 -0.004(3) 0.000
C5 0.026(6) 0.081(6) 0.018(5) 0.000 -0.004(4) 0.000
loop_
_atom_type_symbol
_atom_type_description
_atom_type_scat_dispersion_real
_atom_type_scat_dispersion_imag
_atom_type_scat_source
C C 0.0181 0.0091 'International Tables Vol C Tables 4.2.6.8 and 6.1.1.4'
Fe Fe -1.1336 3.1974 'International Tables Vol C Tables 4.2.6.8 and 6.1.1.4'
N N 0.0311 0.0180 'International Tables Vol C Tables 4.2.6.8 and 6.1.1.4'
Pt Pt -4.5932 6.9264 'International Tables Vol C Tables 4.2.6.8 and 6.1.1.4'
loop_
_geom_angle_atom_site_label_1
_geom_angle_atom_site_label_2
_geom_angle_atom_site_label_3
_geom_angle
_geom_angle_site_symmetry_1
_geom_angle_site_symmetry_3
C24 Pt1 C24 90.0(5) 7_565 .
C24 Pt1 C25 179.1(3) 7_565 7_565
C24 Pt1 C25 89.1(3) . 7_565
C24 Pt1 C25 89.1(3) 7_565 .
C24 Pt1 C25 179.1(3) . .
C25 Pt1 C25 91.8(4) 7_565 .
N12 Fe2 N12 180.0 . 5_657
N12 Fe2 N12 92.5(4) . 7
N12 Fe2 N12 87.5(4) 5_657 7
N12 Fe2 N12 87.5(4) . 3_657
N12 Fe2 N12 92.5(4) 5_657 3_657
N12 Fe2 N12 180.0(5) 7 3_657
N12 Fe2 N6 99.3(4) . 5_657
N12 Fe2 N6 80.7(4) 5_657 5_657
N12 Fe2 N6 99.3(4) 7 5_657
N12 Fe2 N6 80.7(4) 3_657 5_657
N12 Fe2 N6 80.7(4) . .
N12 Fe2 N6 99.3(4) 5_657 .
N12 Fe2 N6 80.7(4) 7 .
N12 Fe2 N6 99.3(4) 3_657 .
N6 Fe2 N6 180.0 5_657 .
N12 Fe2 N7 78.9(4) . 5_657
N12 Fe2 N7 101.1(4) 5_657 5_657
N12 Fe2 N7 78.9(4) 7 5_657
N12 Fe2 N7 101.1(4) 3_657 5_657
N6 Fe2 N7 29.7(6) 5_657 5_657
N6 Fe2 N7 150.3(6) . 5_657
N12 Fe2 N7 101.1(4) . .
N12 Fe2 N7 78.9(4) 5_657 .
N12 Fe2 N7 101.1(4) 7 .
N12 Fe2 N7 78.9(4) 3_657 .
N6 Fe2 N7 150.3(6) 5_657 .
N6 Fe2 N7 29.7(6) . .
N7 Fe2 N7 180.0 5_657 .
N11 Fe1 N11 176.6(6) . 2_675
N11 Fe1 N11 88.6(4) . 8_755
N11 Fe1 N11 91.3(4) 2_675 8_755
N11 Fe1 N11 91.3(4) . 7_575
N11 Fe1 N11 88.6(4) 2_675 7_575
N11 Fe1 N11 176.6(6) 8_755 7_575
N11 Fe1 N5 100.2(4) . 2_676
N11 Fe1 N5 83.2(4) 2_675 2_676
N11 Fe1 N5 83.2(4) 8_755 2_676
N11 Fe1 N5 100.2(4) 7_575 2_676
N11 Fe1 N5 83.2(4) . 1_556
N11 Fe1 N5 100.2(4) 2_675 1_556
N11 Fe1 N5 100.2(4) 8_755 1_556
N11 Fe1 N5 83.2(4) 7_575 1_556
N5 Fe1 N5 24.4(8) 2_676 1_556
N11 Fe1 N1 75.9(4) . .
N11 Fe1 N1 100.8(4) 2_675 .
N11 Fe1 N1 100.8(4) 8_755 .
N11 Fe1 N1 75.9(4) 7_575 .
N5 Fe1 N1 174.2(5) 2_676 .
N5 Fe1 N1 149.8(5) 1_556 .
N11 Fe1 N1 100.8(4) . 2_675
N11 Fe1 N1 75.9(4) 2_675 2_675
N11 Fe1 N1 75.9(4) 8_755 2_675
N11 Fe1 N1 100.8(4) 7_575 2_675
N5 Fe1 N1 149.8(5) 2_676 2_675
N5 Fe1 N1 174.2(5) 1_556 2_675
N1 Fe1 N1 35.9(7) . 2_675
C25 N12 Fe2 165.4(9) . .
N12 C25 Pt1 179.0(10) . .
C24 N11 Fe1 166.4(11) . .
C5 C4 C5 20.0(16) . 2_675
C5 C4 C3 117.6(12) . 2_675
C5 C4 C3 97.7(12) 2_675 2_675
C5 C4 C3 97.7(12) . .
C5 C4 C3 117.6(12) 2_675 .
C3 C4 C3 144.7(18) 2_675 .
N11 C24 Pt1 177.2(12) . .
C8 C9 C8 146(2) 2_675 .
C8 C9 C10 125.7(13) 2_675 .
C8 C9 C10 87.8(12) . .
C8 C9 C10 87.8(12) 2_675 2_675
C8 C9 C10 125.7(13) . 2_675
C10 C9 C10 37.9(15) . 2_675
N7 N6 C23 70.7(16) . .
N7 N6 C17 32.1(11) . .
C23 N6 C17 38.6(13) . .
N7 N6 C13 151.0(19) . .
C23 N6 C13 80.3(15) . .
C17 N6 C13 118.9(18) . .
N7 N6 Fe2 86.6(13) . .
C23 N6 Fe2 157.2(15) . .
C17 N6 Fe2 118.7(15) . .
C13 N6 Fe2 122.5(12) . .
N5 N5 C10 91.4(14) 2_675 .
N5 N5 C11 165.8(10) 2_675 .
C10 N5 C11 74.3(16) . .
N5 N5 C10 46.1(10) 2_675 2_675
C10 N5 C10 45.3(18) . 2_675
C11 N5 C10 119.7(15) . 2_675
N5 N5 Fe1 77.8(4) 2_675 1_554
C10 N5 Fe1 169.2(16) . 1_554
C11 N5 Fe1 116.4(12) . 1_554
C10 N5 Fe1 123.9(12) 2_675 1_554
C4 C3 C2 118.9(16) . .
C4 C3 C6 125.3(17) . .
C2 C3 C6 115.9(17) . .
C3 C2 C1 117.3(17) . .
N7 C22 C21 122.9(18) . .
N7 C22 C17 28.7(9) . .
C21 C22 C17 94.2(16) . .
C5 N1 C1 100.4(16) . .
C5 N1 C5 19.2(16) . 2_675
C1 N1 C5 119.6(15) . 2_675
C5 N1 N1 63.3(13) . 2_675
C1 N1 N1 163.7(10) . 2_675
C5 N1 N1 44.1(10) 2_675 2_675
C5 N1 Fe1 135.4(15) . .
C1 N1 Fe1 124.3(12) . .
C5 N1 Fe1 116.2(12) 2_675 .
N1 N1 Fe1 72.0(4) 2_675 .
C7 N4 C6 102.7(16) . .
C7 N4 N4 127.5(11) . 2_675
C6 N4 N4 129.8(10) . 2_675
N5 C11 C10 41.1(11) . .
N5 C11 C12 123.5(17) . .
C10 C11 C12 82.4(14) . .
C19 N10 C18 103.8(16) . .
C19 N10 N10 136.7(19) . 5_656
C18 N10 N10 119.5(17) . 5_656
N6 C13 C14 123.8(17) . .
N6 C13 C23 46.2(11) . .
C14 C13 C23 77.6(14) . .
N2 C6 N4 113.4(17) . .
N2 C6 C3 123.9(18) . .
N4 C6 C3 122.6(18) . .
C16 C20 C21 113.4(15) . .
C16 C20 C18 130.7(17) . .
C21 C20 C18 115.9(17) . .
C9 C8 C7 126.0(18) . .
C9 C8 C12 115.6(16) . .
C7 C8 C12 118.4(18) . .
C9 C8 C10 49.6(10) . .
C7 C8 C10 175.7(17) . .
C12 C8 C10 66.0(12) . .
N3 C7 N4 110.2(17) . .
N3 C7 C8 126.6(19) . .
N4 C7 C8 123.2(19) . .
C13 C14 C15 119.8(17) . .
C13 C14 C23 58.2(12) . .
C15 C14 C23 61.6(12) . .
C13 C14 N2 141.5(15) . 1_545
C15 C14 N2 98.7(14) . 1_545
C23 C14 N2 160.4(13) . 1_545
C20 C21 C22 117.4(17) . .
C16 C15 C14 119.9(17) . .
C16 C15 C19 119.4(17) . 5_656
C14 C15 C19 120.7(18) . 5_656
C16 C15 C23 47.6(10) . .
C14 C15 C23 72.3(13) . .
C19 C15 C23 167.0(17) 5_656 .
N9 C19 N10 108.4(17) . .
N9 C19 C15 125.5(18) . 5_656
N10 C19 C15 126.1(19) . 5_656
N8 C18 N10 115.5(17) . .
N8 C18 C20 121.3(18) . .
N10 C18 C20 123.2(18) . .
N1 C1 C2 122.5(17) . .
N1 C1 C5 34.0(9) . .
C2 C1 C5 88.5(13) . .
C11 C12 C8 118.3(17) . .
C11 C12 C10 48.5(11) . .
C8 C12 C10 69.9(12) . .
N3 N9 C19 139.2(19) 5_666 .
N3 N9 N8 109.7(19) 5_666 .
C19 N9 N8 111.1(17) . .
N9 N3 C7 141(2) 5_666 .
N9 N3 N2 106.2(19) 5_666 .
C7 N3 N2 112.5(18) . .
C6 N2 N3 101.2(17) . .
C6 N2 C14 129.2(14) . 1_565
N3 N2 C14 129.6(15) . 1_565
C18 N8 N9 101.2(17) . .
C10 C10 N5 88.6(14) 2_675 .
C10 C10 N5 46.1(10) 2_675 2_675
N5 C10 N5 42.4(15) . 2_675
C10 C10 C11 153.1(10) 2_675 .
N5 C10 C11 64.5(15) . .
N5 C10 C11 107.0(15) 2_675 .
C10 C10 C9 71.1(7) 2_675 .
N5 C10 C9 160(2) . .
N5 C10 C9 117.2(14) 2_675 .
C11 C10 C9 135.8(15) . .
C10 C10 C12 157.8(8) 2_675 .
N5 C10 C12 113.6(17) . .
N5 C10 C12 156.1(15) 2_675 .
C11 C10 C12 49.1(11) . .
C9 C10 C12 86.7(11) . .
C10 C10 C8 113.6(8) 2_675 .
N5 C10 C8 157.8(19) . .
N5 C10 C8 159.7(15) 2_675 .
C11 C10 C8 93.3(13) . .
C9 C10 C8 42.6(8) . .
C12 C10 C8 44.2(9) . .
C15 C16 C23 85.8(14) . .
C15 C16 C20 144.4(14) . .
C23 C16 C20 129.8(15) . .
C15 C16 C17 117.6(14) . .
C23 C16 C17 31.8(10) . .
C20 C16 C17 98.0(13) . .
C17 N7 N6 88(3) . .
C17 N7 C22 88(3) . .
N6 N7 C22 176(2) . .
C17 N7 C23 31(2) . .
N6 N7 C23 57.7(14) . .
C22 N7 C23 118.5(19) . .
C17 N7 Fe2 152(3) . .
N6 N7 Fe2 63.7(12) . .
C22 N7 Fe2 120.1(14) . .
C23 N7 Fe2 121.5(13) . .
C17 C23 N6 77(2) . .
C17 C23 C16 93(2) . .
N6 C23 C16 170(2) . .
C17 C23 N7 25.1(18) . .
N6 C23 N7 51.6(13) . .
C16 C23 N7 118.0(18) . .
C17 C23 C13 130(3) . .
N6 C23 C13 53.6(12) . .
C16 C23 C13 136.9(17) . .
N7 C23 C13 105.1(15) . .
C17 C23 C15 140(3) . .
N6 C23 C15 143.8(18) . .
C16 C23 C15 46.6(10) . .
N7 C23 C15 164.6(18) . .
C13 C23 C15 90.2(13) . .
C17 C23 C14 174(3) . .
N6 C23 C14 97.7(15) . .
C16 C23 C14 92.7(13) . .
N7 C23 C14 149.3(17) . .
C13 C23 C14 44.2(10) . .
C15 C23 C14 46.1(9) . .
N7 C17 C23 124(4) . .
N7 C17 N6 59(2) . .
C23 C17 N6 65(2) . .
N7 C17 C22 64(2) . .
C23 C17 C22 172(3) . .
N6 C17 C22 123(2) . .
N7 C17 C16 179(3) . .
C23 C17 C16 55(2) . .
N6 C17 C16 120.0(18) . .
C22 C17 C16 117.0(16) . .
C5 C5 N1 116.7(13) 2_675 .
C5 C5 N1 44.2(10) 2_675 2_675
N1 C5 N1 72.5(17) . 2_675
C5 C5 C4 80.0(8) 2_675 .
N1 C5 C4 163.3(19) . .
N1 C5 C4 124.2(16) 2_675 .
C5 C5 C1 162.2(8) 2_675 .
N1 C5 C1 45.6(12) . .
N1 C5 C1 118.1(13) 2_675 .
C4 C5 C1 117.7(12) . .
loop_
_geom_bond_atom_site_label_1
_geom_bond_atom_site_label_2
_geom_bond_distance
_geom_bond_site_symmetry_2
Pt1 C24 1.964(8) 7_565
Pt1 C24 1.964(8) .
Pt1 C25 1.987(8) 7_565
Pt1 C25 1.987(8) .
Fe2 N12 2.017(7) .
Fe2 N12 2.018(7) 5_657
Fe2 N12 2.018(7) 7
Fe2 N12 2.018(7) 3_657
Fe2 N6 2.027(16) 5_657
Fe2 N6 2.027(16) .
Fe2 N7 2.257(18) 5_657
Fe2 N7 2.257(18) .
Fe1 N11 2.107(8) .
Fe1 N11 2.107(8) 2_675
Fe1 N11 2.107(8) 8_755
Fe1 N11 2.107(8) 7_575
Fe1 N5 2.124(15) 2_676
Fe1 N5 2.124(15) 1_556
Fe1 N1 2.260(14) .
Fe1 N1 2.260(14) 2_675
N12 C25 1.120(10) .
N11 C24 1.138(11) .
C4 C5 1.39(2) .
C4 C5 1.39(2) 2_675
C4 C3 1.38(2) 2_675
C4 C3 1.38(2) .
C9 C8 1.30(2) 2_675
C9 C8 1.30(2) .
C9 C10 1.46(2) .
C9 C10 1.46(2) 2_675
N6 N7 1.12(2) .
N6 C23 1.21(3) .
N6 C17 1.30(3) .
N6 C13 1.35(2) .
N5 N5 0.90(3) 2_675
N5 C10 0.96(2) .
N5 C11 1.32(2) .
N5 C10 1.33(2) 2_675
N5 Fe1 2.124(15) 1_554
C3 C2 1.41(3) .
C3 C6 1.46(3) .
C2 C1 1.42(2) .
C22 N7 1.29(2) .
C22 C21 1.43(3) .
C22 C17 1.44(3) .
N1 C5 1.02(2) .
N1 C1 1.30(2) .
N1 C5 1.31(2) 2_675
N1 N1 1.39(3) 2_675
N4 C7 1.35(3) .
N4 C6 1.37(2) .
N4 N4 1.76(3) 2_675
C11 C10 1.41(3) .
C11 C12 1.42(3) .
N10 C19 1.33(2) .
N10 C18 1.36(3) .
N10 N10 1.69(3) 5_656
C13 C14 1.36(3) .
C13 C23 1.65(3) .
C6 N2 1.34(3) .
C20 C16 1.31(2) .
C20 C21 1.40(3) .
C20 C18 1.50(3) .
C8 C7 1.41(3) .
C8 C12 1.42(3) .
C8 C10 1.91(3) .
C7 N3 1.27(3) .
C14 C15 1.44(3) .
C14 C23 1.90(3) .
C14 N2 1.92(3) 1_545
C15 C16 1.28(2) .
C15 C19 1.44(3) 5_656
C15 C23 1.75(3) .
C19 N9 1.32(3) .
C19 C15 1.44(3) 5_656
C18 N8 1.29(3) .
C1 C5 1.79(3) .
C12 C10 1.86(3) .
N9 N3 1.12(3) 5_666
N9 N8 1.38(2) .
N3 N9 1.12(3) 5_666
N3 N2 1.38(2) .
N2 C14 1.92(3) 1_565
C10 C10 0.95(4) 2_675
C10 N5 1.33(2) 2_675
C16 C23 1.30(2) .
C16 C17 1.58(2) .
N7 C17 0.69(2) .
N7 C23 1.35(3) .
C23 C17 0.83(2) .
C5 C5 0.48(4) 2_675
C5 N1 1.31(2) 2_675
