#------------------------------------------------------------------------------
#$Date: 2019-11-17 11:00:18 +0200 (Sun, 17 Nov 2019) $
#$Revision: 229474 $
#$URL: file:///home/coder/svn-repositories/cod/cif/7/04/51/7045169.cif $
#------------------------------------------------------------------------------
#
# This file is available in the Crystallography Open Database (COD),
# http://www.crystallography.net/
#
# All data on this site have been placed in the public domain by the
# contributors.
#
data_7045169
loop_
_publ_author_name
'Yan, Yang-Tian'
'Zhang, Wen-Yan'
'Zhang, Fang'
'Cao, Feng'
'Yang, Rui-Feng'
'Wang, Yao-Yu'
'Hou, Lei'
_publ_section_title
;
 Four new metal-organic frameworks based on diverse secondary building
 units: sensing and magnetic properties.
;
_journal_issue                   5
_journal_name_full
'Dalton transactions (Cambridge, England : 2003)'
_journal_page_first              1682
_journal_page_last               1692
_journal_paper_doi               10.1039/c7dt04696k
_journal_volume                  47
_journal_year                    2018
_chemical_formula_moiety         '0.25(C184 H160 Co20 O124), 2(H2 O)'
_chemical_formula_sum            'C46 H44 Co5 O33'
_chemical_formula_weight         1419.46
_space_group_crystal_system      monoclinic
_space_group_IT_number           15
_space_group_name_Hall           '-C 2yc'
_space_group_name_H-M_alt        'C 1 2/c 1'
_symmetry_space_group_name_Hall  '-C 2yc'
_symmetry_space_group_name_H-M   'C 1 2/c 1'
_atom_sites_solution_hydrogens   mixed
_atom_sites_solution_primary     dual
_audit_creation_date             2016-12-13
_audit_creation_method
;
Olex2 1.2-beta
(compiled 2016.11.30 svn.r3356 for OlexSys, GUI svn.r5269)
;
_cell_angle_alpha                90
_cell_angle_beta                 115.480(2)
_cell_angle_gamma                90
_cell_formula_units_Z            4
_cell_length_a                   35.966(6)
_cell_length_b                   7.1675(12)
_cell_length_c                   22.077(4)
_cell_measurement_reflns_used    1674
_cell_measurement_temperature    100
_cell_measurement_theta_max      25.331
_cell_measurement_theta_min      2.821
_cell_volume                     5137.6(15)
_computing_cell_refinement       'SAINT V8.18C (?, 2016)'
_computing_data_reduction        'SAINT V8.18C (?, 2016)'
_computing_molecular_graphics    'Olex2 (Dolomanov et al., 2009)'
_computing_publication_material  'Olex2 (Dolomanov et al., 2009)'
_computing_structure_refinement  'ShelXL (Sheldrick, 2015)'
_computing_structure_solution    'ShelXT (Sheldrick, 2015)'
_diffrn_ambient_temperature      100
_diffrn_measured_fraction_theta_full 0.992
_diffrn_measured_fraction_theta_max 0.991
_diffrn_measurement_device_type  'Bruker APEX-II CCD'
_diffrn_measurement_method       '\f and \w scans'
_diffrn_radiation_monochromator  graphite
_diffrn_radiation_type           MoK\a
_diffrn_radiation_wavelength     0.71073
_diffrn_reflns_av_R_equivalents  0.0738
_diffrn_reflns_av_unetI/netI     0.0981
_diffrn_reflns_Laue_measured_fraction_full 0.992
_diffrn_reflns_Laue_measured_fraction_max 0.991
_diffrn_reflns_limit_h_max       41
_diffrn_reflns_limit_h_min       -44
_diffrn_reflns_limit_k_max       4
_diffrn_reflns_limit_k_min       -8
_diffrn_reflns_limit_l_max       26
_diffrn_reflns_limit_l_min       -27
_diffrn_reflns_number            13569
_diffrn_reflns_point_group_measured_fraction_full 0.992
_diffrn_reflns_point_group_measured_fraction_max 0.991
_diffrn_reflns_theta_full        25.242
_diffrn_reflns_theta_max         26.372
_diffrn_reflns_theta_min         1.254
_diffrn_standards_number         0
_exptl_absorpt_coefficient_mu    1.688
_exptl_absorpt_correction_T_max  0.7457
_exptl_absorpt_correction_T_min  0.5979
_exptl_absorpt_correction_type   multi-scan
_exptl_absorpt_process_details
;
SADABS-2008/1 (Bruker,2008) was used for absorption correction.
wR2(int) was 0.0791 before and 0.0523 after correction.
The Ratio of minimum to maximum transmission is 0.8018.
The \l/2 correction factor is 0.0015.
;
_exptl_crystal_colour            colourless
_exptl_crystal_colour_primary    colourless
_exptl_crystal_density_diffrn    1.835
_exptl_crystal_description       block
_exptl_crystal_F_000             2876
_refine_diff_density_max         1.481
_refine_diff_density_min         -1.165
_refine_diff_density_rms         0.197
_refine_ls_extinction_method     none
_refine_ls_goodness_of_fit_ref   1.062
_refine_ls_hydrogen_treatment    constr
_refine_ls_matrix_type           full
_refine_ls_number_parameters     399
_refine_ls_number_reflns         5189
_refine_ls_number_restraints     129
_refine_ls_restrained_S_all      1.064
_refine_ls_R_factor_all          0.1346
_refine_ls_R_factor_gt           0.0812
_refine_ls_shift/su_max          0.001
_refine_ls_shift/su_mean         0.000
_refine_ls_structure_factor_coef Fsqd
_refine_ls_weighting_details
'w=1/[\s^2^(Fo^2^)+(0.1592P)^2^+27.2704P] where P=(Fo^2^+2Fc^2^)/3'
_refine_ls_weighting_scheme      calc
_refine_ls_wR_factor_gt          0.2305
_refine_ls_wR_factor_ref         0.2784
_reflns_Friedel_coverage         0.000
_reflns_number_gt                3225
_reflns_number_total             5189
_reflns_threshold_expression     'I > 2\s(I)'
_cod_data_source_file            c7dt04696k1.cif
_cod_data_source_block           3
_cod_depositor_comments
'Adding full bibliography for 7045167--7045170.cif.'
_cod_database_code               7045169
_shelx_space_group_comment
;
The symmetry employed for this shelxl refinement is uniquely defined
by the following loop, which should always be used as a source of
symmetry information in preference to the above space-group names.
They are only intended as comments.
;
_olex2_refinement_description
;
1. Fixed Uiso
 At 1.2 times of:
  All C(H) groups
 At 1.5 times of:
  All O(H,H) groups
2. Uiso/Uaniso restraints and constraints
Uanis(C4) \\sim Ueq, Uanis(O10) \\sim Ueq: with sigma of 0.01 and sigma for
terminal atoms of 0.02
Uanis(O10) \\sim Ueq, Uanis(O11) \\sim Ueq: with sigma of 0.001 and sigma for
terminal atoms of 0.002
3. Rigid body (RIGU) restrains
 Co1A, Co1, O1, O2, O16A, O16, C1, C2, C3, C4, C5, C6, C7, C8
 with sigma for 1-2 distances of 0.004 and sigma for 1-3 distances of 0.004
4. Others
 Sof(Co1A)=Sof(O16)=Sof(H16C)=Sof(H16D)=0.5*(1-FVAR(2))
 Sof(Co1)=Sof(O16A)=Sof(H16A)=Sof(H16B)=0.5*FVAR(2)
5.a Riding coordinates:
 O6(H6A,H6B), O11(H11A,H11B), O13(H13A,H13B), O14(H14A,H14B), O16A(H16A,H16B),
 O16(H16C,H16D), O17(H17A,H17B)
5.b Rotating group:
 O10(H10A,H10B)
5.c Aromatic/amide H refined with riding coordinates:
 C3(H3), C7(H7), C8(H8), C10(H10), C13(H13), C18(H18), C21(H21), C22(H22),
 C23(H23)
;
_shelx_res_file
;
    1.res created by SHELXL-2014/7

TITL 1 C 1 2/c 1 R = 0.08
CELL 0.71073 35.966 7.1675 22.077 90 115.48 90
ZERR 4 0.006 0.0012 0.004 0 0.002 0
LATT 7
SYMM -X,+Y,0.5-Z
SFAC  C 2.310 20.844 1.02 10.208 1.589 0.569 0.865 51.651 0.216 0.003 0.002 =
 11.5 0.68 12.01
SFAC H
SFAC  Co 12.284 4.279 7.341 0.278 4.003 13.536 2.349 71.169 1.012 0.349 =
 0.972 4010 1.23 58.93
SFAC  O 3.049 13.277 2.287 5.701 1.546 0.324 0.867 32.909 0.251 0.011 0.006 =
 32.5 0.68 16
UNIT 184 176 20 132

EQIV $1 0.5+X,0.5+Y,+Z
EQIV $2 0.5+X,-0.5+Y,+Z
EQIV $3 1.5-X,0.5+Y,1.5-Z
EQIV $4 +X,1-Y,-0.5+Z
EQIV $5 2-X,1-Y,2-Z
EQIV $6 0.5+X,0.5-Y,0.5+Z
EQIV $7 1.5-X,-0.5+Y,1.5-Z
EQIV $8 1-X,1-Y,1-Z
EQIV $9 -0.5+X,-0.5+Y,+Z
EQIV $10 1.5-X,0.5-Y,1-Z
RIGU Co1A Co1 O1 O2 O16A O16 C1 C2 C3 C4 C5 C6 C7 C8
ISOR 0.01 0.02 C4 O10
ISOR 0.001 0.002 O10 O11

L.S. 5
PLAN  -20
TEMP -173.15
HTAB O6 O17_$1
HTAB O10 O4_$10
HTAB O10 O17_$2
HTAB O11 O16A_$3
HTAB O11 O13_$4
HTAB O13 O15_$5
HTAB O13 O4_$3
HTAB O13 O14_$5
HTAB O14 O2_$6
HTAB O14 O4_$7
HTAB O16A O15_$7
HTAB O16 O15_$3
HTAB O17 O7_$8
HTAB O17 O9_$9
BOND $H
CONF
MORE -1
htab
fmap 2
acta
SHEL 999 0.8
REM <olex2.extras>
REM <HklSrc "%.\\1.hkl">
REM </olex2.extras>

WGHT    0.159200   27.270401
FVAR       0.19233   0.61158
PART 2
CO1A  3    0.500000    0.389953    0.750000   -20.50000    0.03182    0.02838 =
         0.03180    0.00000    0.02525    0.00000
PART 0
PART 1
CO1   3    0.500000    0.254183    0.750000    20.50000    0.02621    0.08969 =
         0.03935    0.00000    0.02257    0.00000
PART 0
CO4   3    0.750000    1.250000    0.500000    10.50000    0.01546    0.02816 =
         0.00876    0.00077    0.00282   -0.00462
CO3   3    0.857717    0.272010    0.536643    11.00000    0.02026    0.03663 =
         0.01822   -0.00228    0.00552    0.00553
CO2   3    1.000000    0.500000    1.000000    10.50000    0.01366    0.03873 =
         0.00913    0.00362   -0.00441   -0.00635
O1    4    0.558553    0.419514    0.779911    11.00000    0.05740    0.12442 =
         0.02138   -0.02547    0.02691   -0.03370
O2    4    0.519772    0.348363    0.674957    11.00000    0.03434    0.12602 =
         0.03214   -0.02455    0.02150   -0.01995
O3    4    0.634378    0.346701    0.540779    11.00000    0.02635    0.04338 =
         0.01842    0.00230    0.01254    0.00717
O4    4    0.575459    0.503074    0.499061    11.00000    0.03215    0.07211 =
         0.02298    0.00084    0.00593    0.02418
O5    4    0.740402    1.020330    0.546291    11.00000    0.02446    0.04143 =
         0.05115    0.02614    0.01617    0.00787
O6    4    0.801890    1.096019    0.499567    11.00000    0.03566    0.03551 =
         0.01163   -0.00362    0.01044   -0.00215
AFIX   3
H6A   2    0.801461    1.057479    0.464217    11.00000   -1.50000
H6B   2    0.806530    1.016429    0.530957    11.00000   -1.50000
AFIX   0
O7    4    0.673712    1.013872    0.522246    11.00000    0.01994    0.03853 =
         0.06969    0.03117    0.01667    0.01573
O8    4    0.783481    0.359235    0.594518    11.00000    0.02825    0.05416 =
         0.01951   -0.01672    0.00686   -0.00890
O9    4    0.849673    0.356809    0.616370    11.00000    0.02693    0.12161 =
         0.02241   -0.03085    0.00709    0.00814
O10   4    0.898257    0.058716    0.596117    11.00000    0.06339    0.06635 =
         0.05792    0.00077    0.02654    0.00907
AFIX   7
H10A  2    0.919103    0.046246    0.585886    11.00000   -1.50000
H10B  2    0.885635   -0.049215    0.589529    11.00000   -1.50000
AFIX   0
O11   4    0.908892    0.461057    0.566781    11.00000    0.07748    0.08165 =
         0.08671   -0.00640    0.03408    0.00114
AFIX   3
H11A  2    0.911652    0.558327    0.596931    11.00000   -1.50000
H11B  2    0.933462    0.407217    0.570181    11.00000   -1.50000
AFIX   0
O12   4    0.943419    0.485628    0.921230    11.00000    0.02263    0.05355 =
         0.01588   -0.00107   -0.00159   -0.00262
O13   4    0.975253    0.674982    1.053620    11.00000    0.02461    0.05231 =
         0.02154    0.00232    0.00256   -0.00112
AFIX   3
H13A  2    0.996893    0.692022    1.088090    11.00000   -1.50000
H13B  2    0.975983    0.779342    1.031970    11.00000   -1.50000
AFIX   0
O14   4    0.984915    0.267200    1.042518    11.00000    0.03686    0.07788 =
         0.01691    0.01669   -0.00606   -0.03019
AFIX   3
H14A  2    0.995405    0.278560    1.085528    11.00000   -1.50000
H14B  2    0.965645    0.185650    1.031178    11.00000   -1.50000
AFIX   0
O15   4    0.957509    0.385137    0.838902    11.00000    0.01822    0.13891 =
         0.02148   -0.01322    0.00121   -0.00129
PART 1
O16A  4    0.542343    0.046213    0.791298    20.50000    0.02390    0.09868 =
         0.07593    0.01725    0.03598    0.00520
AFIX   3
H16A  2    0.544383   -0.016107    0.760118    20.50000   -1.50000
H16B  2    0.534843   -0.025597    0.814638    20.50000   -1.50000
AFIX   0
PART 0
PART 2
O16   4    0.500000    0.692362    0.750000   -20.50000    0.15220    0.06417 =
         0.13021    0.00000    0.08426    0.00000
AFIX   3
H16C  2    0.511470    0.731882    0.725900   -20.50000   -1.50000
H16D  2    0.513190    0.731882    0.789930   -20.50000   -1.50000
AFIX   0
PART 0
C1    1    0.553781    0.401446    0.718625    11.00000    0.03621    0.07071 =
         0.01574   -0.01596    0.01655   -0.01500
C2    1    0.589379    0.447296    0.703513    11.00000    0.03319    0.05682 =
         0.01526   -0.00780    0.01580   -0.00862
C3    1    0.582081    0.450883    0.633733    11.00000    0.02776    0.03736 =
         0.01469   -0.00940    0.01200   -0.00130
AFIX  43
H3    2    0.555267    0.431372    0.598926    11.00000   -1.20000
AFIX   0
C4    1    0.615565    0.483823    0.619070    11.00000    0.02570    0.02977 =
         0.00595   -0.00257    0.00830    0.00081
C5    1    0.607889    0.445755    0.547896    11.00000    0.02789    0.03891 =
         0.00717    0.00042    0.00778    0.00235
C6    1    0.654673    0.521654    0.668671    11.00000    0.02736    0.02030 =
         0.01269    0.00023    0.00789    0.00276
C7    1    0.660399    0.513738    0.736247    11.00000    0.03306    0.03105 =
         0.00682   -0.00401    0.00826   -0.00893
AFIX  43
H7    2    0.686923    0.534972    0.771646    11.00000   -1.20000
AFIX   0
C8    1    0.627536    0.475268    0.750678    11.00000    0.03852    0.04466 =
         0.01646   -0.00255    0.01464   -0.00941
AFIX  43
H8    2    0.632287    0.468343    0.796408    11.00000   -1.20000
AFIX   0
C9    1    0.689654    0.581928    0.654346    11.00000    0.02187    0.02143 =
         0.01117   -0.00424    0.00584   -0.00187
C10   1    0.683720    0.719028    0.607548    11.00000    0.01379    0.02314 =
         0.02266   -0.00471    0.00716    0.00327
AFIX  43
H10   2    0.656707    0.765593    0.581915    11.00000   -1.20000
AFIX   0
C11   1    0.716358    0.791561    0.596726    11.00000    0.02357    0.02108 =
         0.01763   -0.00129    0.00967   -0.00111
C12   1    0.710014    0.954166    0.552842    11.00000    0.02790    0.02585 =
         0.01684   -0.00428    0.01087   -0.00023
C13   1    0.756076    0.722353    0.635182    11.00000    0.01880    0.02998 =
         0.01297   -0.00418    0.00168   -0.00572
AFIX  43
H13   2    0.778740    0.772145    0.629171    11.00000   -1.20000
AFIX   0
C14   1    0.762615    0.582683    0.681677    11.00000    0.02292    0.02140 =
         0.01013    0.00035    0.00306    0.00262
C15   1    0.805525    0.524691    0.725657    11.00000    0.02198    0.02459 =
         0.00893    0.00070    0.00430   -0.00562
C16   1    0.833553    0.452425    0.701615    11.00000    0.02060    0.02376 =
         0.00264   -0.00009   -0.00096    0.00072
C17   1    0.820673    0.384742    0.631162    11.00000    0.02103    0.03473 =
         0.00420    0.00046   -0.00077    0.00591
C18   1    0.874357    0.430584    0.747407    11.00000    0.02050    0.03108 =
         0.01804   -0.00390    0.00613   -0.00122
AFIX  43
H18   2    0.893350    0.386152    0.731335    11.00000   -1.20000
AFIX   0
C19   1    0.888789    0.469174    0.814136    11.00000    0.02135    0.02672 =
         0.02022    0.00140    0.00452   -0.00303
C20   1    0.932860    0.443487    0.860442    11.00000    0.02048    0.04723 =
         0.01229    0.00258   -0.00267   -0.01021
C21   1    0.860573    0.532782    0.838626    11.00000    0.02818    0.02830 =
         0.00645    0.00028    0.00164   -0.00428
AFIX  43
H21   2    0.869475    0.557866    0.885039    11.00000   -1.20000
AFIX   0
C22   1    0.821004    0.557059    0.795120    11.00000    0.02371    0.02853 =
         0.01370   -0.00291    0.01083   -0.00127
AFIX  43
H22   2    0.802315    0.598609    0.812258    11.00000   -1.20000
AFIX   0
C23   1    0.729567    0.513812    0.692409    11.00000    0.03152    0.02127 =
         0.01511   -0.00035    0.00828   -0.00161
AFIX  43
H23   2    0.734151    0.420775    0.725519    11.00000   -1.20000
AFIX   0

O17   4    0.336208    0.295134    0.579475    11.00000    0.20373    0.05680 =
         0.04468    0.00187    0.04393    0.00826
AFIX   3
H17A  2    0.329128    0.236084    0.544345    11.00000   -1.50000
H17B  2    0.346058    0.184884    0.611515    11.00000   -1.50000
AFIX   0
HKLF 4

REM  1 C 1 2/c 1 R = 0.08
REM R1 =  0.0812 for    3225 Fo > 4sig(Fo)  and  0.1346 for all    5189 data
REM    399 parameters refined using    129 restraints

END

WGHT      0.1592     27.2250

REM Instructions for potential hydrogen bonds
HTAB O6 O17_$1
HTAB O10 O4_$10
HTAB O10 O17_$2
HTAB O11 O16A_$3
HTAB O11 O13_$4
HTAB O13 O15_$5
HTAB O13 O4_$3
HTAB O13 O14_$5
HTAB O14 O2_$6
HTAB O14 O4_$7
HTAB O16A O15_$7
HTAB O16 O15_$3
HTAB O17 O7_$8
HTAB O17 O9_$9

REM Highest difference peak  1.481,  deepest hole -1.165,  1-sigma level  0.197
Q1    1   0.5440 -0.1668  0.7839  11.00000  0.05    1.48
Q2    1   0.4888  0.0889  0.7596  11.00000  0.05    1.36
Q3    1   0.9134  0.1478  0.6071  11.00000  0.05    1.17
Q4    1   0.9112  0.4176  0.5886  11.00000  0.05    1.17
Q5    1   0.4541  0.0410  0.6727  11.00000  0.05    1.13
Q6    1   0.4691 -0.0072  0.7290  11.00000  0.05    1.11
Q7    1   0.9045  0.5309  0.5351  11.00000  0.05    0.97
Q8    1   0.4715  0.7225  0.7283  11.00000  0.05    0.76
Q9    1   0.4826  0.4756  0.8306  11.00000  0.05    0.75
Q10   1   0.9974  0.4870  1.0346  11.00000  0.05    0.73
Q11   1   0.6585  0.5129  0.7003  11.00000  0.05    0.66
Q12   1   1.0338  0.1980  1.0432  11.00000  0.05    0.62
Q13   1   1.0306  0.5577  1.0505  11.00000  0.05    0.61
Q14   1   0.9078  0.4756  0.9438  11.00000  0.05    0.59
Q15   1   0.8706  0.4845  0.8198  11.00000  0.05    0.58
Q16   1   0.8471  0.1049  0.5507  11.00000  0.05    0.58
Q17   1   0.4394  0.2502  0.6400  11.00000  0.05    0.58
Q18   1   1.0124  0.0579  1.0373  11.00000  0.05    0.57
Q19   1   0.8231  0.3881  0.6822  11.00000  0.05    0.57
Q20   1   0.5867  0.4579  0.6751  11.00000  0.05    0.57
;
_shelx_res_checksum              60662
_shelx_hkl_file
;
   2   0   0    8.10    1.70
   4   0   0   36.50    5.80
   6   0   0 2541.45   86.99
  -8   0   0 2942.61  103.89
   8   0   0 2858.21  101.09
  -8   0   0 2996.30   99.69
  10   0   0  402.76   21.60
 -10   0   0  376.86   22.20
 -10   0   0  379.36   21.00
  12   0   0 1937.21   70.29
 -12   0   0 1894.61   69.59
 -12   0   0 1885.91   72.19
  14   0   0  785.02   35.90
 -14   0   0  810.32   37.40
 -16   0   0 1985.30   74.19
 -16   0   0 1914.31   76.29
 -18   0   0  133.69   19.00
 -18   0   0  180.78   20.50
  18   0   0  190.58   20.20
 -20   0   0 1905.41   78.39
 -20   0   0 2068.19   77.69
  20   0   0 1868.01   76.39
 -22   0   0  588.54   37.00
 -22   0   0  580.14   35.60
  22   0   0  553.14   35.60
 -24   0   0   87.99   21.10
  24   0   0   89.49   21.10
 -24   0   0   51.79   19.30
  26   0   0   85.39   23.60
 -26   0   0   43.60   19.90
 -26   0   0    8.00   19.80
 -28   0   0 1113.89   57.09
  28   0   0 1142.39   57.59
 -28   0   0 1090.69   57.59
 -30   0   0   40.30   21.50
 -30   0   0   47.60   19.30
 -32   0   0   32.60   24.10
 -34   0   0  114.19   28.30
 -36   0   0  514.25   47.60
 -38   0   0    9.40   24.20
   1  -1   0  276.57   14.10
  -1  -1   0  291.37   12.60
  -3  -1   0   21.90    3.50
   3  -1   0   25.20    7.60
  -5  -1   0 3911.71  134.59
  -5  -1   0 3852.31  128.09
  -7  -1   0  205.08   17.30
   7  -1   0  218.58   17.70
  -7   1   0  168.98   13.40
   7   1   0  187.78    9.80
   9  -1   0   36.50   12.60
  -9  -1   0   45.00   12.40
  -9  -1   0   26.80    7.60
  -9   1   0   31.80    8.80
   9   1   0   34.60    7.10
 -11  -1   0  169.48   17.60
 -11  -1   0  142.19   13.00
 -11   1   0  165.88   13.70
  11   1   0  144.79   12.00
  13  -1   0   12.50   11.20
 -13  -1   0   48.90   14.60
  13   1   0   56.29    9.90
 -13   1   0   28.50   11.20
 -13   1   0   52.09   10.00
  15  -1   0   14.60   15.70
 -15  -1   0   38.50   14.50
 -15  -1   0   25.20   10.70
 -15   1   0   56.29   11.70
  15   1   0   24.80   10.60
 -15   1   0   20.40   12.60
  17  -1   0  418.26   30.70
 -17  -1   0  417.56   29.90
 -17  -1   0  398.76   25.70
  17   1   0  430.26   24.20
 -17   1   0  419.56   28.60
 -17   1   0  400.56   25.20
  19  -1   0   60.19   18.50
 -19  -1   0   39.90   17.70
 -19  -1   0   52.99   14.60
 -19   1   0   12.60   15.00
  19   1   0   29.40   12.40
 -19   1   0   29.90   12.90
 -21  -1   0  171.98   25.40
 -21  -1   0  189.68   22.50
  21  -1   0  163.78   25.40
 -21   1   0  162.98   21.60
 -21   1   0  198.58   25.10
  23  -1   0  435.86   37.20
 -23  -1   0  425.56   35.90
 -23  -1   0  395.56   33.10
  23   1   0  419.46   28.90
 -23   1   0  423.06   35.30
 -23   1   0  392.46   30.30
 -25  -1   0    2.90   19.20
  25  -1   0    8.40   23.30
 -25  -1   0   25.70   17.70
 -25   1   0   10.00   19.90
 -25   1   0   15.20   16.10
  27  -1   0  -12.60   22.50
 -27  -1   0  -10.20   18.60
 -27  -1   0   23.70   21.00
 -27   1   0    2.40   16.00
 -27   1   0    3.00   19.80
 -29  -1   0  548.25   40.20
  29  -1   0  522.95   42.80
 -29  -1   0  470.85   40.40
 -29   1   0  520.15   42.60
 -31  -1   0   57.99   24.00
 -31  -1   0   18.30   21.80
  31  -1   0    1.80   22.70
 -31   1   0   15.00   22.30
 -33  -1   0  319.37   36.80
 -33  -1   0  260.47   34.20
 -33   1   0  266.07   36.20
 -35  -1   0   18.20   22.60
 -35   1   0   65.79   26.30
 -37   1   0  -10.60   24.50
 -39   1   0   23.70   30.00
   0  -2   0 7507.75  248.68
   0  -2   0 7360.86  254.37
  -2  -2   0  464.15   25.70
  -2  -2   0  477.65   22.60
   2  -2   0  550.14   24.70
   2  -2   0  557.14   25.60
   4  -2   0 1714.13   64.89
   4  -2   0 1750.52   65.99
  -4  -2   0 1808.22   60.99
   6  -2   0 1371.56   54.59
  -6  -2   0 1361.66   47.10
  -8  -2   0 3076.29  102.29
  -8  -2   0 3068.89  111.89
 -10  -2   0 2008.60   77.89
  10   2   0 2023.30   67.89
  12  -2   0   31.10   14.30
 -12  -2   0   17.90   14.50
  12   2   0   38.30    6.20
  14  -2   0  257.47   26.60
 -14  -2   0  285.47   25.00
 -14   2   0  261.17   21.00
  14   2   0  239.68   13.90
  16  -2   0  191.98   25.00
 -16  -2   0  138.09   16.50
 -16  -2   0  200.18   23.90
 -16   2   0  169.98   20.70
  16   2   0  168.68   13.80
 -18  -2   0 2557.64   93.59
 -18  -2   0 2492.75  100.69
  18  -2   0 2421.96   99.89
  18   2   0 2601.64   88.99
 -18   2   0 2584.14   96.69
  20  -2   0  123.09   26.40
 -20  -2   0  131.79   24.90
 -20  -2   0  125.19   18.70
 -20   2   0  114.79   20.70
 -22  -2   0   52.39   17.10
  22  -2   0   33.00   24.60
 -22  -2   0   42.30   22.70
 -22   2   0   10.30   17.30
 -24  -2   0  201.38   31.30
 -24  -2   0  233.28   26.80
  24  -2   0  234.88   33.70
 -24   2   0  230.98   31.50
 -26  -2   0  674.63   48.10
 -26  -2   0  648.34   42.50
  26  -2   0  668.73   50.79
 -26   2   0  637.54   47.90
  28  -2   0  550.04   45.70
 -28  -2   0  591.44   47.80
 -28  -2   0  655.73   42.40
 -28   2   0  612.64   44.80
  30  -2   0  425.66   43.30
 -30  -2   0  420.66   39.20
 -30  -2   0  456.65   43.40
 -30   2   0  416.36   42.90
 -32  -2   0  -20.90   20.40
  32  -2   0   -5.20   26.10
 -32  -2   0   14.00   25.80
 -32   2   0   -7.90   23.40
  34  -2   0  133.29   33.60
 -34  -2   0   80.89   27.00
 -34  -2   0   98.79   31.90
 -34   2   0   47.20   27.70
 -36  -2   0   66.19   32.00
  36  -2   0   21.30   26.50
 -36   2   0   23.70   27.80
 -38   2   0  277.77   42.00
 -40   2   0   16.70   29.30
   1  -3   0   47.00   12.20
   1  -3   0   87.59   13.30
  -1  -3   0   72.99   12.00
  -1  -3   0   87.99   14.60
  -3  -3   0  498.15   28.00
  -3  -3   0  408.46   22.00
   3  -3   0  438.66   26.00
   5  -3   0  793.82   38.10
  -5  -3   0  759.82   37.90
  -5  -3   0  800.42   31.70
  -7  -3   0   96.49    9.00
   7  -3   0    4.60    8.60
   7  -3   0  109.79   18.20
  -9  -3   0   10.40   12.20
  -9  -3   0    7.00    5.50
   9  -3   0  -14.00   15.40
  11  -3   0 1163.68   53.99
 -11  -3   0 1134.19   53.49
  13  -3   0   -4.00    3.70
 -13  -3   0   10.90   18.30
  15  -3   0  358.96   33.00
 -15  -3   0  326.07   31.70
  17  -3   0 1207.78   59.29
 -17  -3   0 1034.30   57.19
 -19  -3   0   47.50   25.10
  19  -3   0   51.89   25.70
 -19  -3   0   57.69   15.60
 -21  -3   0  247.88   35.00
  21  -3   0  266.67   36.70
 -21  -3   0  248.48   25.50
 -23  -3   0  188.38   34.40
  23  -3   0  187.48   35.00
 -23  -3   0  182.58   24.50
 -25  -3   0   71.99   20.10
  25  -3   0   69.39   28.80
 -25  -3   0   55.29   29.90
 -27  -3   0   46.60   22.60
  27  -3   0   77.59   28.80
 -27  -3   0   50.29   29.20
  29  -3   0  267.47   40.70
 -29  -3   0  264.77   38.40
 -29  -3   0  227.88   32.50
 -31  -3   0  116.19   29.10
 -31  -3   0  167.38   35.10
  31  -3   0  161.48   35.30
  33  -3   0  102.49   31.90
 -33  -3   0   79.09   33.20
  35  -3   0   83.19   32.60
 -35  -3   0   54.09   33.20
  37  -3   0   24.00   31.30
 -37  -3   0   55.49   30.90
  39  -3   0   89.99   36.00
   0  -4   0 6585.84  223.98
   0  -4   0 6489.85  230.58
  -2  -4   0  144.99   21.80
   2  -4   0  144.79   19.50
   2  -4   0  121.69   18.80
  -4  -4   0   14.60   16.70
   4  -4   0   31.80   15.10
   4  -4   0   40.80   17.50
  -4  -4   0   25.40   12.30
   6  -4   0   49.20   19.70
   6  -4   0   88.59   16.90
  -6  -4   0   84.09   12.70
  -6  -4   0   86.79   22.30
  -8  -4   0 1647.04   71.59
   8  -4   0 1580.54   69.79
  -8  -4   0 1614.14   58.99
   8  -4   0 1644.84   67.19
  10  -4   0  301.97   31.40
 -10  -4   0  354.16   17.70
  10  -4   0  347.97   27.10
  12  -4   0 1085.69   59.29
  12  -4   0 1253.27   53.89
  14  -4   0   10.20   16.80
 -14  -4   0   35.10   18.50
  14  -4   0   79.79   19.00
 -16  -4   0  353.76   37.90
 -18  -4   0   26.80   26.90
  18  -4   0  -10.40   14.70
  20  -4   0  511.75   47.10
 -20  -4   0  480.75   45.60
 -22  -4   0   16.20   17.60
 -22  -4   0   33.60   29.10
  22  -4   0   -7.40   27.10
 -24  -4   0   34.70   28.80
  24  -4   0   87.49   31.00
 -24  -4   0   71.39   20.30
 -26  -4   0   46.70   29.80
 -26  -4   0    2.90   17.70
  26  -4   0  -17.90   26.40
 -28  -4   0  416.46   48.20
 -28  -4   0  486.75   40.00
  28  -4   0  465.35   49.10
 -30  -4   0   39.70   33.20
 -30  -4   0    4.70   22.50
  30  -4   0   34.50   30.50
 -32  -4   0  -40.20   29.40
  32  -4   0   24.00   30.50
  34  -4   0   21.60   32.70
 -34  -4   0   38.00   34.90
  36  -4   0  255.97   45.70
 -36  -4   0  261.17   45.50
 -38  -4   0   36.40   38.10
  38  -4   0   22.30   35.30
  -1  -5   0  406.26   30.00
   1  -5   0  367.36   33.40
  -1  -5   0  414.26   35.60
   1  -5   0  367.36   31.60
   3  -5   0   56.09   22.50
  -3  -5   0  110.89   19.40
  -3  -5   0   84.79   24.40
   3  -5   0   64.19   21.80
   5  -5   0  278.27   28.30
   5  -5   0  238.08   29.10
  -5  -5   0  232.68   31.90
  -5  -5   0  293.27   24.80
  -7  -5   0  121.89   29.00
   7  -5   0   98.49   21.90
   7  -5   0  131.89   26.10
   9  -5   0  128.49   29.00
  -9  -5   0  156.78   31.30
   9  -5   0  101.89   23.10
  11  -5   0   20.40   20.00
 -11  -5   0   -9.00   20.40
  11  -5   0   13.80   23.60
  13  -5   0   59.09   27.80
  13  -5   0   49.10   20.80
 -13  -5   0   25.00   26.20
 -15  -5   0  463.15   45.10
  15  -5   0  454.95   35.00
  15  -5   0  427.86   42.60
  17  -5   0   33.60   19.60
  17  -5   0   21.00   28.40
 -17  -5   0   -1.60   28.40
  19  -5   0   91.69   30.70
 -19  -5   0   86.29   31.70
 -21  -5   0  451.95   47.70
  21  -5   0  482.05   46.90
  23  -5   0   32.10   29.70
 -23  -5   0   -0.20   28.90
 -25  -5   0   45.80   21.10
 -25  -5   0    2.80   31.30
  25  -5   0   57.09   32.50
 -27  -5   0  -13.80   20.00
  27  -5   0  -24.10   29.50
 -27  -5   0    7.10   33.00
  29  -5   0  171.18   38.90
 -29  -5   0  154.48   40.40
  31  -5   0    8.90   30.40
 -31  -5   0   63.59   35.40
 -33  -5   0   29.80   35.10
  33  -5   0   50.79   34.30
  35  -5   0  227.48   46.70
 -35  -5   0  209.18   47.70
   0  -6   0  117.59   24.70
   0  -6   0   89.39   29.70
  -2  -6   0  213.38   27.40
  -2  -6   0  306.07   36.40
   2  -6   0  219.08   29.30
   2  -6   0  245.58   33.50
   4  -6   0   -1.90   21.10
  -4  -6   0    8.70   28.80
   4  -6   0   16.80   22.50
   6  -6   0   74.89   24.50
   6  -6   0   57.39   24.30
  -6  -6   0   85.99   32.40
   8  -6   0  -14.90   22.20
  -8  -6   0   25.70   28.00
   8  -6   0    1.80   22.80
  10  -6   0   70.59   24.60
  10  -6   0   84.99   26.80
 -10  -6   0  153.18   33.00
  12  -6   0   40.50   22.80
  12  -6   0   17.70   26.40
 -12  -6   0  -25.40   27.30
  14  -6   0   19.70   26.70
 -14  -6   0   29.30   28.40
  14  -6   0   16.20   22.90
 -16  -6   0   95.09   32.90
  16  -6   0  107.89   31.50
 -18  -6   0  403.46   45.00
  18  -6   0  255.47   39.40
  20  -6   0  152.48   34.80
 -20  -6   0  177.48   39.10
  22  -6   0   24.80   31.00
 -22  -6   0    3.00   32.30
  24  -6   0    8.60   30.90
 -24  -6   0   27.70   34.40
  26  -6   0   53.39   33.40
 -26  -6   0   62.99   39.30
  28  -6   0  128.09   38.80
 -28  -6   0   51.39   36.50
  30  -6   0  104.09   40.60
 -30  -6   0   45.70   38.60
 -32  -6   0  -61.19   34.00
  -1  -7   0   -1.40   29.20
   1  -7   0  -19.70   26.20
   3  -7   0  130.49   27.00
   3  -7   0  153.18   32.50
  -3  -7   0  194.68   36.90
   5  -7   0  148.69   28.80
  -5  -7   0   75.89   33.20
   5  -7   0   84.19   31.60
   7  -7   0   82.89   27.80
   7  -7   0   45.40   27.30
  -7  -7   0   68.29   32.70
   9  -7   0   19.50   28.00
  -9  -7   0   -1.40   30.20
   9  -7   0  -19.00   22.50
  11  -7   0  411.06   39.80
 -11  -7   0  378.36   45.70
  11  -7   0  338.17   39.20
  13  -7   0   70.79   29.10
 -13  -7   0   95.59   35.70
 -15  -7   0  -27.90   30.50
  15  -7   0   -8.80   26.80
 -17  -7   0   74.09   36.40
  17  -7   0  104.09   33.40
 -19  -7   0   44.20   35.80
  19  -7   0   48.50   33.00
  21  -7   0    4.70   29.20
 -21  -7   0    2.70   33.60
 -23  -7   0    3.70   36.10
  23  -7   0    0.20   33.00
 -25  -7   0   50.29   38.10
  25  -7   0   46.40   34.40
 -27  -7   0    7.30   39.70
 -29  -7   0   78.19   43.90
   0  -8   0  125.09   38.60
   2  -8   0    5.50   34.00
  -2  -8   0  -55.29   31.70
  -4  -8   0    7.20   34.20
   4  -8   0   61.09   33.00
   6  -8   0   -5.20   31.00
  -6  -8   0  -15.70   32.70
  -8  -8   0  144.59   39.40
   8  -8   0  184.78   38.70
   8  -8   0  131.09   31.00
 -10  -8   0   19.10   35.30
  10  -8   0   59.39   27.10
 -12  -8   0  127.39   42.30
  12  -8   0   96.39   29.90
 -14  -8   0  -17.40   35.40
  14  -8   0   48.30   28.80
  16  -8   0   42.80   30.10
 -16  -8   0   37.10   38.60
 -18  -8   0  -21.40   35.20
  18  -8   0   13.90   31.60
 -20  -8   0   98.09   42.00
  20  -8   0  115.09   38.80
 -22  -8   0  -31.60   37.10
  -1  -9   0   36.20   43.40
   1  -9   0  -28.50   38.20
  -3  -9   0  -14.30   39.60
   3  -9   0  -55.19   40.70
  -5  -9   0  -62.89   39.60
   5  -9   0  -28.70   40.00
  -7  -9   0   47.10   45.80
  -9  -9   0   -2.20   40.00
 -11  -9   0  -19.80   39.20
 -13  -9   0   11.50   42.40
  13  -9   0   74.19   34.60
 -40   0   1    7.80   25.20
 -38   0   1   -2.10   23.60
 -36   0   1  -10.00   22.20
 -34   0   1    0.50   22.00
 -32   0   1  -20.70   19.20
 -30   0   1    5.30   16.80
 -30   0   1   15.60   20.40
  28   0  -1   21.00   20.40
 -28   0   1   -4.50   16.30
 -28   0   1   19.00   20.20
 -26   0   1    2.00   16.50
  26   0  -1  -12.30   17.90
 -26   0   1    4.30   18.70
  24   0  -1   14.40   16.40
 -24   0   1   -9.70   13.60
 -24   0   1    5.80   14.80
 -22   0   1   -4.60   13.00
  22   0  -1   -7.40   14.50
 -22   0   1   -4.20   15.00
 -20   0   1   -8.40   11.60
 -20   0   1    4.60   13.70
  20   0  -1   -9.30   12.80
 -18   0   1   -1.30   11.10
  18   0  -1   -0.50    8.70
 -18   0   1    5.10   12.00
 -16   0   1    5.00   10.50
  16   0  -1   -2.80   10.60
 -16   0   1   -1.90    9.10
 -14   0   1    0.00    7.70
 -14   0   1  -15.90    9.00
  14   0  -1    1.10   10.00
  12   0  -1   -6.10    9.10
 -12   0   1   -3.50    9.80
 -12   0   1    0.70    7.10
 -10   0   1   -8.50    9.00
  10   0  -1   -1.40    8.90
 -10   0   1   -1.80    7.60
   8   0  -1   -1.80    8.10
  -8   0   1    2.70    7.00
   6   0  -1    5.40    6.00
   4   0  -1    0.50    3.40
   2   0  -1   -0.40    1.00
   0   0  -1   -0.60    0.20
   2   0   1    6.00    2.40
   4   0   1    0.20    5.80
   6   0   1    4.80    7.00
  -6   0  -1   -4.00    7.90
   8   0   1    7.80    9.50
  -8   0  -1   -8.20    9.00
  -8   0  -1    7.60    7.70
  10   0   1    2.90    9.70
 -10   0  -1   -0.30    7.70
 -10   0  -1  -12.80    9.60
 -12   0  -1    0.80    8.50
 -12   0  -1  -18.60    9.80
  12   0   1   -4.20    9.20
 -14   0  -1    2.30   10.70
 -14   0  -1   -9.40    5.70
  14   0   1   -6.50    8.20
 -16   0  -1   -0.50   11.00
  16   0   1  -10.00   11.40
 -16   0  -1   -0.90   11.90
 -18   0  -1    4.60   11.70
  18   0   1    8.00   14.30
 -18   0  -1    7.90   12.80
 -20   0  -1   -8.50   12.40
  20   0   1    5.80   15.70
 -20   0  -1   25.00   15.20
 -22   0  -1  -19.50   15.00
 -22   0  -1  -15.60   15.60
  22   0   1    9.90   17.70
  24   0   1  -17.30   19.40
 -24   0  -1    5.70   17.10
 -24   0  -1    3.70   17.00
 -26   0  -1   15.90   18.80
 -26   0  -1   -0.80   18.10
  26   0   1   -4.60   21.00
 -28   0  -1   -7.60   19.50
  28   0   1   -8.10   20.40
 -28   0  -1   19.40   18.30
 -30   0  -1  -12.80   20.10
 -30   0  -1  -13.90   16.70
 -32   0  -1  -46.60   19.00
 -32   0  -1   13.10   19.90
 -34   0  -1   25.80   23.80
 -41   1   1   12.50   30.50
 -39  -1   1  148.69   33.20
 -39   1   1  221.68   38.40
 -37  -1   1   71.89   27.30
 -37   1   1  127.59   31.50
 -35  -1   1  216.08   34.10
 -35   1   1  229.58   35.20
  33  -1  -1  210.88   34.90
 -33  -1   1  148.39   29.50
 -33  -1   1  228.48   36.00
 -33   1   1  169.58   29.30
  31  -1  -1   34.20   22.00
 -31  -1   1   40.30   22.90
 -31  -1   1   71.49   24.20
 -31   1   1   29.90   22.60
 -29  -1   1   74.79   23.40
  29  -1  -1   27.00   23.60
 -29  -1   1   34.90   22.30
 -29   1   1   63.49   24.70
  27  -1  -1  435.96   39.10
 -27  -1   1  431.16   37.30
 -27  -1   1  518.45   41.00
 -27   1   1  402.86   37.50
 -27   1   1  425.36   32.70
 -25  -1   1  119.79   23.30
 -25  -1   1  152.68   25.50
  25  -1  -1  122.89   24.90
 -25   1   1  133.09   25.70
 -25   1   1  109.39   20.20
  23  -1  -1   55.29   21.50
 -23  -1   1   45.60   19.60
 -23  -1   1   75.09   19.30
 -23   1   1   62.69   16.30
  23   1  -1   13.50   12.00
 -23   1   1   53.09   20.30
  21  -1  -1    3.00   17.30
 -21  -1   1   11.40   14.00
 -21  -1   1    7.20   15.30
  21   1  -1    5.00    9.00
 -21   1   1   22.10   15.10
 -21   1   1   13.90   12.60
  19  -1  -1 1886.41   76.79
 -19  -1   1 1970.80   75.09
 -19  -1   1 1809.52   77.29
 -19   1   1 1883.71   74.79
 -19   1   1 1971.00   77.19
  19   1  -1 1967.40   71.29
 -17  -1   1   28.00   13.90
  17  -1  -1   36.20   16.50
 -17  -1   1   41.10   11.30
  17   1  -1   51.79   11.30
 -17   1   1   50.29   15.20
 -17   1   1   69.99   12.40
 -15  -1   1   24.40   12.70
 -15  -1   1   30.20   10.30
  15  -1  -1   24.20   14.80
 -15   1   1   23.70    9.20
  15   1  -1   22.60    9.20
 -15   1   1   26.50   11.40
 -13  -1   1  961.50   41.00
  13   1  -1  940.31   35.40
 -13   1   1  819.32   39.50
 -13   1   1  941.61   37.50
 -11  -1   1 1160.48   46.20
 -11  -1   1 1208.08   43.70
  11  -1  -1 1085.39   46.10
 -11   1   1 1035.70   43.80
  11   1  -1 1127.19   40.70
   9  -1  -1 1050.79   42.10
  -9  -1   1  969.00   41.20
  -9   1   1 1002.70   40.00
   9   1  -1 1006.40   35.60
  -7  -1   1 1286.57   49.90
   7  -1  -1 1325.57   49.99
  -3  -1   1  756.42   26.20
   3  -1  -1  736.23   29.00
   1  -1  -1 1802.92   62.69
  -1  -1   1 1804.02   62.19
  -1  -1  -1 3521.05  118.79
   1  -1   1 3610.24  120.59
   3  -1   1 2786.62  101.29
  -3  -1  -1 3099.79   98.59
  -5  -1  -1  397.86   22.40
  -5  -1  -1  396.76   16.00
   7  -1   1  271.67   19.70
  -7  -1  -1  229.18   19.90
  -7   1  -1  223.18   15.50
   7   1   1  241.78   12.40
  -9  -1  -1 4458.25  157.58
   9  -1   1 4499.75  155.08
  -9  -1  -1 4408.16  147.69
   9   1   1 4442.96  149.88
  -9   1  -1 4508.75  149.29
 -11  -1  -1   15.30    7.10
 -11  -1  -1   25.00   13.10
  11  -1   1   -3.60    5.40
 -11   1  -1   11.80    7.80
 -11   1  -1    5.40    4.30
  11   1   1   14.00    7.80
  13  -1   1   16.80   14.20
 -13  -1  -1   22.20    6.10
 -13  -1  -1   54.79   15.50
 -13   1  -1   17.90   10.40
  13   1   1   49.10   10.10
 -13   1  -1   42.60   10.90
 -15  -1  -1  625.34   35.60
 -15  -1  -1  727.63   32.30
  15  -1   1  617.44   35.60
 -15   1  -1  642.24   33.40
  15   1   1  642.04   30.10
 -15   1  -1  637.04   32.90
 -17  -1  -1 2324.77   88.69
 -17  -1  -1 2441.26   95.39
  17  -1   1 2413.46   93.49
 -17   1  -1 2381.46   92.89
 -17   1  -1 2421.26   90.59
  17   1   1 2503.45   88.39
 -19  -1  -1 1305.27   54.79
 -19  -1  -1 1296.77   59.79
  19  -1   1 1256.97   58.39
 -19   1  -1 1197.78   55.69
 -19   1  -1 1237.68   55.89
  21  -1   1  127.89   25.90
 -21  -1  -1  188.38   26.20
 -21  -1  -1  144.19   21.00
  21   1   1  160.58   20.80
 -21   1  -1  205.18   23.80
 -21   1  -1  134.89   22.30
 -23  -1  -1  128.99   24.40
  23  -1   1   79.29   23.30
 -23  -1  -1   66.39   20.40
 -23   1  -1   52.89   18.30
  23   1   1   60.99   18.30
 -23   1  -1   68.79   19.20
  25  -1   1  152.68   29.90
 -25  -1  -1  147.79   26.10
 -25  -1  -1  139.49   24.80
 -25   1  -1  141.99   25.50
 -25   1  -1  155.98   25.10
 -27  -1  -1 1052.89   59.99
 -27  -1  -1 1106.79   56.19
  27  -1   1 1097.79   60.39
 -27   1  -1 1171.88   59.79
 -27   1  -1 1077.39   56.59
 -29  -1  -1  391.16   38.70
  29  -1   1  358.36   38.50
 -29  -1  -1  323.87   33.50
 -29   1  -1  367.56   34.70
 -29   1  -1  280.07   35.00
 -31  -1  -1   -8.90   20.60
  31  -1   1    9.10   25.10
 -31  -1  -1   24.90   22.50
 -31   1  -1   62.59   24.30
 -33  -1  -1   28.10   24.40
 -33  -1  -1   36.70   25.00
 -33   1  -1   30.10   24.40
 -35   1  -1  -16.90   25.50
 -37   1  -1  432.06   46.50
 -42   2   1   27.70   33.70
 -40   2   1    7.60   28.20
 -38   2   1  -27.40   25.10
  36  -2  -1   58.09   29.20
 -36  -2   1   51.69   27.30
 -36   2   1   53.59   29.70
 -34  -2   1   23.80   24.30
  34  -2  -1   20.10   27.40
 -34  -2   1   79.59   28.40
 -34   2   1  -10.30   25.50
  32  -2  -1   24.90   25.20
 -32  -2   1   19.00   23.50
 -32  -2   1  -13.00   20.50
 -32   2   1  -25.50   23.90
 -30  -2   1  -13.70   24.20
 -30  -2   1   25.80   20.60
  30  -2  -1  -39.50   22.90
 -30   2   1  -17.10   21.70
  28  -2  -1   89.09   27.40
 -28  -2   1   67.69   27.20
 -28  -2   1   67.49   22.40
 -28   2   1   89.29   27.00
 -26  -2   1  248.38   30.20
  26  -2  -1  300.87   36.50
 -26  -2   1  291.27   35.90
 -26   2   1  262.57   32.40
  24  -2  -1  262.97   33.20
 -24  -2   1  185.08   24.90
 -24  -2   1  206.78   30.00
 -24   2   1  241.58   29.50
 -22  -2   1   -3.30   13.70
  22  -2  -1  -11.20   20.20
 -22  -2   1   -4.90   21.20
 -22   2   1    2.90   18.70
 -20  -2   1   52.79   19.90
 -20  -2   1   23.00   13.60
  20  -2  -1   24.70   20.20
 -20   2   1   20.40   18.10
 -18  -2   1  273.07   27.20
  18  -2  -1  276.47   29.00
 -18  -2   1  269.57   22.10
 -18   2   1  279.97   25.80
  18   2  -1  263.27   15.40
 -16  -2   1    3.00   14.70
  16  -2  -1   17.60   16.20
 -16  -2   1   -5.00    9.30
 -16   2   1    8.30   13.40
  16   2  -1   -0.50    5.90
  14  -2  -1 1078.59   50.69
 -14  -2   1 1104.19   49.90
 -14   2   1 1133.89   47.80
 -12  -2   1  327.87   23.90
  12  -2  -1  336.77   25.60
 -12   2   1  291.07   20.80
   6  -2  -1   57.69   13.70
   6  -2  -1   67.79    9.90
  -6  -2   1   41.70   12.10
  -6  -2   1   67.69    6.40
   4  -2  -1 1218.38   49.20
   4  -2  -1 1203.88   48.10
  -4  -2   1 1354.56   45.30
  -2  -2   1 1749.12   64.09
  -2  -2   1 1683.43   66.79
   2  -2  -1 1922.21   66.09
   2  -2  -1 1876.91   66.79
   0  -2  -1 3278.17  112.69
   0  -2   1 3104.09  112.39
   0  -2   1 3134.79  109.89
   0  -2  -1 3173.48  109.09
  -2  -2  -1 1374.76   53.29
   2  -2   1 1374.16   51.99
  -2  -2  -1 1327.87   48.60
   2  -2   1 1283.87   51.59
   4  -2   1  369.86   22.50
  -4  -2  -1  307.87   15.30
   6  -2   1   93.49   15.90
  -6  -2  -1   67.49    7.20
  -8  -2  -1  407.66   26.50
  -8  -2  -1  446.56   17.80
 -10  -2  -1   35.10   15.00
  10  -2   1   21.40   11.30
  10   2   1   10.00    5.30
 -12  -2  -1   32.80   15.40
  12  -2   1   22.30   16.20
  12   2   1   23.60    6.90
  14  -2   1   25.30   16.80
 -14  -2  -1   15.50   16.30
 -14  -2  -1   -4.50    8.50
  14   2   1   12.90    7.70
 -16  -2  -1   46.40   11.40
  16  -2   1   64.99   19.80
 -16  -2  -1   25.10   18.30
  16   2   1   34.20   10.10
 -16   2  -1   25.30   14.10
 -18  -2  -1  127.19   23.60
  18  -2   1  151.98   26.30
 -18  -2  -1  109.49   16.30
 -18   2  -1  140.59   21.00
  18   2   1  123.09   14.80
 -20  -2  -1   15.20   21.30
  20  -2   1   14.10   23.10
 -20  -2  -1   30.70   14.10
 -20   2  -1   35.20   18.40
 -22  -2  -1   27.30   17.40
  22  -2   1   13.70   23.20
 -22  -2  -1  -17.60   22.50
 -22   2  -1    5.90   18.20
 -24  -2  -1   16.50   23.90
  24  -2   1  -28.60   23.20
 -24  -2  -1   -9.20   17.80
 -24   2  -1   -6.40   20.60
 -26  -2  -1   24.10   26.20
  26  -2   1   60.09   27.70
 -26  -2  -1   30.30   19.10
 -26   2  -1   13.40   23.10
  28  -2   1   20.60   24.40
 -28  -2  -1  -25.50   17.30
 -28  -2  -1    1.40   24.40
 -28   2  -1   21.00   19.70
  30  -2   1   -9.10   24.00
 -30  -2  -1    4.60   25.50
 -30  -2  -1   -5.10   19.60
 -30   2  -1  -44.80   20.40
  32  -2   1  122.19   31.50
 -32  -2  -1   89.19   29.90
 -32   2  -1   72.89   28.20
  34  -2   1  -14.30   27.90
 -34  -2  -1   39.00   28.40
 -34   2  -1   48.10   26.50
  36  -2   1   -6.20   28.80
 -36  -2  -1    3.70   26.90
 -36   2  -1    4.90   25.60
  37  -3  -1  135.19   37.20
 -37  -3   1  230.38   39.80
  35  -3  -1   28.30   28.40
 -35  -3   1  -15.60   29.50
 -35  -3   1  -50.69   24.30
 -33  -3   1   47.20   27.00
 -33  -3   1   45.40   32.10
  33  -3  -1   16.60   27.80
  31  -3  -1  122.89   34.00
 -31  -3   1  120.39   27.60
 -31  -3   1  111.99   31.70
 -29  -3   1  140.39   31.50
  29  -3  -1   92.09   31.30
 -29  -3   1  176.38   28.60
 -27  -3   1  418.26   42.90
  27  -3  -1  414.86   44.00
 -27  -3   1  354.96   34.50
 -25  -3   1  165.98   33.10
  25  -3  -1  106.59   30.60
 -25  -3   1   56.49   20.30
 -23  -3   1   19.10   16.70
  23  -3  -1    9.80   25.70
 -23  -3   1   20.00   25.40
 -21  -3   1  338.57   36.00
  21  -3  -1  294.07   35.90
 -21  -3   1  261.07   26.40
 -19  -3   1 1350.26   66.49
  19  -3  -1 1384.86   67.79
 -17  -3   1   83.49   23.40
  17  -3  -1  131.29   24.10
  15  -3  -1   36.90   19.10
 -15  -3   1    9.30   18.70
 -13  -3   1  344.37   29.80
  11  -3  -1 1542.05   65.39
 -11  -3   1 1506.25   65.19
   9  -3  -1 1480.55   62.79
  -9  -3   1 1523.95   51.69
  -9  -3   1 1460.75   62.69
  -7  -3   1  339.97   17.20
   7  -3  -1  410.36   26.90
   5  -3  -1   -7.30   11.20
  -5  -3   1   -1.20   12.10
   5  -3  -1   -3.50    4.80
  -5  -3   1    0.90    8.30
  -3  -3   1    7.70    9.30
  -3  -3   1   14.00   12.20
   3  -3  -1   -7.20    5.60
   3  -3  -1   -0.10   11.50
  -1  -3   1   15.40   10.90
   1  -3  -1   15.70   11.40
  -1  -3   1   31.90   12.60
   1  -3  -1    4.60   10.00
   1  -3   1   35.60   11.70
  -1  -3  -1   17.40   10.10
  -1  -3  -1    5.50   12.00
   1  -3   1   14.10   12.00
  -3  -3  -1   81.59   16.20
  -3  -3  -1   78.09   11.20
   3  -3   1   81.89   15.60
   3  -3   1   55.19   13.60
   5  -3   1   19.60   12.00
  -5  -3  -1   22.20    8.30
  -5  -3  -1   48.10   15.70
   5  -3   1   39.80   14.80
  -7  -3  -1   45.40   13.10
  -7  -3  -1   71.69    8.90
   7  -3   1   61.39   17.60
  -9  -3  -1 1793.62   63.29
   9  -3   1 1855.71   74.89
  11  -3   1  397.46   29.70
 -11  -3  -1  387.96   17.40
 -11  -3  -1  414.16   29.80
 -13  -3  -1  510.25   37.00
  13   3   1  507.85   20.70
  15  -3   1   92.49   24.10
 -15  -3  -1   94.29   23.70
 -17  -3  -1  350.66   37.10
  17  -3   1  329.37   36.00
  19  -3   1  305.87   36.90
 -19  -3  -1  294.17   35.40
 -19  -3  -1  280.27   25.40
 -21  -3  -1  -19.40   24.60
  21  -3   1  -11.00   26.10
 -21  -3  -1   12.20   14.80
  23  -3   1  -23.10   26.00
 -23  -3  -1   17.30   26.50
 -23  -3  -1    3.30   16.10
 -25  -3  -1   44.10   20.50
 -25  -3  -1   44.50   28.00
  25  -3   1   40.30   28.10
 -27  -3  -1  211.78   28.30
  27  -3   1  180.68   34.30
 -27  -3  -1  148.49   33.10
  29  -3   1  144.89   33.40
 -29  -3  -1  111.99   32.20
 -29  -3  -1  128.39   26.40
 -31  -3  -1   79.09   32.90
  31  -3   1   79.59   34.90
  33  -3   1   21.50   29.70
 -33  -3  -1    9.70   30.30
 -35  -3  -1   79.59   33.30
  35  -3   1  127.89   34.80
  37  -3   1  100.89   35.60
 -37  -3  -1  103.19   36.80
  39  -3   1   54.89   35.80
 -38  -4   1   74.09   36.90
  38  -4  -1   36.10   32.80
  36  -4  -1    4.00   32.80
 -36  -4   1   21.10   35.30
 -34  -4   1  117.89   36.50
  34  -4  -1   70.49   33.80
 -32  -4   1   37.70   33.50
 -32  -4   1  -34.00   20.90
  32  -4  -1  -24.70   29.00
 -30  -4   1   78.19   35.30
 -30  -4   1    6.30   21.10
  30  -4  -1   77.29   31.90
 -28  -4   1   10.70   28.70
 -28  -4   1   29.00   20.70
  28  -4  -1   41.30   29.20
 -26  -4   1   60.19   19.90
 -26  -4   1   26.90   27.60
  26  -4  -1   93.69   30.90
  24  -4  -1  181.48   36.00
 -24  -4   1  195.58   25.30
 -24  -4   1  110.99   33.70
 -22  -4   1   67.99   29.70
  22  -4  -1  117.89   31.20
 -20  -4   1   28.30   28.30
  20  -4  -1   21.10   27.00
 -18  -4   1  338.17   37.30
  16  -4  -1  -27.50   15.40
 -16  -4   1  -10.70   23.50
  16  -4  -1    0.90    6.40
 -14  -4   1   11.50   23.70
  14  -4  -1   44.60   17.40
  14  -4  -1   36.20   23.20
 -12  -4   1    7.20   18.20
  12  -4  -1   32.60   15.30
  12  -4  -1   38.80   21.00
  10  -4  -1   -4.40   17.60
 -10  -4   1   -6.20    6.60
 -10  -4   1   -3.10    7.20
  10  -4  -1    7.60   14.50
   8  -4  -1   16.20   14.60
   8  -4  -1   31.50   18.00
  -8  -4   1   14.30   17.40
  -8  -4   1   17.30    9.20
  -6  -4   1  206.58   18.00
   6  -4  -1  246.68   22.20
   6  -4  -1  223.68   23.80
  -6  -4   1  222.18   25.80
   4  -4  -1  147.09   19.30
  -4  -4   1  132.59   20.40
   4  -4  -1  136.99   20.20
  -4  -4   1  162.08   17.10
  -2  -4   1   14.60   15.70
   2  -4  -1   38.60   16.10
   2  -4  -1   14.30   15.10
  -2  -4   1   40.30   13.90
   0  -4   1   16.50   15.10
   0  -4  -1    3.10   15.70
   0  -4  -1  -21.40   12.40
   0  -4   1  -18.50   13.70
   2  -4   1 1628.84   67.59
  -2  -4  -1 1620.04   62.69
   2  -4   1 1681.73   66.99
  -2  -4  -1 1565.04   68.59
   4  -4   1   61.79   17.70
  -4  -4  -1   92.39   14.10
  -4  -4  -1   83.69   21.80
   4  -4   1  108.79   20.90
  -6  -4  -1  360.96   20.60
   6  -4   1  344.97   30.80
  -6  -4  -1  294.57   29.60
   6  -4   1  345.87   26.50
  -8  -4  -1    2.10   19.80
   8  -4   1   -3.00   18.00
   8  -4   1   -4.90   14.90
  -8  -4  -1    7.90    9.40
  10  -4   1   82.99   23.50
 -10  -4  -1   70.09   16.60
  10  -4   1   71.99   17.10
 -10  -4  -1   94.79   11.80
 -12  -4  -1   -6.70    5.80
  12  -4   1   -7.90   21.40
 -14  -4  -1    9.40    8.70
  14  -4   1   11.00   14.80
 -16  -4  -1  222.28   35.10
  18  -4   1  -24.30   23.60
 -18  -4  -1   21.20   27.30
  20  -4   1    2.40   25.30
 -20  -4  -1  -16.80   27.00
 -22  -4  -1   45.70   29.30
  22  -4   1   -7.40   26.50
 -22  -4  -1    4.80   15.60
 -24  -4  -1   54.39   18.20
 -24  -4  -1   61.39   30.60
  24  -4   1   68.29   29.70
 -26  -4  -1  127.59   24.30
  26  -4   1  126.29   35.40
 -26  -4  -1  174.88   37.00
  28  -4   1   29.60   30.80
 -28  -4  -1   19.70   30.80
  30  -4   1   32.00   32.30
 -30  -4  -1   53.29   35.80
  32  -4   1   37.80   32.10
 -32  -4  -1   77.09   34.50
 -34  -4  -1   85.09   36.20
  34  -4   1   14.50   33.10
 -36  -4  -1   61.99   37.10
  36  -4   1   39.20   35.90
 -38  -4  -1  -19.00   34.40
 -37  -5   1  118.49   45.10
  35  -5  -1   75.09   36.20
 -35  -5   1   54.89   38.60
  33  -5  -1   85.69   35.60
 -33  -5   1   35.50   38.80
 -31  -5   1   57.19   35.90
  31  -5  -1   97.39   34.60
 -29  -5   1   66.49   38.20
 -29  -5   1   81.19   24.40
  29  -5  -1  131.19   37.30
 -27  -5   1  103.19   36.00
  27  -5  -1   91.59   34.00
 -27  -5   1   56.89   21.90
  25  -5  -1    7.00   28.60
 -25  -5   1    4.30   29.90
 -23  -5   1  -20.40   28.20
  23  -5  -1    0.10   26.00
 -21  -5   1   19.80   29.50
  21  -5  -1   18.00   26.30
 -19  -5   1  252.27   37.60
  19  -5  -1  201.68   34.30
  17  -5  -1   37.90   27.20
 -17  -5   1   10.80   27.80
 -15  -5   1   37.80   29.40
  15  -5  -1   74.89   20.90
  15  -5  -1   20.40   26.70
  13  -5  -1   86.19   28.00
  13  -5  -1   97.59   21.80
 -13  -5   1   46.80   24.80
  11  -5  -1  383.26   32.70
  11  -5  -1  371.66   37.00
  -9  -5   1   61.29   23.40
   9  -5  -1   67.19   25.60
   9  -5  -1  128.89   22.90
   7  -5  -1  177.38   26.80
  -7  -5   1  234.18   31.90
   7  -5  -1  201.88   25.60
  -5  -5   1  115.99   18.80
   5  -5  -1   98.69   23.30
  -5  -5   1  139.59   27.00
   5  -5  -1  121.99   23.50
   3  -5  -1    8.80   19.70
   3  -5  -1   37.10   22.30
  -3  -5   1    4.10   21.20
  -3  -5   1   13.10   17.20
  -1  -5   1  174.18   26.20
  -1  -5   1  161.78   22.30
   1  -5  -1  104.99   21.40
   1  -5  -1  135.59   26.60
  -1  -5  -1  260.37   26.30
   1  -5   1  298.77   28.20
  -1  -5  -1  349.57   33.00
   1  -5   1  324.17   31.20
  -3  -5  -1  118.49   27.10
  -3  -5  -1  103.99   19.00
   3  -5   1   73.99   23.70
   3  -5   1   78.09   22.10
  -5  -5  -1   -3.90   23.80
   5  -5   1   29.60   21.50
  -5  -5  -1   21.20   15.00
   5  -5   1   -9.10   22.10
  -7  -5  -1  527.45   43.10
   7  -5   1  505.15   36.40
   7  -5   1  553.64   41.20
  -9  -5  -1  345.07   38.60
   9  -5   1  324.27   31.70
   9  -5   1  343.17   37.00
  11  -5   1  193.98   26.80
 -11  -5  -1  213.08   34.20
  11  -5   1  174.48   33.20
  13  -5   1   81.49   29.60
  13  -5   1   79.49   22.40
 -13  -5  -1   43.10   29.10
  15  -5   1  -10.50   26.50
 -15  -5  -1    7.70   28.60
  15  -5   1   32.80   20.60
  17  -5   1   89.39   31.70
 -17  -5  -1  111.79   33.40
  17  -5   1  208.38   26.10
 -19  -5  -1  488.25   48.50
  19  -5   1  517.15   49.60
 -21  -5  -1  149.88   35.70
  21  -5   1  161.68   35.10
  23  -5   1   71.19   33.10
 -23  -5  -1   22.20   31.80
  25  -5   1   25.60   31.10
 -25  -5  -1   13.00   18.40
 -25  -5  -1    6.10   31.30
 -27  -5  -1  125.69   38.90
  27  -5   1   62.39   34.50
  29  -5   1  107.99   37.90
 -29  -5  -1  151.58   40.30
  31  -5   1   54.09   34.40
 -31  -5  -1   69.59   39.20
  33  -5   1   40.70   35.70
 -33  -5  -1   26.20   37.70
 -35  -5  -1   41.70   42.40
 -34  -6   1   45.20   39.30
 -32  -6   1   -4.30   39.90
 -30  -6   1  -15.60   34.70
  30  -6  -1   57.39   35.00
  28  -6  -1   17.20   30.80
 -28  -6   1   29.70   21.50
 -28  -6   1   21.50   35.40
 -26  -6   1   29.60   36.00
  26  -6  -1   22.30   30.30
  24  -6  -1  104.19   34.30
 -24  -6   1   56.99   35.30
  22  -6  -1  -37.10   25.50
 -22  -6   1   31.60   33.10
  20  -6  -1  306.87   39.80
 -20  -6   1  241.88   40.80
 -18  -6   1    9.10   30.30
  18  -6  -1  -35.60   25.00
  16  -6  -1   27.00   27.00
 -16  -6   1   -3.20   27.30
  14  -6  -1    7.10   21.10
  14  -6  -1   76.19   27.50
 -14  -6   1    5.30   27.10
  12  -6  -1  193.88   31.30
  12  -6  -1  197.68   28.60
 -12  -6   1   83.69   31.90
 -10  -6   1   14.20   27.70
  10  -6  -1   -8.40   19.90
  10  -6  -1  -27.00   21.70
   8  -6  -1  359.86   36.30
  -8  -6   1  472.95   46.30
   8  -6  -1  325.57   34.30
  -6  -6   1  426.56   42.60
   6  -6  -1  463.15   40.30
   6  -6  -1  334.17   35.80
  -4  -6   1  481.95   43.70
   4  -6  -1  366.56   37.30
   4  -6  -1  398.86   35.90
   2  -6  -1  218.38   32.80
  -2  -6   1  240.68   34.30
   2  -6  -1  211.08   28.60
  -2  -6   1  199.18   26.40
   0  -6   1   32.80   22.20
   0  -6  -1   18.10   25.50
   0  -6  -1    2.60   19.70
   0  -6   1   47.00   26.50
  -2  -6  -1   31.10   20.90
   2  -6   1   60.89   24.80
   2  -6   1   18.50   22.80
  -2  -6  -1   99.19   33.20
  -4  -6  -1  -15.00   28.30
   4  -6   1    0.00   22.20
   4  -6   1   41.90   24.40
   6  -6   1   61.29   26.70
  -6  -6  -1   28.70   28.80
   6  -6   1   49.10   23.40
   8  -6   1  220.08   30.70
  -8  -6  -1  222.08   35.40
   8  -6   1  189.68   30.90
 -10  -6  -1   33.60   29.60
  10  -6   1   -1.20   21.70
  10  -6   1   -9.10   24.10
  12  -6   1   35.00   26.50
 -12  -6  -1   30.70   28.50
  12  -6   1   16.50   20.10
 -14  -6  -1   17.80   29.50
  14  -6   1   -9.30   26.30
  14  -6   1    4.90   22.50
 -16  -6  -1  180.58   37.30
  16  -6   1  225.88   30.90
  16  -6   1  171.58   34.60
 -18  -6  -1   -2.80   29.00
  18  -6   1  -30.90   26.60
  20  -6   1   52.59   32.10
 -20  -6  -1  112.79   37.20
  22  -6   1  112.09   36.60
 -22  -6  -1  109.29   37.80
 -24  -6  -1   14.70   34.60
  24  -6   1    1.00   31.30
 -26  -6  -1    7.10   35.70
  26  -6   1   60.19   34.90
  28  -6   1  -14.80   34.70
 -28  -6  -1   56.19   36.00
  30  -6   1   12.70   35.30
 -30  -6  -1   20.80   41.20
 -32  -6  -1   24.00   41.10
 -29  -7   1    3.70   38.60
 -27  -7   1  -28.50   35.90
 -25  -7   1  -27.10   37.40
  25  -7  -1   71.79   35.40
  23  -7  -1   14.30   30.50
 -23  -7   1   27.50   38.50
 -21  -7   1   39.10   35.40
  21  -7  -1   62.79   31.70
  19  -7  -1  378.76   45.10
 -19  -7   1  307.97   47.10
  17  -7  -1   39.80   29.80
 -17  -7   1  -23.70   31.30
 -15  -7   1  -12.90   31.00
  15  -7  -1    4.70   27.10
 -13  -7   1  174.98   38.30
  13  -7  -1  161.58   32.10
 -11  -7   1   83.49   33.30
  11  -7  -1   74.59   27.30
  11  -7  -1   44.80   27.60
  -9  -7   1  -18.80   28.10
   9  -7  -1  -24.50   26.80
   9  -7  -1   35.90   27.30
  -7  -7   1    9.90   31.00
   7  -7  -1   16.70   28.30
   7  -7  -1   32.30   23.20
  -5  -7   1   41.70   31.60
   5  -7  -1   -4.70   26.30
   5  -7  -1   48.20   23.10
   3  -7  -1  205.18   29.70
   3  -7  -1  238.98   37.10
  -3  -7   1  260.07   37.90
  -1  -7   1   41.80   28.90
   1  -7  -1   73.19   31.90
  -1  -7  -1  166.38   36.40
   1  -7   1  170.58   35.70
   3  -7   1   -8.20   25.80
  -3  -7  -1  -82.09   28.90
   3  -7   1  -17.50   23.00
   5  -7   1   -4.40   23.90
  -5  -7  -1   -3.20   29.40
   5  -7   1   18.90   23.20
   7  -7   1  -18.20   22.90
  -7  -7  -1   -9.80   30.00
   7  -7   1   18.80   26.70
   9  -7   1   89.69   30.00
   9  -7   1  131.09   31.20
  -9  -7  -1   76.19   34.70
  11  -7   1   28.30   28.40
  11  -7   1   50.49   27.30
 -11  -7  -1   24.40   32.30
 -13  -7  -1    6.40   31.70
  13  -7   1   55.49   27.10
  13  -7   1   20.60   27.40
  15  -7   1   -3.20   27.00
 -15  -7  -1    0.60   33.60
  17  -7   1  108.29   33.40
 -17  -7  -1   73.29   35.00
 -19  -7  -1    5.20   32.60
  19  -7   1   36.20   30.90
  21  -7   1   21.60   32.60
 -21  -7  -1   29.30   35.10
  23  -7   1   70.49   37.90
 -23  -7  -1   66.69   38.90
 -25  -7  -1   28.70   39.40
  25  -7   1   65.69   36.70
 -27  -7  -1   43.10   40.20
 -24  -8   1  -32.30   40.20
 -22  -8   1  -10.20   36.80
 -20  -8   1    6.60   37.30
  20  -8  -1   64.19   35.20
 -18  -8   1   20.70   37.30
  18  -8  -1   48.50   33.40
 -16  -8   1   22.10   36.30
  16  -8  -1  -12.90   28.00
  14  -8  -1   23.60   26.80
 -14  -8   1   -7.50   35.50
 -12  -8   1   22.30   38.30
  12  -8  -1    6.40   25.20
 -10  -8   1   -9.00   35.30
  10  -8  -1   64.19   29.00
  -8  -8   1  -30.10   34.60
   8  -8  -1    7.10   31.90
   8  -8  -1   35.60   26.60
  -6  -8   1   69.09   36.50
   6  -8  -1   10.90   30.60
   4  -8  -1   31.40   35.90
  -4  -8   1  -29.00   33.50
  -2  -8   1   16.70   36.60
   2  -8  -1   -3.50   37.20
   0  -8   1  -32.60   30.50
   0  -8  -1  -18.80   32.90
  -2  -8  -1   49.60   35.50
   2  -8   1   84.09   34.10
  -4  -8  -1   -8.70   35.50
   4  -8   1   25.90   33.10
   6  -8   1  174.28   39.60
  -6  -8  -1  151.88   40.30
   8  -8   1   83.29   30.00
  -8  -8  -1  -11.90   34.30
   8  -8   1   57.39   32.50
  10  -8   1   13.90   32.00
 -10  -8  -1    1.60   33.80
  10  -8   1   24.90   27.90
  12  -8   1    7.00   26.50
 -12  -8  -1  -16.90   35.60
 -14  -8  -1   53.09   40.60
  14  -8   1  151.68   37.20
 -16  -8  -1   56.69   41.70
  16  -8   1   50.89   34.00
  18  -8   1   20.80   32.60
 -18  -8  -1   54.39   41.20
  20  -8   1   33.80   38.50
 -20  -8  -1   35.60   40.00
 -22  -8  -1    8.20   37.50
  15  -9  -1  100.39   36.70
 -13  -9   1   38.30   42.20
 -11  -9   1    3.40   40.90
  -9  -9   1  -38.20   38.20
  -7  -9   1   17.50   40.80
   5  -9  -1  -60.19   41.40
  -5  -9   1  -68.59   36.10
   3  -9  -1    5.50   41.50
  -3  -9   1  -36.80   39.00
  -1  -9   1   -8.80   43.60
   1  -9  -1  -33.00   36.50
  -1  -9  -1   54.09   43.50
   1  -9   1   60.69   42.60
  -3  -9  -1  -93.29   36.30
   3  -9   1  -18.80   39.90
   5  -9   1   28.00   39.50
  -5  -9  -1    7.50   43.80
   7  -9   1  -46.50   37.50
  -7  -9  -1   -6.10   39.90
  -9  -9  -1   25.90   41.10
 -11  -9  -1    7.40   42.60
  13  -9   1  134.29   38.40
 -13  -9  -1  -55.49   41.10
 -42   0   2    0.50   27.00
 -40   0   2  138.89   33.60
 -38   0   2  110.39   30.30
 -36   0   2   81.69   27.00
 -34   0   2  -43.00   19.90
 -32   0   2   29.20   22.00
 -30   0   2  171.78   28.30
 -28   0   2 2119.09   88.99
  28   0  -2 2061.89   85.09
 -28   0   2 2063.19   85.89
 -26   0   2  466.75   33.60
 -26   0   2  474.95   37.10
  26   0  -2  466.95   34.40
 -24   0   2  100.49   18.60
  24   0  -2   97.79   20.10
 -24   0   2   92.49   19.60
  22   0  -2  211.48   23.20
 -22   0   2  233.18   25.80
 -22   0   2  277.87   24.60
 -20   0   2  977.90   44.50
  20   0  -2 1011.30   44.40
 -20   0   2  944.41   45.50
 -18   0   2 1016.30   45.80
 -18   0   2  986.10   43.90
 -16   0   2  261.57   20.00
 -16   0   2  251.97   19.90
  16   0  -2  251.87   19.40
 -14   0   2  178.98   16.10
  14   0  -2  166.68   15.90
 -12   0   2  893.61   38.50
  12   0  -2  967.90   37.90
 -12   0   2  961.30   38.60
  10   0  -2   61.79   10.60
 -10   0   2   95.29   12.00
   8   0  -2  588.14   24.30
   6   0  -2  215.58   11.30
   4   0  -2  567.84   21.10
  -2   0  -2 3228.88  108.79
  -4   0  -2  237.18   15.10
   4   0   2  256.77   13.70
  -6   0  -2 1072.39   42.10
   6   0   2  998.20   39.40
   8   0   2 2908.01  101.19
  -8   0  -2 2943.61   97.69
  -8   0  -2 2778.12  104.29
 -10   0  -2   14.50    8.70
 -10   0  -2    9.40   10.70
  10   0   2   12.40    9.30
  12   0   2  272.77   18.70
 -12   0  -2  200.38   19.40
 -12   0  -2  198.28   17.30
 -16   0  -2  300.67   22.60
 -16   0  -2  300.27   26.30
  16   0   2  285.77   24.60
  18   0   2 2974.00  116.49
 -18   0  -2 3301.57  114.59
 -18   0  -2 3266.27  120.99
 -20   0  -2  270.37   27.10
 -20   0  -2  252.07   24.90
  20   0   2  227.18   26.20
 -22   0  -2   22.10   16.90
  22   0   2    3.30   19.10
 -22   0  -2   34.70   18.40
  24   0   2   -2.90   20.50
 -24   0  -2    9.80   18.80
 -24   0  -2  -29.60   15.90
 -26   0  -2  618.14   43.80
 -26   0  -2  701.93   44.80
  26   0   2  793.62   46.60
 -28   0  -2  797.52   48.20
  28   0   2  723.43   48.30
 -28   0  -2  801.12   49.20
 -30   0  -2   26.40   22.70
 -30   0  -2   15.10   18.10
 -32   0  -2   60.99   23.30
 -32   0  -2   28.60   24.80
 -43   1   2    9.50   30.70
 -41  -1   2   72.69   29.20
 -41   1   2  -28.70   25.60
 -39  -1   2   17.70   25.00
 -39   1   2   46.40   27.80
 -37  -1   2   35.50   25.50
 -37   1   2   50.99   27.50
 -35  -1   2  172.28   30.70
 -35   1   2  170.68   33.20
 -33  -1   2  539.15   44.80
  33  -1  -2  605.84   44.10
 -33   1   2  634.74   48.50
 -31  -1   2  265.07   32.20
  31  -1  -2  267.17   32.70
 -31  -1   2  301.97   33.80
 -31   1   2  250.77   33.80
  29  -1  -2   32.90   21.40
 -29  -1   2   26.90   21.20
 -29  -1   2   21.40   20.70
 -29   1   2   -9.00   21.20
 -27  -1   2  365.56   34.40
 -27  -1   2  258.67   31.00
  27  -1  -2  332.17   34.60
 -27   1   2  313.77   34.90
 -25  -1   2   18.50   18.40
  25  -1  -2   18.20   19.50
 -25  -1   2   20.20   17.90
 -25   1   2   19.20   19.90
 -25   1   2   43.90   15.40
  23  -1  -2  390.36   33.60
 -23  -1   2  396.36   31.50
 -23  -1   2  399.66   32.90
 -23   1   2  374.76   26.90
 -23   1   2  384.26   34.00
  21  -1  -2  545.85   34.90
 -21  -1   2  588.74   35.00
 -21  -1   2  583.84   35.30
 -21   1   2  615.14   31.30
  21   1  -2  576.04   29.10
 -21   1   2  566.64   35.50
  19  -1  -2  766.82   40.60
 -19  -1   2  772.42   38.80
 -19  -1   2  831.82   39.50
 -19   1   2  754.32   35.60
  19   1  -2  739.83   33.30
 -19   1   2  802.32   41.60
 -17  -1   2  281.47   23.30
 -17  -1   2  261.57   21.30
  17  -1  -2  244.78   23.10
  17   1  -2  238.98   16.30
 -17   1   2  251.37   22.90
 -17   1   2  256.27   17.70
  15  -1  -2  421.46   27.00
 -15  -1   2  449.36   25.30
 -15  -1   2  471.05   27.30
  15   1  -2  460.85   21.30
 -15   1   2  474.15   28.40
 -15   1   2  494.25   23.00
 -13  -1   2  912.91   40.90
 -13   1   2  966.20   37.10
  13   1  -2  970.20   35.40
 -11  -1   2   -4.20    6.70
  11  -1  -2   -4.00   10.10
 -11  -1   2   14.20   10.70
 -11   1   2   -7.60    2.70
  11   1  -2    3.20    5.20
   9  -1  -2  129.59   14.50
  -9  -1   2  178.88   14.90
   9   1  -2  135.19    7.80
   7  -1  -2  383.46   20.70
  -7  -1   2  420.86   20.90
   7   1  -2  394.56   14.20
  -5  -1   2 2771.82   98.79
  -5   1   2 2877.11   94.69
   3  -1  -2 2063.49   70.49
  -3  -1   2 1983.80   68.39
  -1  -1   2   16.10    6.10
   1  -1  -2   16.00    5.60
   1  -1   2 3955.90  134.99
  -1  -1  -2 4018.60  133.49
   3  -1   2  501.95   23.40
  -7  -1  -2  308.07   15.30
   7  -1   2  335.47   21.20
  -7  -1  -2  308.97   22.50
   7   1   2  313.47   15.50
  -9  -1  -2  102.79   10.30
  -9  -1  -2  108.69   16.40
   9   1   2  127.09   11.10
  -9   1  -2   87.39   11.50
 -11  -1  -2  140.59   12.80
  11  -1   2   88.39   16.10
 -11  -1  -2  141.89   18.40
 -11   1  -2  108.39   13.70
  11   1   2  139.19   12.60
  13  -1   2 5343.97  184.78
 -13  -1  -2 4823.62  175.58
 -13  -1  -2 5299.97  188.78
 -13   1  -2 5484.25  186.88
  13   1   2 5397.86  179.78
 -13   1  -2 5304.67  177.88
  15  -1   2  750.02   40.90
 -15  -1  -2  769.82   40.80
 -15  -1  -2  703.73   34.40
 -15   1  -2  805.52   37.20
  15   1   2  747.33   34.60
 -15   1  -2  774.02   38.30
 -17  -1  -2  390.66   25.60
  17  -1   2  422.16   33.00
 -17  -1  -2  403.56   31.30
 -17   1  -2  449.76   29.20
 -17   1  -2  441.96   28.90
 -19  -1  -2  288.07   25.50
 -19  -1  -2  303.57   30.00
  19  -1   2  318.37   31.70
 -19   1  -2  294.47   25.50
  19   1   2  309.87   25.40
 -19   1  -2  302.47   27.30
 -21  -1  -2  115.49   23.70
 -21  -1  -2   87.79   18.40
  21  -1   2   94.99   25.80
 -21   1  -2  103.79   21.00
  21   1   2  100.49   20.00
 -21   1  -2   92.59   20.60
  23  -1   2  297.57   34.80
 -23  -1  -2  285.97   28.50
 -23  -1  -2  371.36   34.70
  23   1   2  317.67   29.80
 -23   1  -2  306.27   30.70
 -23   1  -2  297.67   31.90
 -25  -1  -2  -27.10   21.40
  25  -1   2   14.50   25.70
 -25  -1  -2   -8.60   16.70
 -25   1  -2   34.80   21.20
 -25   1  -2   33.00   19.10
 -27  -1  -2   65.39   22.60
 -27  -1  -2  105.79   26.70
  27  -1   2   77.29   28.10
 -27   1  -2   57.59   24.50
 -27   1  -2  107.29   23.30
 -29  -1  -2    7.30   20.90
  29  -1   2   24.60   25.50
 -29  -1  -2   33.70   22.30
 -29   1  -2    8.30   21.60
 -29   1  -2   25.70   18.80
  31  -1   2   13.70   26.10
 -31  -1  -2   23.70   21.40
 -31   1  -2    1.90   22.30
 -33  -1  -2  316.87   38.20
 -33   1  -2  320.87   38.50
 -35  -1  -2   81.09   27.90
 -42   2   2   19.60   30.70
 -40   2   2   12.10   29.50
 -38  -2   2  589.34   52.99
 -38   2   2  565.64   55.29
  36  -2  -2   11.30   25.40
 -36  -2   2  -10.50   25.40
 -36   2   2   31.80   25.20
 -34  -2   2   79.39   27.70
  34  -2  -2   92.89   29.60
 -34  -2   2  124.89   30.60
 -34   2   2   81.69   30.50
 -32  -2   2   -1.80   21.30
  32  -2  -2   25.30   24.20
 -32  -2   2  -20.70   23.40
 -32   2   2   26.00   21.30
 -30  -2   2  976.70   57.39
  30  -2  -2  896.61   54.49
 -30  -2   2  903.41   53.59
 -30   2   2  884.31   55.29
 -28  -2   2    4.70   22.00
  28  -2  -2  -12.50   21.50
 -28  -2   2  -12.90   19.00
 -28   2   2   -2.40   19.70
 -26  -2   2  386.76   37.40
 -26  -2   2  309.47   32.30
  26  -2  -2  343.67   38.00
 -26   2   2  376.66   38.90
 -24  -2   2  190.18   29.70
  24  -2  -2  213.38   30.70
 -24  -2   2  177.98   24.60
 -24   2   2  230.38   30.90
 -22  -2   2  494.15   36.70
 -22  -2   2  521.65   32.10
  22  -2  -2  511.15   38.70
 -22   2   2  508.65   39.10
 -20  -2   2   -7.30   16.90
  20  -2  -2   -3.50   17.90
 -20  -2   2   -8.40   12.30
 -20   2   2   -6.90   16.20
 -18  -2   2 2747.23  100.79
  18  -2  -2 2742.33  105.99
 -18  -2   2 2724.63  105.59
 -18   2   2 2745.53  103.59
  18   2  -2 2808.12   93.19
 -16  -2   2  430.26   25.50
  16  -2  -2  370.56   29.60
 -16  -2   2  367.86   29.10
 -16   2   2  392.76   28.50
  14  -2  -2  213.38   22.50
 -14  -2   2  244.78   22.00
 -14   2   2  218.78   20.20
  12  -2  -2  -13.00   10.70
 -12  -2   2   23.50   13.10
 -12   2   2   14.70    6.00
   8  -2  -2    3.00    9.10
   8  -2  -2   40.80    8.70
  -8  -2   2   44.70   12.70
  -6  -2   2  492.25   26.40
   6  -2  -2  503.25   23.50
   6  -2  -2  481.65   26.30
  -6  -2   2  520.55   20.30
   4  -2  -2 1769.22   63.89
  -4  -2   2 1704.73   61.29
   4  -2  -2 1763.42   64.59
   2  -2  -2 9496.65  330.87
  -2  -2   2 9866.71  324.17
   2  -2  -2 9885.91  324.97
   0  -2  -2 3625.54  121.79
   0  -2   2 3447.05  125.29
   0  -2   2 3459.55  122.89
   0  -2  -2 3666.83  125.69
   2  -2   2   32.90   12.20
  -2  -2  -2   24.50    8.00
  -2  -2  -2   37.30   12.70
  -4  -2  -2 1619.74   57.39
   4  -2   2 1623.54   62.99
   6  -2   2   38.80   14.50
  -6  -2  -2   52.19    7.60
  10  -2   2 2772.52  107.49
 -10  -2  -2 2983.80  109.79
 -10  -2  -2 2967.00   99.79
 -12  -2  -2 2342.97   93.09
  12  -2   2 2481.25   93.19
  12   2   2 2314.07   82.49
  14  -2   2   53.99   19.60
 -14  -2  -2   45.00   18.60
 -14  -2  -2   30.30   10.70
  14   2   2   43.00    9.20
  16  -2   2  -10.60   18.20
 -16  -2  -2   -7.20   18.40
 -16  -2  -2    9.90   10.90
  16   2   2   -2.20    9.50
 -18  -2  -2 1449.26   59.59
  18  -2   2 1472.45   68.59
 -18  -2  -2 1489.05   69.39
  18   2   2 1517.85   57.79
  20  -2   2   -7.80   21.70
 -20  -2  -2   13.50   14.30
 -20  -2  -2  -17.40   21.10
 -20   2  -2    9.80   17.30
 -22  -2  -2   -2.80   16.10
  22  -2   2    6.20   24.10
 -22  -2  -2   12.40   25.20
 -22   2  -2    7.60   19.10
  24  -2   2  565.34   47.90
 -24  -2  -2  433.16   36.20
 -24  -2  -2  570.24   47.50
 -24   2  -2  479.35   37.30
  26  -2   2  572.54   49.00
 -26  -2  -2  580.14   39.00
 -26  -2  -2  588.34   48.00
 -26   2  -2  533.45   43.40
  28  -2   2    6.80   24.60
 -28  -2  -2   18.80   26.20
 -28  -2  -2   -3.70   17.60
 -28   2  -2   13.60   22.60
 -30  -2  -2  104.39   29.10
  30  -2   2  172.18   33.70
 -30   2  -2  117.49   28.80
  32  -2   2  260.07   40.90
 -32  -2  -2  291.67   41.30
 -32   2  -2  321.27   40.50
 -34  -2  -2  411.56   46.80
  34  -2   2  385.46   46.50
 -36  -2  -2   98.69   31.40
  39  -3  -2  115.09   35.90
 -37  -3   2  -28.00   27.00
  37  -3  -2   47.40   29.10
 -35  -3   2  -50.59   21.30
  35  -3  -2    9.90   28.20
 -35  -3   2   23.20   27.80
 -33  -3   2   54.79   29.90
 -33  -3   2   76.79   26.60
  33  -3  -2   39.40   28.40
  31  -3  -2   85.39   30.40
 -31  -3   2   94.69   29.50
 -31  -3   2   59.49   24.30
 -29  -3   2   60.89   23.50
  29  -3  -2    1.40   25.00
 -29  -3   2  112.89   32.30
 -27  -3   2  667.23   49.99
 -27  -3   2  709.43   44.70
  27  -3  -2  700.23   50.09
 -25  -3   2  273.67   29.90
 -25  -3   2  264.37   36.80
  25  -3  -2  331.97   39.30
 -23  -3   2  851.81   45.30
  23  -3  -2  837.42   53.09
 -23  -3   2  753.32   53.89
 -21  -3   2  397.16   37.30
  21  -3  -2  361.46   38.20
 -19  -3   2  181.88   27.90
  19  -3  -2  182.08   29.00
 -17  -3   2 1596.14   70.49
  17  -3  -2 1554.84   70.49
 -15  -3   2   36.40   18.80
  15  -3  -2   41.00   14.60
 -13  -3   2   74.29   19.00
  13  -3  -2   12.10    9.60
  13  -3  -2   69.89   10.20
 -11  -3   2   83.19   19.20
  11  -3  -2   67.29   11.60
  11  -3  -2   68.19   16.20
   9  -3  -2  489.45   25.40
  -9  -3   2  490.15   31.20
   9  -3  -2  459.35   30.40
  -9  -3   2  502.35   19.80
   7  -3  -2  204.98   16.60
   7  -3  -2  179.58   19.70
  -7  -3   2  202.48   13.40
   5  -3  -2  186.18   18.30
  -5  -3   2   85.69   11.30
   5  -3  -2   82.69   11.00
  -3  -3   2   28.80   10.90
   3  -3  -2   -6.00    5.40
  -3  -3   2   24.10   11.00
   3  -3  -2   21.40   12.30
  -1  -3   2  407.06   25.30
  -1  -3   2  405.66   23.80
   1  -3  -2  389.96   23.40
  -1  -3  -2  201.48   16.90
  -1  -3  -2  236.18   21.90
   1  -3   2  193.18   18.90
   1  -3   2  218.58   19.40
  -3  -3  -2   35.00   14.90
  -3  -3  -2   27.10    9.20
   3  -3   2   32.60   13.90
   3  -3   2    6.10   12.00
  -5  -3  -2  120.29   11.90
   5  -3   2  120.29   19.00
  -5  -3  -2  133.99   19.50
   7  -3   2   19.00   16.20
  -7  -3  -2   36.80   16.50
  -7  -3  -2   32.90    8.20
  -9  -3  -2  227.88   14.00
   9  -3   2  249.18   26.10
 -11  -3  -2   20.70    7.10
 -11  -3  -2   15.50   18.50
  11  -3   2   10.60   17.90
 -15  -3  -2   18.10   23.20
  15  -3   2   -0.30   16.80
  17  -3   2   96.89   27.20
 -17  -3  -2   57.39   15.50
 -17  -3  -2   17.20   22.50
 -19  -3  -2  128.09   19.80
 -19  -3  -2  213.18   32.90
  19  -3   2  180.88   32.60
  21  -3   2   69.49   28.30
 -21  -3  -2   80.49   30.10
 -21  -3  -2   98.09   19.00
 -23  -3  -2   74.39   19.60
 -23  -3  -2   18.10   28.50
  23  -3   2   42.70   27.80
  25  -3   2  262.17   38.70
 -25  -3  -2  301.67   30.90
 -25  -3  -2  291.17   39.10
 -27  -3  -2   50.29   29.30
  27  -3   2  166.08   34.70
  29  -3   2    5.80   30.60
 -29  -3  -2   -3.90   26.70
  31  -3   2  140.79   35.40
 -31  -3  -2   87.09   33.40
  33  -3   2  323.77   45.90
 -33  -3  -2  258.37   43.50
 -35  -3  -2   13.50   29.80
  35  -3   2   -1.60   32.50
  37  -3   2   44.30   36.10
 -37  -3  -2   67.99   37.30
 -39  -3  -2   93.49   40.30
  40  -4  -2  222.08   45.70
  38  -4  -2  115.09   37.90
 -38  -4   2  103.29   38.90
  36  -4  -2   54.79   34.00
 -36  -4   2  121.49   39.00
 -34  -4   2  158.38   40.40
 -34  -4   2  107.39   31.40
  34  -4  -2  171.88   38.30
  32  -4  -2   82.89   33.30
 -32  -4   2   42.50   24.90
 -32  -4   2  101.89   37.00
 -30  -4   2   94.09   37.00
 -30  -4   2  177.78   30.10
  30  -4  -2  178.88   36.30
  28  -4  -2  815.12   57.79
 -28  -4   2  847.52   50.69
 -28  -4   2  787.52   57.79
 -26  -4   2  121.49   32.50
  26  -4  -2  176.08   34.70
 -26  -4   2  117.19   23.70
 -24  -4   2    4.80   25.50
 -24  -4   2  -17.10   16.00
  24  -4  -2   16.70   26.70
  22  -4  -2   -2.00   24.90
 -22  -4   2   -9.10   25.80
  20  -4  -2  872.51   55.19
 -20  -4   2  911.11   56.39
 -18  -4   2    9.60   24.50
  18  -4  -2    4.40    5.50
  18  -4  -2    9.00   14.90
 -16  -4   2  132.09   28.70
  16  -4  -2  124.19   19.30
  14  -4  -2  161.88   20.30
  14  -4  -2  130.49   26.00
 -14  -4   2  166.98   29.60
  12  -4  -2  721.93   43.80
  12  -4  -2  747.53   38.30
 -12  -4   2  752.72   46.10
  10  -4  -2  445.96   28.50
 -10  -4   2  414.56   19.60
  10  -4  -2  390.06   32.20
   8  -4  -2  205.78   20.60
  -8  -4   2  174.28   15.10
   8  -4  -2  153.88   23.00
  -6  -4   2   50.39   18.60
   6  -4  -2   71.39   15.90
  -6  -4   2   18.70   11.70
   6  -4  -2   58.89   17.80
   4  -4  -2  245.38   22.80
  -4  -4   2  166.98   17.90
   4  -4  -2  159.18   21.20
  -4  -4   2  146.49   21.70
  -2  -4   2  328.07   28.20
  -2  -4   2  381.46   25.70
   2  -4  -2  323.87   25.80
   2  -4  -2  354.56   29.10
   0  -4  -2 2134.69   84.69
   0  -4   2 2121.99   84.69
   0  -4  -2 2071.49   79.79
   0  -4   2 2170.88   81.79
  -2  -4  -2    1.40   12.10
   2  -4   2   19.50   15.30
   2  -4   2   11.80   14.90
  -2  -4  -2    5.10   18.20
  -4  -4  -2  731.13   32.90
  -4  -4  -2  695.23   41.30
   4  -4   2  670.93   39.80
   4  -4   2  723.03   38.50
   6  -4   2  118.19   19.50
  -6  -4  -2   97.89   13.60
   6  -4   2   85.79   22.20
  -6  -4  -2   98.79   23.40
  -8  -4  -2 1397.06   53.59
  -8  -4  -2 1437.46   66.49
   8  -4   2 1433.06   66.19
   8  -4   2 1471.95   62.09
  10  -4   2  144.49   26.20
 -10  -4  -2  167.78   24.50
 -14  -4  -2   -5.00    7.70
  14  -4   2    1.00   13.70
  18  -4   2  156.38   34.20
 -18  -4  -2   98.69   33.60
  20  -4   2   37.40   30.30
 -20  -4  -2  142.59   34.30
 -22  -4  -2  188.28   35.70
  22  -4   2  118.69   33.50
 -22  -4  -2   98.19   21.20
  24  -4   2  -16.20   27.00
 -24  -4  -2   25.60   29.40
 -24  -4  -2   55.89   19.60
  26  -4   2   17.90   29.50
 -26  -4  -2   26.00   30.90
  28  -4   2  447.76   51.09
 -28  -4  -2  437.56   50.19
  30  -4   2   26.20   33.00
 -30  -4  -2  -12.00   30.90
 -32  -4  -2   31.50   33.60
  32  -4   2   53.59   35.00
 -34  -4  -2    3.10   34.50
  34  -4   2    7.90   34.90
  36  -4   2   60.49   37.60
 -36  -4  -2   37.10   36.50
 -37  -5   2    9.10   38.80
  35  -5  -2   83.99   37.20
 -35  -5   2   68.09   37.70
 -33  -5   2    3.90   22.40
 -33  -5   2  -16.80   31.40
  33  -5  -2   45.40   31.60
 -31  -5   2  -26.30   19.70
 -31  -5   2   -1.60   32.10
  31  -5  -2  -14.70   28.40
  29  -5  -2   18.30   29.00
 -29  -5   2   53.19   37.40
 -29  -5   2   57.09   22.30
 -27  -5   2  -10.30   32.00
 -27  -5   2    6.70   19.00
  27  -5  -2    4.80   28.40
 -25  -5   2    1.60   29.10
  25  -5  -2  -14.40   24.30
 -23  -5   2   42.30   30.00
  23  -5  -2   42.60   27.50
  21  -5  -2   87.39   29.30
 -21  -5   2   74.49   31.20
 -19  -5   2   26.50   27.20
  19  -5  -2   61.59   26.90
  17  -5  -2    1.00   25.30
 -17  -5   2   15.30   28.30
  15  -5  -2  -16.30   17.50
 -15  -5   2  -11.80   26.80
  15  -5  -2   -3.90   23.80
  13  -5  -2  135.79   23.00
  13  -5  -2  131.59   28.20
  11  -5  -2   78.89   25.20
  11  -5  -2   49.00   19.90
  -9  -5   2  -26.60    8.30
   9  -5  -2  -15.00   21.10
   9  -5  -2   41.10   19.70
   7  -5  -2  439.26   35.40
  -7  -5   2  481.45   40.00
   7  -5  -2  420.06   34.70
  -5  -5   2  365.36   28.30
   5  -5  -2  278.47   30.00
  -5  -5   2  338.37   34.60
   5  -5  -2  348.07   30.80
  -3  -5   2  236.68   28.80
   3  -5  -2  236.38   28.20
  -3  -5   2  269.87   25.10
   3  -5  -2  233.58   26.00
   1  -5  -2  376.46   35.60
   1  -5  -2  390.26   31.00
  -1  -5   2  387.56   31.40
  -1  -5   2  395.06   35.00
  -1  -5  -2  293.57   27.20
   1  -5   2  342.07   32.20
  -1  -5  -2  299.07   34.30
   1  -5   2  323.57   29.80
  -3  -5  -2    5.90   15.40
   3  -5   2  -26.80   19.90
   3  -5   2   34.90   20.70
  -3  -5  -2    6.50   22.70
   5  -5   2  119.99   26.20
  -5  -5  -2  112.29   17.90
   5  -5   2   95.89   23.80
  -5  -5  -2  118.19   28.30
   7  -5   2  287.77   34.30
  -7  -5  -2  349.96   37.40
   7  -5   2  283.57   30.00
   9  -5   2  321.97   30.80
  -9  -5  -2  242.28   34.30
   9  -5   2  303.57   35.70
  11  -5   2   24.30   27.10
  11  -5   2   24.10   21.00
 -11  -5  -2   30.00   29.00
  13  -5   2  156.08   32.70
  13  -5   2  205.38   28.30
 -13  -5  -2  227.78   36.50
 -15  -5  -2   91.29   31.90
  15  -5   2   76.09   30.10
  15  -5   2  109.09   23.90
  17  -5   2  -11.40   27.30
 -17  -5  -2   18.90   28.30
  19  -5   2   66.19   30.40
 -19  -5  -2    7.70   29.90
  21  -5   2   71.59   31.70
 -21  -5  -2  105.19   34.90
 -23  -5  -2   36.10   33.20
  23  -5   2   10.00   30.40
  25  -5   2   33.10   32.30
 -25  -5  -2   17.50   33.30
 -27  -5  -2  -33.90   31.70
  27  -5   2   13.70   33.30
  29  -5   2   80.09   37.40
 -29  -5  -2   90.29   37.10
  31  -5   2   -1.30   33.90
 -31  -5  -2   -0.10   34.10
 -33  -5  -2   17.60   35.90
  33  -5   2   -8.00   37.40
 -35  -5  -2   83.59   40.70
 -34  -6   2   16.30   42.00
  32  -6  -2   15.20   33.80
 -32  -6   2  -12.00   35.00
 -30  -6   2  318.17   49.10
 -30  -6   2  204.98   32.50
  30  -6  -2  186.08   41.80
 -28  -6   2   28.70   21.40
 -28  -6   2   26.30   34.70
  28  -6  -2   11.70   30.30
  26  -6  -2   84.69   33.20
 -26  -6   2   50.09   36.80
  24  -6  -2   77.79   32.70
 -24  -6   2   18.40   33.50
  22  -6  -2  295.37   40.20
 -22  -6   2  200.68   40.00
 -20  -6   2   85.79   34.70
  20  -6  -2  138.49   33.10
 -18  -6   2  463.55   46.60
  18  -6  -2  423.86   44.40
 -16  -6   2   27.30   27.90
  16  -6  -2   65.09   28.20
  14  -6  -2   68.99   26.60
 -14  -6   2  123.69   31.80
 -12  -6   2   17.10   26.90
  12  -6  -2    4.70   24.90
  12  -6  -2   18.50   21.10
  10  -6  -2  614.04   44.30
  10  -6  -2  568.64   40.20
 -10  -6   2  588.04   50.89
   8  -6  -2  -24.40   22.70
   8  -6  -2   34.40   23.50
  -8  -6   2   -8.40   26.00
  -6  -6   2  -30.50   24.20
   6  -6  -2   -6.20   22.30
   6  -6  -2  -16.40   24.10
   4  -6  -2  102.59   23.80
   4  -6  -2   52.29   27.80
  -4  -6   2   39.90   27.20
   2  -6  -2  783.72   46.10
  -2  -6   2  797.52   46.90
  -2  -6   2  766.82   54.99
   2  -6  -2  841.22   52.19
   0  -6  -2   15.90   27.90
   0  -6   2   13.20   23.90
   0  -6   2    3.50   21.40
   0  -6  -2   11.50   20.30
  -2  -6  -2  284.57   37.30
   2  -6   2  203.58   31.20
  -2  -6  -2  248.88   27.90
   2  -6   2  225.98   30.90
  -4  -6  -2   82.79   30.60
   4  -6   2  109.59   28.10
   4  -6   2   98.19   26.40
   6  -6   2  166.08   30.20
   6  -6   2  196.08   29.70
  -6  -6  -2  203.78   35.10
   8  -6   2   35.90   26.20
  -8  -6  -2   28.50   29.70
   8  -6   2   31.30   22.70
  10  -6   2  120.69   27.40
 -10  -6  -2   97.99   31.60
  10  -6   2   61.79   30.60
 -12  -6  -2  273.67   39.80
  12  -6   2  276.17   33.00
  12  -6   2  213.98   36.80
 -14  -6  -2   27.70   30.60
  14  -6   2   29.50   28.90
  14  -6   2   -2.30   22.40
  16  -6   2   59.09   24.50
  16  -6   2   79.99   31.90
 -16  -6  -2  112.69   35.50
  18  -6   2  258.47   41.20
 -18  -6  -2  225.48   40.50
  20  -6   2   40.30   34.00
 -20  -6  -2   59.09   35.40
 -22  -6  -2   51.59   36.30
  22  -6   2   89.49   35.40
 -24  -6  -2   77.49   38.10
  24  -6   2   58.19   35.00
 -26  -6  -2   31.10   36.70
  26  -6   2   53.99   36.70
  28  -6   2  -40.20   32.40
 -28  -6  -2  -13.70   36.60
 -30  -6  -2   62.89   40.10
 -32  -6  -2   30.40   39.30
 -29  -7   2   37.60   39.90
 -27  -7   2   11.60   36.50
  27  -7  -2   17.30   32.30
 -25  -7   2  110.09   40.30
  25  -7  -2  115.69   35.90
 -23  -7   2   44.10   34.90
  23  -7  -2   43.00   31.80
 -21  -7   2   -0.80   33.80
  21  -7  -2   20.20   29.10
 -19  -7   2  -10.90   31.40
  19  -7  -2   25.20   28.50
  15  -7  -2  117.59   32.50
 -15  -7   2   55.29   33.30
 -13  -7   2   65.39   33.80
  13  -7  -2   97.79   30.60
  11  -7  -2   32.60   25.50
  11  -7  -2   37.10   30.20
 -11  -7   2   81.69   34.10
   9  -7  -2   76.59   25.80
   9  -7  -2   29.80   29.30
  -9  -7   2   84.39   35.10
   7  -7  -2   -5.30   27.60
   7  -7  -2   16.10   22.00
  -7  -7   2   -9.60   29.60
   5  -7  -2  110.79   26.10
   5  -7  -2   62.09   30.70
  -5  -7   2  147.39   33.30
   3  -7  -2   71.99   23.70
  -3  -7   2   36.40   29.40
   3  -7  -2   97.79   32.00
  -1  -7   2   18.00   30.70
   1  -7  -2   25.00   32.20
  -1  -7  -2   10.30   29.50
   1  -7   2   20.30   29.00
   3  -7   2   26.60   25.70
   3  -7   2   14.50   24.70
  -3  -7  -2   15.50   29.80
   5  -7   2  143.89   30.20
  -5  -7  -2  120.89   36.60
   5  -7   2   73.89   29.30
   7  -7   2    1.20   24.40
  -7  -7  -2   17.90   31.70
   7  -7   2   13.70   27.20
   9  -7   2   -8.30   22.70
   9  -7   2   -2.50   26.80
  -9  -7  -2    2.10   31.20
  11  -7   2  186.08   32.80
  11  -7   2  164.68   32.30
 -11  -7  -2  148.29   37.50
  13  -7   2   30.00   28.80
 -13  -7  -2  -23.00   31.20
  13  -7   2   -1.10   26.60
 -15  -7  -2   78.79   36.70
  15  -7   2   14.10   28.00
  17  -7   2   96.99   34.00
 -17  -7  -2  111.09   39.10
 -19  -7  -2  107.89   41.90
  19  -7   2  179.48   39.50
  21  -7   2   -4.40   30.80
 -21  -7  -2  -67.79   31.00
 -23  -7  -2   -6.70   36.90
  23  -7   2   27.50   34.80
 -25  -7  -2   48.50   42.00
 -27  -7  -2   33.70   41.60
 -24  -8   2   48.70   40.50
 -22  -8   2   32.10   38.30
 -20  -8   2   64.09   42.40
  20  -8  -2   76.09   33.80
 -18  -8   2  -32.10   33.30
  18  -8  -2   35.90   30.20
 -16  -8   2  -18.50   34.80
  16  -8  -2   37.30   29.50
  14  -8  -2   33.50   26.20
 -14  -8   2   -0.50   35.60
  12  -8  -2   48.60   28.50
 -12  -8   2   35.90   35.40
 -10  -8   2   48.00   36.10
  10  -8  -2  100.49   30.60
   8  -8  -2   49.20   26.70
  -8  -8   2   72.39   36.90
   8  -8  -2  -10.00   32.50
  -6  -8   2   13.80   36.70
   6  -8  -2  -59.59   33.00
   4  -8  -2  -22.90   34.80
  -4  -8   2  -37.60   34.50
   2  -8  -2   17.50   33.40
  -2  -8   2   17.90   32.90
   0  -8  -2  119.19   37.20
   0  -8   2   37.40   32.90
  -2  -8  -2  -38.70   32.40
   2  -8   2  -19.70   30.70
  -4  -8  -2  -26.90   33.50
   4  -8   2  -21.30   30.00
   6  -8   2   32.50   33.80
  -6  -8  -2  -23.80   33.30
   8  -8   2    6.50   28.00
  -8  -8  -2   45.70   35.40
   8  -8   2   67.39   30.10
 -10  -8  -2   40.50   39.50
  10  -8   2   59.19   30.30
  10  -8   2   74.69   33.00
 -12  -8  -2   31.20   38.00
  12  -8   2   65.19   30.10
 -14  -8  -2  -35.00   36.60
  14  -8   2   57.29   31.20
  16  -8   2  125.79   36.50
 -16  -8  -2   89.89   41.20
 -18  -8  -2  -16.90   38.20
  18  -8   2   68.09   38.90
 -20  -8  -2  -48.10   36.30
 -15  -9   2   13.90   43.80
  15  -9  -2   75.09   32.20
 -13  -9   2  -79.59   36.80
 -11  -9   2  -51.69   39.00
  -9  -9   2  -21.70   40.40
  -7  -9   2   71.79   42.00
  -5  -9   2  -24.80   38.90
  -3  -9   2  -12.00   45.20
   3  -9  -2   -0.40   39.60
   1  -9  -2  -69.79   35.20
  -1  -9   2   24.20   41.10
   1  -9   2   23.10   38.40
  -1  -9  -2   80.69   45.70
   3  -9   2   41.50   38.00
  -3  -9  -2   15.10   40.80
  -5  -9  -2  -48.50   40.50
   5  -9   2   34.30   39.90
  -7  -9  -2  102.59   45.10
   7  -9   2  124.99   43.50
  -9  -9  -2  -73.89   39.80
 -11  -9  -2  -25.80   40.40
 -44   0   3    9.60   29.20
 -42   0   3    8.20   27.80
 -40   0   3   14.40   25.50
 -38   0   3   -0.70   23.50
 -36   0   3   -6.60   22.40
 -34   0   3    4.70   20.90
 -32   0   3    4.70   21.30
 -30   0   3   16.80   22.50
 -28   0   3    4.10   16.20
  28   0  -3    6.60   16.80
 -28   0   3    7.70   17.40
 -26   0   3  -24.40   16.80
  26   0  -3  -12.40   15.30
 -26   0   3   -2.20   14.80
 -24   0   3    0.30   16.40
 -24   0   3    7.90   14.40
  24   0  -3  -24.30   13.40
 -22   0   3    6.90   12.40
 -22   0   3  -23.10   13.10
  22   0  -3   15.10   13.20
  20   0  -3    3.50   11.10
 -20   0   3  -14.70   10.40
 -20   0   3   -8.40   11.00
  18   0  -3   -4.70    5.80
 -18   0   3    4.00   10.30
 -18   0   3    4.60   12.30
 -16   0   3   -0.40   10.30
  16   0  -3    3.10    9.10
 -16   0   3    4.70    9.50
 -14   0   3    2.80    8.40
 -14   0   3    2.70    9.50
  14   0  -3    6.20    8.30
 -12   0   3   -2.80    2.80
  12   0  -3   10.70    8.30
 -10   0   3   -3.10    1.10
  10   0  -3   -8.40    7.80
   8   0  -3   -7.60    6.70
  -8   0   3    2.90    6.00
   6   0  -3   -2.30    5.20
  -6   0   3   -0.30    4.60
   4   0  -3    5.40    5.00
   2   0  -3   -0.90    1.40
   0   0  -3    3.10    3.90
  -2   0  -3   10.00    5.70
  -4   0  -3   -1.40    8.30
   4   0   3    0.20    7.60
   6   0   3    1.30    8.10
  -6   0  -3    1.90    9.00
  -8   0  -3    6.00    7.10
   8   0   3   -2.00    8.30
  -8   0  -3   -2.10    9.10
 -10   0  -3    1.90    9.90
  10   0   3   -3.20    8.70
 -10   0  -3    2.50    7.40
  12   0   3   -9.80    5.00
 -12   0  -3   10.00    9.10
 -12   0  -3   -6.60   10.40
 -14   0  -3    8.90   12.30
  14   0   3    2.50   12.00
 -14   0  -3   -4.40    4.90
 -16   0  -3   23.20   11.70
 -16   0  -3   -3.60   12.20
  16   0   3   -3.70   13.00
 -18   0  -3   12.50   13.90
  18   0   3   20.90   16.20
 -18   0  -3  -11.50   13.80
 -20   0  -3    2.50   15.80
 -20   0  -3   -8.60   15.20
  20   0   3  -14.70   17.40
  22   0   3   11.00   20.70
 -22   0  -3  -12.30   17.20
 -22   0  -3   -2.20   18.00
 -24   0  -3   40.10   19.30
  24   0   3   13.40   21.40
 -24   0  -3    1.70   17.10
 -26   0  -3  -21.90   18.80
  26   0   3    8.40   22.80
 -26   0  -3   20.80   19.20
 -28   0  -3   18.40   20.60
 -28   0  -3   17.20   19.70
 -30   0  -3   18.30   20.60
 -32   0  -3   16.30   21.20
 -43  -1   3   89.69   32.10
 -43   1   3  132.59   35.60
 -41  -1   3    6.40   25.10
 -41   1   3   26.80   28.40
 -39  -1   3   16.40   25.60
 -39   1   3   43.10   28.70
 -37  -1   3  456.75   45.50
 -37   1   3  429.26   43.80
 -35  -1   3   14.60   24.10
 -35   1   3    6.70   24.50
  33  -1  -3  230.28   30.80
 -33  -1   3  208.48   31.30
 -33   1   3  225.88   33.90
 -31  -1   3    2.50   20.40
 -31  -1   3   -1.40   20.70
  31  -1  -3    7.90   20.30
 -31   1   3   29.70   20.40
  29  -1  -3  496.95   39.70
 -29  -1   3  479.05   37.20
 -29  -1   3  508.65   40.50
 -29   1   3  579.94   43.80
  27  -1  -3    9.70   20.20
 -27  -1   3    4.40   19.70
 -27  -1   3   11.80   16.10
 -27   1   3   23.80   18.20
  25  -1  -3  275.87   29.00
 -25  -1   3  186.28   24.20
 -25  -1   3  274.07   28.50
 -25   1   3  239.18   23.10
 -25   1   3  196.58   26.90
 -23  -1   3  104.59   20.60
 -23  -1   3   78.69   19.40
  23  -1  -3  111.49   21.60
 -23   1   3   90.39   15.30
  23   1  -3   60.89   11.60
 -23   1   3  103.99   22.30
 -21  -1   3  868.91   43.20
  21  -1  -3  863.81   44.20
 -21  -1   3  848.92   43.30
  21   1  -3  931.11   38.10
 -21   1   3  941.11   47.20
 -21   1   3  876.21   39.40
  19  -1  -3  946.71   45.30
 -19  -1   3  959.80   44.50
 -19  -1   3  983.70   45.10
 -19   1   3  988.30   40.70
  19   1  -3  961.90   38.70
 -19   1   3  961.40   47.00
  17  -1  -3  200.88   20.60
 -17  -1   3  207.28   19.60
 -17  -1   3  186.38   19.40
 -17   1   3  197.68   14.40
 -17   1   3  190.38   19.70
  17   1  -3  187.18   14.10
 -15  -1   3   -5.70    8.60
 -15  -1   3    5.30   10.00
  15  -1  -3   -8.40   10.10
 -15   1   3   -0.90    5.70
  15   1  -3    3.40    6.20
 -15   1   3  -12.80   10.80
  13  -1  -3    7.20    4.90
 -13  -1   3    8.60    7.40
 -13  -1   3   36.80   10.60
 -13   1   3   -2.80    3.40
  13   1  -3   35.50    6.20
 -11  -1   3 1178.98   47.00
  11  -1  -3 1187.38   47.70
  11   1  -3 1199.48   41.70
  -9  -1   3 2407.56   87.09
   9  -1  -3 2504.55   86.79
  -9   1   3 2445.76   84.89
   9   1  -3 2379.76   81.49
   7  -1  -3  770.82   32.20
  -7  -1   3  792.22   32.30
   7   1  -3  782.32   28.00
  -7   1   3  781.52   31.30
  -5  -1   3 1372.76   51.29
   5   1  -3 1395.26   47.90
  -5   1   3 1368.46   48.80
   3  -1  -3 1032.80   39.00
  -3  -1   3 1052.79   37.80
  -1  -1   3 9999.00  330.27
   1  -1  -3 9936.51  330.07
  -1  -1  -3  272.77   18.60
  -1  -1  -3  251.47   14.30
   1  -1   3  296.17   16.30
  -3  -1  -3   56.49    8.70
  -3  -1  -3   61.79   12.00
   3  -1   3   18.80    8.10
   5  -1   3  114.09    9.60
  -7  -1  -3  572.44   23.90
   7  -1   3  418.76   25.00
  -7  -1  -3  604.74   22.10
  -7  -1  -3  527.45   29.60
  -9  -1  -3 1274.07   53.59
  -9  -1  -3 1294.37   46.20
  -9   1  -3 1294.67   51.49
   9   1   3 1194.68   47.20
 -11  -1  -3  478.05   22.40
 -11  -1  -3  451.05   29.10
  11  -1   3  402.96   26.70
 -11   1  -3  371.86   24.00
  11   1   3  394.56   21.30
 -13  -1  -3 1207.68   54.49
 -13  -1  -3 1220.18   46.90
  13  -1   3 1139.79   52.79
 -13   1  -3 1165.98   51.29
 -13   1  -3 1144.49   48.00
  13   1   3 1184.88   47.50
 -15  -1  -3 1372.86   61.29
  15  -1   3 1366.96   60.69
 -15   1  -3 1359.06   59.49
 -15   1  -3 1359.96   55.59
 -17  -1  -3 1244.78   51.99
  17  -1   3 1257.17   57.59
 -17  -1  -3 1276.07   59.19
 -17   1  -3 1227.78   53.59
 -17   1  -3 1207.48   56.99
  17   1   3 1235.18   52.59
 -19  -1  -3 1970.20   84.19
  19  -1   3 1928.61   82.19
 -19  -1  -3 2031.60   76.69
  19   1   3 1939.61   76.69
 -19   1  -3 1870.51   82.39
 -19   1  -3 2050.19   78.79
  21  -1   3  117.09   26.30
 -21  -1  -3  108.29   24.90
 -21  -1  -3   75.19   19.10
 -21   1  -3   92.99   21.90
 -21   1  -3  119.19   23.50
  21   1   3  122.59   21.10
 -23  -1  -3   22.30   21.40
 -23  -1  -3   29.50   16.90
  23  -1   3   -2.30   24.40
 -23   1  -3   23.20   18.80
 -23   1  -3   40.00   19.90
  23   1   3   33.30   19.70
 -25  -1  -3  228.28   32.40
 -25  -1  -3  237.38   28.10
  25  -1   3  209.88   32.70
 -25   1  -3  200.18   28.80
 -25   1  -3  187.88   29.00
 -27  -1  -3 1117.29   56.29
  27  -1   3 1127.69   63.19
 -27  -1  -3 1138.19   62.69
 -27   1  -3 1184.78   62.09
 -27   1  -3 1165.78   60.99
  29  -1   3   47.70   27.60
 -29  -1  -3   19.60   23.90
 -29   1  -3   21.20   22.00
 -29   1  -3   42.80   21.20
 -31  -1  -3   17.50   23.90
  31  -1   3   43.50   26.40
 -31   1  -3   13.50   24.80
 -31   1  -3   45.20   22.20
 -33  -1  -3   99.99   28.90
 -35  -1  -3  287.37   39.20
 -44   2   3  -36.70   27.50
 -42  -2   3  -32.30   26.70
 -42   2   3   28.70   30.60
 -40  -2   3   19.80   28.30
 -40   2   3   91.39   33.90
 -38  -2   3    0.80   26.10
 -38   2   3   49.50   29.10
  36  -2  -3   14.10   25.00
 -36  -2   3  -24.50   22.80
 -36   2   3    4.70   25.70
  34  -2  -3   21.10   22.60
 -34  -2   3    6.60   23.60
 -34   2   3   -4.80   24.20
 -32  -2   3  103.59   23.90
 -32  -2   3   99.09   29.00
  32  -2  -3   75.59   25.00
 -32   2   3   54.19   24.00
 -30  -2   3    4.30   20.50
 -30  -2   3   -8.00   20.40
  30  -2  -3  -12.80   19.60
 -30   2   3   -1.50   22.70
 -28  -2   3   75.89   26.00
 -28  -2   3   59.89   22.60
  28  -2  -3   76.69   26.70
 -28   2   3   48.50   23.10
 -26  -2   3   11.30   20.60
  26  -2  -3   18.40   23.80
 -26  -2   3    0.90   18.40
 -26   2   3    8.70   22.90
  24  -2  -3   11.90   22.70
 -24  -2   3   47.60   18.10
 -24  -2   3   61.99   23.30
 -24   2   3   50.49   20.30
 -22  -2   3   11.60   15.10
  22  -2  -3    5.60   19.20
 -22  -2   3   18.90   20.30
 -22   2   3    8.70   19.60
  20  -2  -3  139.69   22.80
 -20  -2   3  148.39   21.40
 -20  -2   3  109.09   16.40
 -20   2   3  133.59   22.80
 -18  -2   3   76.69   15.20
  18  -2  -3   93.49   19.70
 -18  -2   3   70.79   17.70
 -18   2   3   88.79   17.70
 -16  -2   3  830.92   40.20
  16  -2  -3  829.72   42.00
 -16   2   3  812.12   40.10
 -14  -2   3 1283.47   54.99
  14  -2  -3 1291.87   55.19
 -12  -2   3  245.48   21.30
  12  -2  -3  282.27   20.60
  10  -2  -3  139.79   11.50
 -10  -2   3  166.88   17.10
 -10   2   3  128.89   14.30
   8  -2  -3   -1.80    8.50
  -8  -2   3   10.20    5.50
  -8  -2   3    0.50   10.30
   8  -2  -3    2.60    7.00
   6  -2  -3  512.55   27.10
  -6  -2   3  564.54   22.40
  -6  -2   3  512.75   27.10
   6  -2  -3  540.95   24.50
   4  -2  -3 2577.74   91.69
  -4  -2   3 2614.84   89.69
   4  -2  -3 2559.04   91.89
   2  -2  -3 1155.48   45.50
  -2  -2   3 1115.69   44.20
   2  -2  -3 1162.58   44.50
   0  -2  -3  739.23   31.40
   0  -2  -3  731.23   33.70
   0  -2   3  831.52   33.80
  -2  -2  -3  201.98   13.60
  -2  -2  -3  195.18   18.10
   2  -2   3  199.78   18.10
   4  -2   3 2864.01  101.49
  -4  -2  -3 2721.43   96.09
   6  -2   3   60.59   14.90
  -6  -2  -3   55.29   11.30
  -6  -2  -3   86.99    9.70
  -8  -2  -3   51.59    8.90
  -8  -2  -3   -2.30    5.20
 -10  -2  -3  387.36   19.50
 -10  -2  -3  350.36   29.10
  10  -2   3  456.45   29.60
  12  -2   3   38.50   17.30
 -12  -2  -3   40.80   16.60
  12   2   3   35.70    9.00
 -14  -2  -3    9.20   18.40
  14  -2   3   15.40   17.80
 -14  -2  -3   15.00    9.30
  14   2   3   18.30    9.40
 -16  -2  -3  248.88   29.10
 -16  -2  -3  226.48   19.80
  16  -2   3  235.58   29.70
  16   2   3  222.68   18.30
 -18  -2  -3   57.59   23.30
 -18  -2  -3   47.90   14.10
  18  -2   3   59.59   24.80
 -20  -2  -3  -15.50   14.20
 -20  -2  -3   17.80   25.00
  20  -2   3   -1.20   23.30
 -22  -2  -3  -39.30   21.80
 -22  -2  -3   16.10   17.20
  22  -2   3   19.90   24.70
 -24  -2  -3   59.79   26.50
 -24  -2  -3   49.20   19.90
  24  -2   3    8.20   24.90
 -26  -2  -3   56.59   27.00
  26  -2   3   78.09   28.00
 -28  -2  -3   43.40   26.00
  28  -2   3   52.39   29.80
  30  -2   3  140.79   33.50
 -30  -2  -3  141.09   33.20
 -32  -2  -3   23.50   28.50
  32  -2   3   29.00   31.50
 -34  -2  -3   -4.00   24.80
  34  -2   3    2.20   29.80
 -36  -2  -3   77.99   31.10
  39  -3  -3  115.79   34.40
 -39  -3   3   92.49   32.30
 -37  -3   3  220.38   36.70
  37  -3  -3  269.87   39.90
 -37   3   3  168.48   35.50
 -35  -3   3   57.89   31.50
  35  -3  -3   19.80   26.00
 -35  -3   3  -38.10   22.70
 -35   3   3  -24.90   21.60
 -33  -3   3   74.29   26.80
 -33  -3   3   68.69   31.10
  33  -3  -3  103.69   31.10
 -33   3   3  158.98   33.40
  31  -3  -3  271.97   36.40
 -31  -3   3  223.48   32.70
 -31  -3   3  241.78   37.80
 -31   3   3  205.18   35.90
  29  -3  -3  670.33   50.09
 -29  -3   3  777.82   48.40
 -29  -3   3  714.73   51.49
 -29   3   3  717.43   53.49
  27  -3  -3  177.98   31.70
 -27  -3   3  166.08   26.50
 -27  -3   3  155.78   30.40
 -27   3   3  100.79   26.10
 -25  -3   3  170.68   25.70
  25  -3  -3  144.09   30.30
 -25  -3   3  172.18   31.30
 -25   3   3  121.89   29.30
 -23  -3   3  -19.10   24.20
  23  -3  -3    7.40   23.60
 -23  -3   3   11.40   16.30
 -23   3   3   -5.20   21.00
  21  -3  -3    3.50   21.90
 -21  -3   3    1.00   15.00
 -21  -3   3  -15.20   22.70
  19  -3  -3  813.32   48.90
 -19  -3   3  915.71   49.60
 -17  -3   3   44.00   20.40
  17  -3  -3   56.09   21.10
  15  -3  -3  245.28   17.70
  15  -3  -3  181.08   21.00
 -15  -3   3  241.88   26.00
  13  -3  -3  123.19   13.80
 -13  -3   3  132.29   21.30
 -11  -3   3 1980.20   79.09
  11  -3  -3 1944.71   77.79
  11  -3  -3 1977.90   73.09
   9  -3  -3 1184.38   51.19
  -9  -3   3 1093.09   51.19
  -9  -3   3 1148.79   41.70
   9  -3  -3 1170.68   46.30
   7  -3  -3   94.39   16.50
   7  -3  -3  106.19   13.70
  -7  -3   3  109.69   11.70
  -7  -3   3   90.09   16.10
  -5  -3   3  613.64   27.00
   5  -3  -3  491.05   27.20
   5  -3  -3  651.93   31.80
  -3  -3   3  715.63   34.90
  -3  -3   3  677.63   31.90
   3  -3  -3  688.13   33.20
   1  -3  -3  225.28   20.70
   1  -3  -3  258.97   19.50
  -1  -3   3  257.17   21.30
  -1  -3   3  256.57   20.80
  -1  -3  -3 1061.39   46.60
   1  -3   3 1026.70   45.20
  -1  -3  -3 1027.30   41.80
   1  -3   3 1036.40   45.80
  -3  -3  -3  299.47   18.00
   3  -3   3  259.57   23.70
  -3  -3  -3  285.57   24.90
  -5  -3  -3   54.49   17.80
  -5  -3  -3   53.79   10.00
   5  -3   3   21.50   16.20
  -7  -3  -3 2540.15   98.29
  -7  -3  -3 2472.95   88.49
   7  -3   3 2572.54   97.99
   9  -3   3  405.36   32.60
  -9  -3  -3  315.77   25.60
  -9  -3  -3  402.66   19.50
 -11  -3  -3  148.19   12.60
  11  -3   3  164.58   25.20
 -13  -3  -3   26.30    8.80
 -13  -3  -3   19.80   22.40
 -15  -3  -3   -0.10   23.80
  15  -3   3  -10.60   15.30
  17  -3   3  392.56   39.40
 -17  -3  -3  373.86   27.20
 -17  -3  -3  378.66   38.90
 -19  -3  -3  236.98   36.80
 -19  -3  -3  251.87   23.20
  19  -3   3  206.88   34.70
 -21  -3  -3   41.90   28.30
 -21  -3  -3   30.20   16.60
  21  -3   3    5.60   27.70
  23  -3   3  -14.10   26.10
 -23  -3  -3   -0.20   16.50
 -23  -3  -3    3.40   25.60
 -25  -3  -3  178.88   35.30
  25  -3   3  234.68   38.90
 -27  -3  -3  963.80   63.69
  27  -3   3 1013.20   66.39
  29  -3   3   40.30   33.20
 -29  -3  -3   60.49   31.00
  31  -3   3   22.90   32.50
 -31  -3  -3   71.19   33.10
  33  -3   3   39.70   31.60
 -33  -3  -3   19.40   29.20
  35  -3   3  160.78   39.80
 -35  -3  -3  163.68   38.60
  37  -3   3   25.80   37.60
 -37  -3  -3   88.39   37.70
  40  -4  -3   44.20   36.30
 -38  -4   3  -40.40   26.40
 -38  -4   3   16.30   34.20
  38  -4  -3   15.20   32.00
 -36  -4   3   34.20   30.90
  36  -4  -3   88.99   34.50
 -36  -4   3   20.20   26.50
  34  -4  -3  103.79   33.50
 -34  -4   3   86.19   28.90
 -34  -4   3   72.99   33.10
 -32  -4   3   12.80   32.30
  32  -4  -3  -23.30   28.10
 -32  -4   3    9.20   22.50
  30  -4  -3   59.79   29.80
 -30  -4   3   59.69   23.90
 -30  -4   3   -8.80   28.60
 -28  -4   3   -8.60   26.30
 -28  -4   3   -1.30   18.80
  28  -4  -3    2.10   25.70
  26  -4  -3  304.87   38.30
 -26  -4   3  266.97   36.90
 -26  -4   3  267.17   30.60
  24  -4  -3   31.50   26.00
 -24  -4   3   39.90   19.60
 -24  -4   3  -32.10   25.10
 -22  -4   3  156.38   31.60
  22  -4  -3  100.59   29.60
 -20  -4   3    2.00   24.40
  20  -4  -3  -17.20   22.30
 -18  -4   3   65.09   26.50
 -16  -4   3   57.79   25.60
  16  -4  -3   65.19   16.50
  14  -4  -3   59.69   15.80
  14  -4  -3   22.20   20.60
 -14  -4   3   23.90   23.40
  12  -4  -3   74.59   16.40
  12  -4  -3   79.09   21.80
 -12  -4   3   85.59   23.80
 -10  -4   3   84.29   21.10
 -10  -4   3   81.19   11.10
  10  -4  -3   66.59   19.70
  10  -4  -3   76.99   16.20
  -8  -4   3 1213.58   46.80
   8  -4  -3 1185.88   52.39
   8  -4  -3 1178.98   54.39
   6  -4  -3   93.89   19.60
   6  -4  -3  121.59   18.90
  -6  -4   3  121.49   15.90
  -6  -4   3  133.09   21.10
   4  -4  -3 1316.47   58.19
  -4  -4   3 1437.26   61.59
  -4  -4   3 1342.17   55.39
   4  -4  -3 1405.16   58.59
   2  -4  -3  115.59   17.60
  -2  -4   3   76.69   16.80
   2  -4  -3  107.09   20.10
  -2  -4   3   49.00   15.40
   0  -4   3  302.47   27.00
   0  -4  -3  343.37   29.30
   0  -4   3  327.47   25.60
   0  -4  -3  293.67   23.40
   2  -4   3  105.29   19.30
  -2  -4  -3  113.19   21.70
  -2  -4  -3  101.39   15.10
   2  -4   3  114.69   20.20
   4  -4   3  146.19   20.80
  -4  -4  -3  139.89   15.90
   4  -4   3  125.29   22.40
  -4  -4  -3  156.28   24.00
  -6  -4  -3  129.59   15.00
   6  -4   3  147.99   21.00
  -6  -4  -3   91.19   23.20
   6  -4   3   99.99   23.00
   8  -4   3  -16.80   20.40
  -8  -4  -3    7.10   10.10
  -8  -4  -3   10.60   22.70
  10  -4   3  287.07   34.00
 -10  -4  -3  226.68   26.10
  12  -4   3   27.00   25.50
 -12  -4  -3   -3.00    5.70
  14  -4   3  -22.10   15.80
 -14  -4  -3    3.90    7.90
  16  -4   3   97.59   28.80
 -16  -4  -3  174.68   35.50
 -18  -4  -3  -26.40   26.80
  18  -4   3   54.79   29.00
 -20  -4  -3   -3.00   15.30
 -20  -4  -3   -9.40   28.30
  20  -4   3   -5.60   26.70
 -22  -4  -3   42.00   30.60
  22  -4   3  -10.00   27.60
  24  -4   3    6.60   29.50
 -24  -4  -3   23.80   29.90
  26  -4   3    6.00   30.20
 -26  -4  -3   19.10   30.30
 -28  -4  -3   67.99   35.40
  28  -4   3   46.50   33.50
  30  -4   3   29.80   32.30
 -30  -4  -3   -6.70   30.90
 -32  -4  -3   -2.40   32.30
  32  -4   3  -30.90   30.30
  34  -4   3   -8.80   33.70
 -34  -4  -3   35.30   38.10
 -36  -4  -3   60.99   36.80
  36  -4   3   51.09   38.00
 -37  -5   3  100.89   40.60
  37  -5  -3   50.29   36.10
  35  -5  -3   38.60   32.50
 -35  -5   3    8.20   27.00
 -35  -5   3   25.70   38.00
  33  -5  -3   41.00   32.20
 -33  -5   3  138.69   41.90
 -33  -5   3  -15.70   21.60
  31  -5  -3   79.19   32.90
 -31  -5   3   36.00   36.30
 -31  -5   3  -35.70   18.80
 -29  -5   3  245.68   43.70
 -29  -5   3  229.18   31.60
  29  -5  -3  185.88   38.00
 -27  -5   3   30.30   30.60
  27  -5  -3   59.99   31.40
 -27  -5   3   63.59   22.30
  25  -5  -3  134.89   32.40
 -25  -5   3  117.59   33.20
  23  -5  -3  124.49   30.60
 -23  -5   3   74.89   31.80
 -21  -5   3  848.62   58.29
  21  -5  -3  967.40   58.59
  19  -5  -3  161.78   31.30
 -19  -5   3  175.98   33.90
 -17  -5   3   24.00   27.80
  17  -5  -3   -2.10   25.30
 -15  -5   3   46.50   27.20
  15  -5  -3   28.30   18.60
  15  -5  -3   13.40   24.50
  13  -5  -3   47.20   24.40
  13  -5  -3   37.40   19.10
 -13  -5   3    4.60   24.20
  11  -5  -3  355.46   30.80
  11  -5  -3  338.87   33.30
   9  -5  -3  199.68   26.00
   9  -5  -3  188.08   27.70
   7  -5  -3   49.30   21.40
   7  -5  -3   71.49   22.80
  -7  -5   3   61.79   17.50
  -7  -5   3   64.99   22.40
  -5  -5   3   42.80   23.20
   5  -5  -3    7.10   19.50
   5  -5  -3    7.30   20.70
  -5  -5   3   18.70   16.80
  -3  -5   3  380.06   36.10
  -3  -5   3  406.96   32.20
   3  -5  -3  403.86   35.70
   3  -5  -3  363.76   31.30
  -1  -5   3 1069.59   52.89
   1  -5  -3 1086.69   56.99
  -1  -5   3 1091.59   55.79
   1  -5  -3 1067.49   51.29
  -1  -5  -3  270.27   24.60
   1  -5   3  271.77   30.30
   1  -5   3  175.48   27.50
  -1  -5  -3  315.17   33.00
   3  -5   3   34.20   24.00
  -3  -5  -3   51.19   16.90
  -3  -5  -3   57.19   25.10
   3  -5   3   62.49   21.90
  -5  -5  -3   70.09   27.10
  -5  -5  -3   57.59   16.60
   5  -5   3   50.89   22.40
   5  -5   3   65.49   24.40
  -7  -5  -3  143.19   30.90
   7  -5   3  168.28   30.30
   7  -5   3  154.88   25.20
   9  -5   3  436.36   38.10
  -9  -5  -3  492.65   45.00
   9  -5   3  394.16   41.20
 -11  -5  -3  111.59   32.20
  11  -5   3   92.89   24.80
  11  -5   3  106.99   31.10
 -13  -5  -3   14.20   30.40
  13  -5   3  -26.00   26.50
  13  -5   3   -3.20   20.70
 -15  -5  -3  447.46   44.30
  15  -5   3  406.46   44.30
  17  -5   3  272.87   39.90
 -17  -5  -3  303.07   41.60
  19  -5   3  146.89   35.90
 -19  -5  -3  148.49   36.70
 -21  -5  -3  -45.90   29.10
  21  -5   3    2.90   28.00
  23  -5   3   37.20   32.30
 -23  -5  -3   26.90   35.00
  25  -5   3  -10.20   30.00
 -25  -5  -3   25.30   34.20
  27  -5   3  120.29   38.60
 -27  -5  -3   52.69   36.00
 -29  -5  -3   28.50   34.70
  29  -5   3   54.09   36.20
  31  -5   3   20.60   36.30
 -31  -5  -3    3.20   38.90
 -33  -5  -3   82.09   39.70
 -34  -6   3   10.70   39.80
  32  -6  -3   54.99   35.20
 -32  -6   3  -18.50   23.10
 -32  -6   3   -9.50   34.50
 -30  -6   3   55.19   36.80
 -30  -6   3   60.69   24.50
  30  -6  -3   73.39   33.70
  28  -6  -3   45.70   31.00
 -28  -6   3   78.59   35.60
 -26  -6   3  -24.40   34.00
  26  -6  -3   73.29   31.60
 -24  -6   3   33.90   32.50
  24  -6  -3   43.00   30.30
  22  -6  -3   51.79   30.90
 -22  -6   3    4.50   31.50
 -20  -6   3   36.60   30.70
  20  -6  -3    5.20   26.00
  18  -6  -3    1.90   25.20
 -18  -6   3   11.80   29.50
 -16  -6   3   51.69   30.20
  16  -6  -3   39.80   25.40
 -14  -6   3  124.79   31.30
  14  -6  -3  127.19   27.40
  12  -6  -3   42.50   24.20
  12  -6  -3   12.50   22.80
 -12  -6   3   45.60   29.00
 -10  -6   3   52.99   29.00
  10  -6  -3   21.60   23.80
  10  -6  -3  -21.40   22.50
   8  -6  -3    2.70   24.10
   8  -6  -3    0.40   21.00
  -8  -6   3   44.20   28.10
   6  -6  -3   28.50   22.20
   6  -6  -3   -7.50   24.30
  -6  -6   3    7.60   26.30
   4  -6  -3   35.90   22.30
   4  -6  -3  -29.40   26.80
  -4  -6   3   15.50   26.10
   2  -6  -3  147.59   26.40
  -2  -6   3  178.28   32.00
   2  -6  -3  138.59   31.60
  -2  -6   3  122.49   25.50
   0  -6  -3   98.29   22.30
   0  -6   3  128.09   29.20
   0  -6   3  128.29   27.30
   0  -6  -3  100.09   30.40
   2  -6   3   12.60   25.30
  -2  -6  -3   -8.90   26.90
   2  -6   3   16.50   26.20
   4  -6   3   82.69   28.80
  -4  -6  -3   28.70   31.00
   4  -6   3   36.30   24.20
   6  -6   3   46.80   24.10
   6  -6   3   69.49   29.60
  -6  -6  -3   56.29   30.40
   8  -6   3  -23.00   20.60
  -8  -6  -3  -42.70   26.40
   8  -6   3   13.60   25.50
  10  -6   3  -10.30   23.10
  10  -6   3  -23.20   25.30
 -10  -6  -3   34.80   31.10
  12  -6   3   -5.70   20.70
 -12  -6  -3    0.40   29.40
  12  -6   3   -7.00   27.80
 -14  -6  -3  151.28   36.60
  14  -6   3  193.18   37.00
  14  -6   3  213.58   31.40
 -16  -6  -3  143.19   37.20
  16  -6   3  123.89   35.30
  16  -6   3   59.49   26.10
 -18  -6  -3   -5.90   31.60
  18  -6   3   28.60   31.70
 -20  -6  -3  167.88   40.20
  20  -6   3  117.89   37.50
  22  -6   3    2.00   32.40
 -22  -6  -3   25.50   37.20
  24  -6   3   31.50   34.00
 -24  -6  -3  -11.80   34.40
 -26  -6  -3   20.60   38.30
  26  -6   3   75.39   37.40
 -28  -6  -3   14.40   37.10
  28  -6   3   54.09   37.30
 -30  -6  -3   10.70   41.70
 -31  -7   3   37.20   25.20
 -31  -7   3  -12.10   38.70
 -29  -7   3   68.39   40.50
  27  -7  -3   34.00   31.30
 -27  -7   3  -35.40   38.30
 -25  -7   3   32.50   36.40
  25  -7  -3   43.30   31.60
  23  -7  -3    9.60   31.00
 -23  -7   3   34.80   36.70
 -21  -7   3   73.49   37.70
  21  -7  -3   24.10   28.90
 -19  -7   3   91.09   37.00
  19  -7  -3  140.59   33.50
  17  -7  -3  146.29   34.00
 -17  -7   3  127.29   37.20
  15  -7  -3    1.80   24.00
 -15  -7   3   -9.80   30.80
 -13  -7   3   26.60   32.70
  13  -7  -3   52.29   27.50
 -11  -7   3   78.89   34.30
  11  -7  -3   -0.70   25.30
  -9  -7   3   33.60   31.90
   9  -7  -3   66.19   30.70
   9  -7  -3   47.20   25.20
   7  -7  -3  -52.59   28.30
  -7  -7   3   16.70   29.80
   7  -7  -3   44.20   22.60
   5  -7  -3   54.89   33.00
  -5  -7   3  -40.90   25.90
   5  -7  -3   21.00   22.70
   3  -7  -3   66.89   31.40
   3  -7  -3  102.99   26.50
  -3  -7   3   77.79   30.90
  -1  -7   3  185.18   35.40
   1  -7  -3  204.48   35.50
   1  -7   3   -2.20   25.90
  -1  -7  -3   15.60   30.20
   3  -7   3   33.20   25.60
  -3  -7  -3    8.30   29.80
   3  -7   3   -5.00   24.80
   5  -7   3  -44.10   22.90
   5  -7   3   12.60   26.50
  -5  -7  -3   -7.60   29.50
   7  -7   3  243.38   35.80
  -7  -7  -3  228.58   38.80
   7  -7   3  228.28   36.60
  -9  -7  -3   47.00   34.50
   9  -7   3   63.99   28.90
   9  -7   3   65.79   29.50
 -11  -7  -3   63.99   34.50
  11  -7   3   65.89   27.50
  11  -7   3   49.30   29.50
  13  -7   3   76.59   32.40
  13  -7   3   39.60   28.60
 -13  -7  -3   97.19   37.40
  15  -7   3   11.80   33.20
 -15  -7  -3   25.60   34.20
  17  -7   3  -23.20   32.80
 -17  -7  -3   26.90   35.40
 -19  -7  -3  147.29   42.00
  19  -7   3  116.59   37.20
 -21  -7  -3   10.40   37.30
  21  -7   3   40.10   36.00
  23  -7   3   98.29   40.90
 -23  -7  -3   45.40   39.70
 -25  -7  -3   -4.10   38.40
 -24  -8   3  -23.70   36.30
  22  -8  -3   35.20   34.50
 -22  -8   3   18.40   38.80
 -20  -8   3  -16.40   35.80
  20  -8  -3   74.29   35.00
  18  -8  -3   43.10   29.30
 -18  -8   3    1.20   34.60
  16  -8  -3   19.50   28.70
 -16  -8   3  -17.00   34.50
 -14  -8   3   57.49   39.90
  14  -8  -3   78.59   30.90
  12  -8  -3  154.78   30.90
 -12  -8   3  190.58   42.40
 -10  -8   3  -31.60   33.70
  10  -8  -3   35.40   25.10
  -8  -8   3  109.29   43.10
   8  -8  -3  122.49   29.30
  -6  -8   3   24.40   35.00
   6  -8  -3   12.50   33.00
  -4  -8   3    1.00   33.90
   4  -8  -3  -13.00   34.00
  -2  -8   3   20.20   32.70
   2  -8  -3  -39.00   31.10
   0  -8   3  -21.80   30.70
   0  -8  -3  -10.90   33.20
   2  -8   3   14.60   32.40
  -2  -8  -3   22.80   34.60
   4  -8   3  -31.70   29.40
  -4  -8  -3  -25.30   32.40
   6  -8   3   33.70   32.10
  -6  -8  -3   31.80   35.10
   8  -8   3  -38.60   26.00
  -8  -8  -3  -10.00   36.00
   8  -8   3  -11.30   27.10
 -10  -8  -3  151.48   42.50
  10  -8   3   57.39   32.60
  10  -8   3  119.59   35.00
 -12  -8  -3  191.38   44.50
  12  -8   3  184.48   42.50
  12  -8   3  139.49   35.40
 -14  -8  -3  -10.10   38.10
  14  -8   3   28.10   34.40
  16  -8   3   43.10   34.50
 -16  -8  -3   11.40   38.70
 -18  -8  -3   33.00   43.10
  18  -8   3   14.80   33.60
 -20  -8  -3    2.60   40.20
 -15  -9   3   13.50   41.10
  15  -9  -3   26.30   25.80
 -13  -9   3  -27.10   40.50
 -11  -9   3   38.60   42.60
  -9  -9   3   28.20   41.30
  -7  -9   3   -6.80   39.50
  -5  -9   3  -12.70   42.30
   3  -9  -3  -35.90   36.90
  -3  -9   3  -19.10   38.80
  -1  -9   3  -16.80   36.50
   1  -9  -3  -38.70   40.90
   1  -9   3   15.50   37.30
  -1  -9  -3  -64.19   39.60
  -3  -9  -3  -39.00   37.50
   3  -9   3   11.30   40.10
   5  -9   3  -22.60   35.10
  -5  -9  -3   -5.20   42.70
  -7  -9  -3   24.50   43.60
   7  -9   3  -18.90   36.30
  -9  -9  -3   -1.10   42.90
 -11  -9  -3  -58.29   43.50
 -44   0   4   17.80   29.00
 -42   0   4  212.48   38.50
 -40   0   4  789.92   58.39
 -38   0   4   -1.60   23.20
 -36   0   4  285.47   36.80
 -34   0   4  401.16   38.80
 -32   0   4  176.08   29.90
 -30   0   4  678.93   47.00
  28   0  -4   40.60   18.60
 -28   0   4   65.89   22.70
 -26   0   4  502.05   38.30
 -26   0   4  549.74   32.70
  26   0  -4  476.85   32.00
  24   0  -4  382.76   27.70
 -24   0   4  426.46   31.50
 -24   0   4  433.66   27.90
 -22   0   4   22.50   15.40
 -22   0   4   -9.50   11.50
  22   0  -4    7.40   12.60
 -20   0   4 2802.42  105.99
 -20   0   4 2909.51  104.69
 -18   0   4  156.18   18.70
 -18   0   4  223.18   17.70
  18   0  -4  120.09   13.70
 -16   0   4  225.78   16.70
  16   0  -4  238.58   17.10
 -16   0   4  232.58   19.10
 -14   0   4  360.56   18.90
  14   0  -4  365.86   19.90
 -10   0   4  317.37   19.10
  10   0  -4  292.57   16.80
   8   0  -4  589.04   25.20
  -8   0   4  620.64   26.80
  -6   0   4 5991.90  193.38
   6   0  -4 5866.61  198.08
   4   0  -4  706.23   27.50
   2   0  -4   -0.50    1.40
   0   0  -4 4150.08  140.49
  -2   0  -4 7575.44  253.07
   6   0   4  607.34   27.80
  -6   0  -4  635.94   30.60
  -8   0  -4 7772.52  272.77
  -8   0  -4 7992.90  255.37
   8   0   4 7825.62  265.27
 -10   0  -4  672.53   28.50
 -10   0  -4  617.74   33.50
 -12   0  -4 1901.21   77.19
 -12   0  -4 1968.30   69.59
  12   0   4 1867.61   73.69
  14   0   4 3902.51  136.49
 -14   0  -4 3682.43  141.09
 -16   0  -4 8175.48  285.87
 -16   0  -4 8286.27  268.57
  16   0   4 7795.82  277.27
  18   0   4  537.55   33.60
 -18   0  -4  501.95   31.80
 -18   0  -4  493.75   37.00
  20   0   4  332.07   32.50
 -20   0  -4  381.96   35.40
 -20   0  -4  344.27   28.20
  22   0   4  446.06   38.40
 -22   0  -4  476.25   33.80
 -22   0  -4  502.25   37.60
  24   0   4 1199.08   61.59
 -24   0  -4 1123.99   55.99
 -24   0  -4 1209.08   61.39
 -26   0  -4  292.67   34.90
 -26   0  -4  260.67   29.30
  26   0   4  296.17   34.90
 -28   0  -4  680.03   48.40
 -30   0  -4  442.46   43.60
 -32   0  -4  -21.50   21.50
 -34   0  -4    7.10   24.00
 -45  -1   4  -43.30   26.90
 -45   1   4   43.00   30.80
 -43  -1   4  107.09   33.60
 -43   1   4   82.19   33.00
 -41  -1   4   -3.80   25.90
 -41   1   4   78.89   30.50
 -39  -1   4   35.10   27.60
 -39   1   4   -2.20   24.80
 -37  -1   4  -20.80   23.20
 -37   1   4   -0.90   21.00
 -35  -1   4  134.39   29.60
 -35   1   4  118.99   30.90
  33  -1  -4   12.50   20.30
 -33  -1   4   25.20   21.70
 -33   1   4   17.50   22.80
 -31  -1   4    9.00   21.20
  31  -1  -4   -6.00   20.00
 -31   1   4   -3.00   18.70
 -29  -1   4   45.90   22.30
 -29  -1   4   39.90   22.10
  29  -1  -4   37.90   19.80
 -29   1   4   39.90   24.30
  27  -1  -4  426.36   33.60
 -27  -1   4  450.15   34.70
 -27  -1   4  508.95   36.50
 -27   1   4  475.35   40.30
  25  -1  -4  175.98   25.50
 -25  -1   4  206.08   26.70
 -25  -1   4  236.68   26.00
 -25   1   4  186.28   25.50
 -23  -1   4   42.20   17.60
 -23  -1   4   42.50   17.60
  23  -1  -4   38.10   17.50
 -23   1   4   35.80   11.10
  23   1  -4   47.30   11.70
 -23   1   4   35.50   18.40
  21  -1  -4  268.77   24.20
 -21  -1   4  250.77   24.60
 -21  -1   4  233.58   22.50
 -21   1   4  234.18   17.40
  21   1  -4  229.98   16.90
 -21   1   4  213.68   23.70
 -19  -1   4   30.70   13.20
  19  -1  -4   43.60   14.80
 -19  -1   4   56.39   14.20
 -19   1   4   29.20   13.20
 -19   1   4   43.20    9.10
  19   1  -4   34.50    9.00
  17  -1  -4   67.39   14.80
 -17  -1   4   42.10   12.60
 -17  -1   4   45.50   13.40
 -17   1   4   62.89    8.50
  17   1  -4   52.69    8.90
 -17   1   4   52.29   14.70
 -15  -1   4  303.67   20.70
 -15  -1   4  308.27   20.30
  15  -1  -4  248.88   19.70
  15   1  -4  334.67   15.50
 -13  -1   4   81.19   12.00
 -13  -1   4   49.90    9.40
 -13   1   4   -0.80    7.90
  11  -1  -4  212.68   17.30
 -11  -1   4  245.88   16.80
 -11   1   4  245.38   18.30
  11   1  -4  213.18   11.50
  -9  -1   4 1071.09   42.00
   9  -1  -4 1098.79   42.80
  -9   1   4 1094.99   41.90
   9   1  -4 1038.70   38.10
  -7  -1   4 2636.54   88.89
   7  -1  -4 2081.89   86.89
  -7   1   4 2636.74   85.59
   7   1  -4 2614.54   84.89
  -5  -1   4 2098.49   74.69
   5   1  -4 2076.59   71.69
  -5   1   4 2054.19   70.59
   3  -1  -4 1167.68   44.90
   3   1  -4 1235.68   44.20
  -1  -1   4  719.93   29.70
   1  -1  -4  707.53   29.30
   1  -1  -4  705.93   32.20
  -1  -1  -4 1320.87   48.30
   1  -1   4 1264.47   49.40
  -1  -1  -4 1352.46   52.09
  -3  -1  -4 1939.21   69.29
  -3  -1  -4 1964.20   74.29
  -5  -1  -4    4.50    2.50
  -5  -1  -4   42.80    8.60
   5  -1   4   -2.90    3.30
   9  -1   4 1087.79   47.20
  -9  -1  -4 1085.49   40.70
  -9  -1  -4 1076.49   49.30
  -9   1  -4 1060.99   46.30
   9   1   4 1119.49   43.30
 -11  -1  -4 3513.75  119.99
 -11  -1  -4 3481.05  131.79
  11  -1   4 3713.73  129.29
 -11   1  -4 3388.26  129.79
  11   1   4 3618.74  123.89
 -13  -1  -4  360.06   21.60
 -13  -1  -4  315.37   27.90
  13  -1   4  306.57   26.60
 -13   1  -4  390.16   25.70
 -13   1  -4  331.97   21.90
  15  -1   4   62.89   17.70
 -15  -1  -4   48.30   17.80
 -15  -1  -4    8.50    7.80
 -15   1  -4   37.20   13.50
 -15   1  -4   58.39   15.60
  15   1   4   33.30   13.70
 -17  -1  -4  306.47   24.20
 -17  -1  -4  326.37   32.10
  17  -1   4  333.47   31.60
  17   1   4  317.57   24.80
 -17   1  -4  324.17   30.30
 -17   1  -4  296.17   25.70
 -19  -1  -4   -6.20   20.90
  19  -1   4   -1.40   19.90
 -19  -1  -4   -2.90   14.00
 -19   1  -4   17.60   16.70
  19   1   4    0.60   15.20
 -19   1  -4   22.40   15.80
  21  -1   4   12.10   23.40
 -21  -1  -4    6.00   15.80
 -21  -1  -4   10.70   20.20
  21   1   4    7.50   17.50
 -21   1  -4    4.60   18.10
 -21   1  -4  -13.30   17.50
  23  -1   4  163.78   32.20
 -23  -1  -4  116.09   22.50
 -23  -1  -4  162.78   29.90
  23   1   4  168.38   25.50
 -23   1  -4  100.89   23.40
 -23   1  -4  126.69   25.20
  25  -1   4   65.19   25.30
 -25  -1  -4   39.40   22.40
 -25   1  -4   24.50   19.90
 -25   1  -4   36.50   19.80
  27  -1   4   41.60   26.50
 -27  -1  -4   -9.70   21.00
 -27   1  -4   26.50   20.60
 -27   1  -4   45.20   19.80
  29  -1   4  224.98   36.40
 -29  -1  -4  212.78   32.50
 -29   1  -4  233.98   32.80
 -29   1  -4  164.98   30.30
  31  -1   4   -9.10   27.10
 -31  -1  -4   36.40   24.30
 -31   1  -4   45.00   22.30
 -33  -1  -4   72.19   28.20
 -35  -1  -4   36.90   27.00
 -44  -2   4  -24.50   28.50
 -44   2   4   17.60   30.90
 -42  -2   4   45.10   30.70
 -42   2   4   32.80   32.20
 -40  -2   4   21.10   28.60
 -40   2   4   41.30   30.90
 -38  -2   4  435.56   45.80
 -38   2   4  446.86   48.60
  36  -2  -4   26.60   25.90
 -36  -2   4   23.00   25.70
 -36   2   4   83.39   27.70
 -34  -2   4   50.29   25.40
  34  -2  -4   52.79   25.90
 -34   2   4  152.18   33.10
 -32  -2   4   -1.80   18.20
 -32  -2   4   19.60   24.50
  32  -2  -4    5.70   21.10
 -32   2   4   19.80   21.40
 -30  -2   4  891.01   54.19
  30  -2  -4  936.91   54.79
 -30  -2   4  946.01   54.49
 -30   2   4  882.41   55.09
 -28  -2   4  628.44   44.90
  28  -2  -4  575.14   45.00
 -28  -2   4  576.74   43.10
 -28   2   4  654.03   45.80
 -26  -2   4  154.68   27.40
  26  -2  -4  154.58   27.00
 -26  -2   4  123.19   24.40
 -26   2   4  173.18   29.80
  24  -2  -4  352.36   34.70
 -24  -2   4  341.67   30.90
 -24  -2   4  344.97   33.30
 -24   2   4  371.36   35.90
 -22  -2   4  639.74   39.70
  22  -2  -4  604.74   39.60
 -22  -2   4  663.23   38.20
 -22   2   4  664.23   42.70
 -20  -2   4  245.58   25.50
  20  -2  -4  245.38   26.90
 -20  -2   4  242.38   22.40
 -20   2   4  306.47   28.80
 -18  -2   4 1254.07   54.49
 -18  -2   4 1373.36   53.99
  18  -2  -4 1285.57   55.39
 -18   2   4 1008.30   51.19
  16  -2  -4  265.57   25.10
 -16  -2   4  274.57   23.30
 -14  -2   4   16.80   12.80
  14  -2  -4   24.10   14.00
 -14   2   4    9.30   12.10
  12  -2  -4  169.28   18.60
 -12  -2   4  150.68   17.50
 -12   2   4  154.38   17.20
 -10  -2   4 2783.92  100.69
 -10  -2   4 2694.33   91.99
 -10   2   4 2748.63   96.19
   8  -2  -4   75.89   12.50
  -8  -2   4   68.89   12.70
  -8  -2   4   95.09    8.50
  -6  -2   4 1666.33   63.79
   6  -2  -4 1639.64   62.19
  -6  -2   4 1617.84   59.09
   6  -2  -4 1703.83   60.99
   4  -2  -4   64.29   11.60
   4  -2  -4   80.39   11.70
  -4  -2   4   80.39   12.90
  -4  -2   4   55.99   10.20
  -2  -2   4   15.70    9.90
   2  -2  -4   15.30   10.10
   2  -2  -4    7.80    8.80
   0  -2  -4  261.47   19.80
   0  -2  -4  253.07   16.60
   0  -2   4  268.77   19.90
   2  -2   4  616.24   32.30
  -2  -2  -4  649.04   27.50
  -4  -2  -4  303.67   24.60
   4  -2   4  460.55   26.50
  -4  -2  -4  441.66   20.70
   6  -2   4  140.89   18.60
  -6  -2  -4  133.29   18.80
  -6  -2  -4  143.09   12.50
 -10  -2  -4  132.39   21.60
 -10  -2  -4  169.08   14.50
  10  -2   4  172.38   22.30
  12  -2   4  418.06   31.90
 -12  -2  -4  387.26   32.80
  12   2   4  381.56   21.70
  14  -2   4   28.80   19.60
 -14  -2  -4  -11.50   18.80
 -14  -2  -4   10.50    8.70
  14   2   4   12.40    7.10
 -16  -2  -4   89.69   24.90
 -16  -2  -4  124.79   16.20
  16  -2   4   92.19   24.80
 -18  -2  -4  666.53   46.30
 -18  -2  -4  614.04   33.90
  18  -2   4  577.34   44.60
  18   2   4  607.14   33.50
 -20  -2  -4  192.38   32.20
  20  -2   4  209.38   33.00
 -20  -2  -4  177.28   22.30
 -22  -2  -4   11.70   17.00
  22  -2   4   53.09   26.90
 -22  -2  -4    1.50   23.10
  24  -2   4  129.29   31.40
 -24  -2  -4   75.09   28.10
  26  -2   4  389.36   43.00
 -26  -2  -4  321.67   39.50
 -28  -2  -4    6.10   24.30
  28  -2   4   54.89   29.60
  30  -2   4  296.47   42.30
 -30  -2  -4   44.90   29.30
  32  -2   4  210.08   39.00
 -32  -2  -4  229.58   38.40
  34  -2   4  180.58   39.60
 -34  -2  -4  163.98   36.30
 -36  -2  -4  113.19   33.20
 -38  -2  -4   77.49   32.50
 -41  -3   4   -2.90   29.00
  39  -3  -4   34.80   28.50
 -39  -3   4   30.10   29.20
 -39   3   4   35.00   31.10
 -37  -3   4   12.50   27.20
  37  -3  -4   76.89   30.00
 -37   3   4   27.80   30.50
 -35  -3   4   10.10   23.80
  35  -3  -4   50.99   27.40
 -35  -3   4    1.30   28.40
 -35   3   4   16.90   28.50
 -33  -3   4  116.09   29.10
 -33  -3   4   87.49   31.20
  33  -3  -4  135.39   32.80
 -33   3   4   70.99   31.10
 -31  -3   4   49.70   21.00
 -31  -3   4   59.19   28.60
  31  -3  -4   32.90   24.90
 -31   3   4   61.89   27.90
  29  -3  -4   12.90   23.30
 -29  -3   4   -0.20   26.40
 -29  -3   4    8.20   19.50
 -29   3   4   15.10   22.10
  27  -3  -4   20.60   25.80
 -27  -3   4   58.79   26.00
 -27  -3   4   59.79   21.50
 -27   3   4   40.50   25.20
 -25  -3   4  306.77   36.00
  25  -3  -4  286.47   35.90
 -25  -3   4  247.88   28.70
 -25   3   4  242.68   31.80
  23  -3  -4  307.47   35.40
 -23  -3   4  327.57   30.50
 -23  -3   4  327.07   34.30
 -23   3   4  274.47   31.30
  21  -3  -4   73.59   23.40
 -21  -3   4   74.19   23.80
 -19  -3   4  186.68   25.80
  19  -3  -4  154.08   24.00
 -17  -3   4  525.15   35.30
  17  -3  -4  498.35   25.40
  17  -3  -4  443.56   35.00
 -15  -3   4  105.89   20.80
  15  -3  -4  124.69   13.50
  13  -3  -4    9.30   13.20
 -13  -3   4    1.70   15.50
  13  -3  -4   22.50   10.20
 -11  -3   4   59.79   17.10
 -11  -3   4   82.29    8.20
  11  -3  -4   80.79   17.90
  11  -3  -4   90.99   12.90
   9  -3  -4 2271.57   81.69
   9  -3  -4 2301.97   85.19
  -9  -3   4 2209.88   77.19
  -9  -3   4 2088.99   85.69
  -7  -3   4  560.64   26.50
  -7  -3   4  567.94   31.90
   7  -3  -4  564.34   29.10
   7  -3  -4  597.14   31.70
   5  -3  -4 1633.54   60.79
  -5  -3   4 1711.53   58.79
   5  -3  -4 1264.97   58.89
  -3  -3   4   24.80   10.70
  -3  -3   4   28.80   12.00
   3  -3  -4   15.70   11.40
   3  -3  -4   -4.70    6.00
   1  -3  -4 2298.87   85.59
  -1  -3   4 2161.68   86.09
  -1  -3   4 2290.07   84.39
   1  -3  -4 2247.78   82.29
   1  -3   4  236.68   22.70
  -1  -3  -4  244.38   21.80
  -1  -3  -4  203.08   17.30
   1  -3   4  218.98   20.10
   3  -3   4   74.59   17.80
  -3  -3  -4   84.29   18.60
  -3  -3  -4   81.99   12.40
  -5  -3  -4  731.63   41.50
  -5  -3  -4  759.12   32.90
   5  -3   4  841.12   42.20
  -7  -3  -4    4.50    8.90
  -7  -3  -4   19.40   17.60
   7  -3   4   16.10   17.70
   9  -3   4   80.79   21.60
  -9  -3  -4   90.89   11.90
  -9  -3  -4   79.19   19.80
  11  -3   4  402.26   33.20
 -13  -3  -4  102.79   18.70
 -15  -3  -4   24.20   12.60
 -15  -3  -4   -5.40   20.10
  15  -3   4   13.00   14.40
  17  -3   4  167.98   32.70
 -17  -3  -4  202.68   20.80
 -17  -3  -4  257.77   35.60
  19  -3   4  489.45   45.40
 -19  -3  -4  441.86   43.60
 -19  -3  -4  370.06   28.90
  21  -3   4  164.58   32.90
 -21  -3  -4  179.38   35.10
 -23  -3  -4   31.80   27.20
  23  -3   4   12.40   25.90
 -25  -3  -4  153.28   33.60
  25  -3   4  227.88   37.40
  27  -3   4  128.79   36.80
 -27  -3  -4  147.39   35.00
  29  -3   4  114.89   34.90
 -29  -3  -4  120.89   36.70
  31  -3   4  -22.80   29.90
 -31  -3  -4   10.50   29.40
 -33  -3  -4  173.48   39.10
  33  -3   4  215.28   43.20
  35  -3   4   36.70   35.50
 -35  -3  -4   76.59   37.30
  37  -3   4   16.50   37.70
 -37  -3  -4   61.19   33.40
 -40  -4   4   81.49   34.30
  40  -4  -4  179.98   41.60
 -38  -4   4   37.40   30.40
  38  -4  -4   82.39   34.00
 -36  -4   4  -20.90   31.10
 -36  -4   4   42.50   28.10
  36  -4  -4   71.59   30.60
 -34  -4   4   34.50   25.40
  34  -4  -4  109.59   34.40
 -34  -4   4  130.39   34.60
 -32  -4   4    1.80   30.60
 -32  -4   4   15.70   22.40
  32  -4  -4   47.00   29.30
 -30  -4   4   97.99   23.20
  30  -4  -4   64.49   28.50
 -30  -4   4   69.69   29.90
  28  -4  -4  353.66   42.30
 -28  -4   4  289.47   31.20
 -28  -4   4  356.96   40.80
 -26  -4   4   26.20   26.10
 -26  -4   4   61.99   21.00
  26  -4  -4   92.89   28.90
 -24  -4   4   54.09   27.00
  24  -4  -4   87.99   29.00
 -22  -4   4   37.70   28.40
  22  -4  -4    1.00   24.10
  20  -4  -4  410.36   38.40
 -18  -4   4   56.69   25.20
 -16  -4   4   26.50   23.80
  16  -4  -4   18.10    7.20
  16  -4  -4   38.70   15.00
  14  -4  -4    8.30   19.50
 -14  -4   4   31.10   23.40
  14  -4  -4  -21.80   13.70
 -12  -4   4 1977.60   84.89
  12  -4  -4 2022.20   82.89
  12  -4  -4 2037.10   77.99
  10  -4  -4  358.46   31.20
 -10  -4   4  396.76   33.50
  10  -4  -4  388.96   26.90
 -10  -4   4  375.86   21.40
   8  -4  -4  126.99   21.00
  -8  -4   4  122.99   15.60
   8  -4  -4  171.38   20.20
  -6  -4   4 2551.04   93.19
   6  -4  -4 2583.94   97.79
   6  -4  -4 2559.74   97.19
   4  -4  -4  506.85   32.10
   4  -4  -4  524.45   34.60
  -4  -4   4  473.75   30.20
  -4  -4   4  534.55   34.60
  -2  -4   4  457.95   30.40
  -2  -4   4  457.75   32.90
   2  -4  -4  501.95   32.50
   2  -4  -4  500.95   28.90
   0  -4   4 2001.70   78.19
   0  -4  -4 1929.31   80.39
   0  -4  -4 1992.50   75.49
   0  -4   4 1967.70   80.69
  -2  -4  -4  152.28   24.60
  -2  -4  -4  138.19   17.30
   2  -4   4  163.38   23.60
   2  -4   4  150.18   22.20
   4  -4   4  133.09   21.70
  -4  -4  -4  141.19   24.30
  -4  -4  -4  113.79   15.80
   4  -4   4  113.19   23.80
  -6  -4  -4  266.87   31.10
   6  -4   4  184.78   28.10
  -6  -4  -4  222.88   18.60
   8  -4   4  861.11   51.29
  -8  -4  -4  915.91   52.79
  -8  -4  -4  880.61   38.10
 -10  -4  -4  -23.60   19.90
  10  -4   4   -7.10   22.50
  12  -4   4  201.48   33.30
 -14  -4  -4    3.60   12.90
  14  -4   4   49.20   25.30
 -16  -4  -4  665.03   53.49
  16  -4   4  748.13   54.39
 -18  -4  -4  110.59   32.90
  18  -4   4   54.29   30.00
 -20  -4  -4   45.60   30.80
  20  -4   4    5.70   28.50
  22  -4   4  270.47   41.30
 -22  -4  -4  270.17   40.40
  24  -4   4  177.08   37.60
 -24  -4  -4  155.18   36.50
 -26  -4  -4   82.59   35.20
  26  -4   4   54.89   33.70
  28  -4   4  324.87   49.10
 -28  -4  -4  425.76   51.29
  30  -4   4   80.79   35.20
 -30  -4  -4   63.29   37.50
 -32  -4  -4   65.19   36.20
  32  -4   4   57.29   36.40
  34  -4   4   13.00   35.20
 -34  -4  -4   88.89   40.20
 -36  -4  -4  188.68   44.90
 -39  -5   4   36.60   37.20
 -37  -5   4  -29.70   26.10
 -37  -5   4   18.30   35.30
  37  -5  -4   -3.80   31.80
 -35  -5   4  308.07   46.80
 -35  -5   4  198.28   35.80
  35  -5  -4  330.57   46.20
 -33  -5   4   72.79   34.90
  33  -5  -4   71.39   32.90
 -33  -5   4   40.40   25.90
  31  -5  -4   43.30   30.10
 -31  -5   4    7.40   20.00
 -31  -5   4   18.70   34.00
 -29  -5   4   58.99   23.60
  29  -5  -4  104.99   33.10
 -29  -5   4   23.70   30.50
 -27  -5   4  251.97   39.80
  27  -5  -4  275.77   40.40
 -27  -5   4  271.37   32.60
  25  -5  -4   24.90   25.80
 -25  -5   4   77.09   29.40
  23  -5  -4   17.10   25.10
 -23  -5   4   18.40   26.30
 -21  -5   4  385.76   41.50
  21  -5  -4  352.76   39.70
 -19  -5   4  296.37   38.50
  19  -5  -4  268.77   35.40
 -17  -5   4    6.50   26.80
  17  -5  -4    6.20   23.70
  15  -5  -4   49.30   25.20
 -15  -5   4   49.80   28.80
 -13  -5   4   30.20   25.30
  13  -5  -4   58.19   20.30
  13  -5  -4   29.70   23.00
  11  -5  -4   14.20   21.30
  11  -5  -4   26.10   20.10
 -11  -5   4  -21.70    8.00
   9  -5  -4   28.70   21.40
   9  -5  -4   22.70   20.60
  -9  -5   4   -1.20    7.70
   7  -5  -4  462.65   35.40
   7  -5  -4  442.26   34.50
  -7  -5   4  495.55   30.50
  -5  -5   4  853.31   50.89
   5  -5  -4  847.42   48.90
   5  -5  -4  897.31   47.40
  -5  -5   4  875.91   44.70
   3  -5  -4   99.69   22.50
   3  -5  -4  107.79   24.80
  -3  -5   4  150.78   26.00
  -3  -5   4  121.09   22.10
   1  -5  -4  406.56   36.10
  -1  -5   4  384.46   35.30
  -1  -5   4  454.55   35.40
   1  -5  -4  395.06   30.80
  -1  -5  -4  218.58   24.20
  -1  -5  -4  275.47   33.00
   1  -5   4  281.17   31.40
   1  -5   4  225.88   29.80
  -3  -5  -4   82.39   27.00
   3  -5   4   67.49   24.80
  -3  -5  -4   81.09   18.50
   3  -5   4   88.49   23.30
   5  -5   4   55.29   22.10
   5  -5   4   68.99   25.80
  -5  -5  -4   43.30   26.60
  -5  -5  -4   49.60   16.40
   7  -5   4  154.88   26.40
   7  -5   4  138.69   30.60
  -7  -5  -4  132.09   32.60
  -9  -5  -4  165.08   34.10
   9  -5   4  157.58   32.00
   9  -5   4  141.99   25.90
 -11  -5  -4  333.27   41.30
  11  -5   4  326.27   33.50
  11  -5   4  328.27   39.90
 -13  -5  -4  -17.20   28.50
  13  -5   4   10.40   28.30
 -15  -5  -4  192.28   37.40
  15  -5   4  136.69   33.70
  17  -5   4  259.77   39.30
 -17  -5  -4  229.38   39.60
  19  -5   4  -11.10   28.90
 -19  -5  -4    1.50   30.10
  21  -5   4  122.89   37.10
 -21  -5  -4  120.89   35.90
  23  -5   4  163.58   39.00
 -23  -5  -4   92.89   37.30
  25  -5   4   17.50   33.70
 -25  -5  -4   30.40   34.40
 -27  -5  -4   22.80   33.70
  27  -5   4  -41.10   31.60
 -29  -5  -4  117.99   41.70
  29  -5   4   44.50   39.30
 -31  -5  -4    9.90   37.70
  31  -5   4    3.00   37.00
 -33  -5  -4    2.70   39.50
 -34  -6   4   -7.20   34.80
 -34  -6   4  -16.10   24.20
 -32  -6   4    5.10   23.40
 -32  -6   4   19.10   35.70
  32  -6  -4   48.60   33.60
  30  -6  -4  225.88   40.40
 -30  -6   4  237.88   44.90
 -30  -6   4  179.58   31.10
 -28  -6   4   -3.30   35.00
  28  -6  -4  -16.80   27.80
 -26  -6   4   16.70   33.10
  26  -6  -4   43.50   29.90
  24  -6  -4   91.39   31.80
 -24  -6   4   44.40   35.50
 -22  -6   4  181.18   39.40
  22  -6  -4  192.38   34.40
 -20  -6   4  297.47   41.30
  20  -6  -4  287.97   38.20
  18  -6  -4   35.80   26.10
 -18  -6   4   43.80   30.20
 -16  -6   4   72.69   30.90
  16  -6  -4   61.39   26.40
  14  -6  -4   56.19   24.50
 -14  -6   4   65.29   30.70
  12  -6  -4  -12.60   22.10
 -12  -6   4  -11.10   25.20
  12  -6  -4    8.70   23.10
  10  -6  -4   52.69   23.60
  10  -6  -4   58.99   24.80
 -10  -6   4   87.49   29.70
   8  -6  -4   56.29   25.40
  -8  -6   4   42.20   28.10
   8  -6  -4  -18.30   20.20
   6  -6  -4   10.90   26.10
   6  -6  -4   -8.70   20.00
  -6  -6   4   -5.30   25.70
  -4  -6   4    9.60   25.70
   4  -6  -4   -2.00   22.00
   4  -6  -4   13.90   26.80
  -2  -6   4  289.27   36.00
   2  -6  -4  273.07   29.20
   2  -6  -4  254.37   34.90
  -2  -6   4  230.58   30.30
   0  -6   4   18.30   24.30
   0  -6  -4   33.70   28.50
   0  -6  -4   28.10   19.60
   0  -6   4   60.69   25.80
   2  -6   4   -3.20   23.80
   2  -6   4    9.00   22.80
  -2  -6  -4   25.50   28.40
   4  -6   4  -20.10   25.80
   4  -6   4   21.20   23.70
  -4  -6  -4  -12.10   27.40
   6  -6   4  151.18   28.40
   6  -6   4   49.60   27.10
  -6  -6  -4  139.79   34.00
   8  -6   4  277.87   34.80
  -8  -6  -4  326.37   40.20
   8  -6   4  251.87   36.20
  10  -6   4  216.38   30.90
 -10  -6  -4  223.88   38.20
  12  -6   4   76.29   32.70
 -12  -6  -4  116.49   35.40
  12  -6   4  122.49   26.40
  14  -6   4   40.70   26.00
  14  -6   4   65.89   33.00
 -14  -6  -4   57.19   34.10
  16  -6   4   98.49   26.60
  16  -6   4   35.40   30.30
 -16  -6  -4   71.09   34.30
  18  -6   4   73.09   35.40
 -18  -6  -4  117.99   37.20
 -20  -6  -4  -15.80   34.50
  20  -6   4   21.30   35.20
  22  -6   4  -12.80   31.30
 -22  -6  -4    6.60   33.20
  24  -6   4  105.89   39.40
 -24  -6  -4   25.20   36.80
  26  -6   4  104.59   41.20
 -26  -6  -4  105.79   40.40
 -28  -6  -4   49.10   39.20
 -30  -6  -4   25.70   41.20
 -31  -7   4   24.10   24.70
 -31  -7   4   33.60   39.50
 -29  -7   4   -7.80   37.70
 -27  -7   4   25.20   36.60
  27  -7  -4  100.69   36.80
  25  -7  -4   77.39   32.40
 -25  -7   4   30.40   34.30
  23  -7  -4   43.90   30.50
 -23  -7   4   11.60   34.40
  21  -7  -4   70.29   30.90
 -21  -7   4    8.40   31.70
  19  -7  -4   89.39   29.60
 -19  -7   4   42.30   34.00
  17  -7  -4  144.59   31.90
 -17  -7   4   89.89   35.00
  15  -7  -4    7.10   23.70
 -15  -7   4   54.09   33.00
 -13  -7   4   -7.60   30.90
  13  -7  -4   39.10   26.50
 -11  -7   4    1.00   31.30
  11  -7  -4    2.70   24.50
   9  -7  -4  177.88   29.60
  -9  -7   4  165.98   37.20
   9  -7  -4  265.27   39.20
   7  -7  -4  -41.60   29.30
  -7  -7   4  -19.80   26.90
   7  -7  -4   20.80   22.20
   5  -7  -4  -35.60   28.70
   5  -7  -4   29.50   23.10
  -5  -7   4   33.60   29.20
  -3  -7   4  260.57   38.60
   3  -7  -4  268.77   38.50
   3  -7  -4  293.07   32.90
  -1  -7   4  -43.80   24.20
   1  -7  -4    8.80   29.60
   1  -7   4   31.00   27.20
  -1  -7  -4   28.20   33.30
  -3  -7  -4   42.60   31.60
   3  -7   4   60.29   27.70
   3  -7   4   58.99   28.40
  -5  -7  -4  116.39   35.70
   5  -7   4  106.29   31.40
   5  -7   4  138.39   31.10
  -7  -7  -4   -2.90   35.10
   7  -7   4   33.00   28.30
   7  -7   4   25.80   28.50
  -9  -7  -4  -38.70   31.90
   9  -7   4   56.59   27.60
   9  -7   4  -22.70   29.50
  11  -7   4   86.79   29.20
  11  -7   4   91.19   32.20
 -13  -7  -4  -11.80   32.30
  13  -7   4    6.50   32.20
  13  -7   4   18.50   25.70
  15  -7   4   64.59   33.30
 -15  -7  -4   -4.50   34.30
  15  -7   4   -6.50   26.50
  17  -7   4  -21.40   33.20
 -17  -7  -4   46.50   38.20
 -19  -7  -4   79.39   38.90
  19  -7   4   58.79   36.90
 -21  -7  -4  -12.50   36.60
  21  -7   4   -6.30   35.60
 -23  -7  -4   48.50   43.50
  23  -7   4   37.20   42.20
 -25  -7  -4  102.69   44.30
 -24  -8   4    2.50   42.50
  22  -8  -4   -6.70   28.60
 -22  -8   4  -47.70   36.20
 -20  -8   4   20.70   38.80
  20  -8  -4   69.89   31.90
  18  -8  -4    2.50   27.30
 -18  -8   4  -40.60   31.80
 -16  -8   4   26.00   35.30
  16  -8  -4  129.99   31.80
  14  -8  -4   37.00   24.60
 -14  -8   4   12.30   35.70
 -12  -8   4  252.77   46.20
  10  -8  -4   46.20   25.20
 -10  -8   4  -22.30   35.30
  -8  -8   4   55.09   35.80
   6  -8  -4  -59.99   31.40
  -6  -8   4  -41.20   30.70
  -4  -8   4  151.58   37.50
   4  -8  -4  136.99   39.80
   2  -8  -4  -47.80   33.40
  -2  -8   4   -7.50   33.70
   0  -8  -4  131.39   38.40
   0  -8   4  125.79   36.10
  -2  -8  -4    6.20   36.10
   2  -8   4  -34.00   27.40
  -4  -8  -4   -1.30   37.20
   4  -8   4    4.10   31.40
   6  -8   4  -20.00   28.60
  -6  -8  -4  -30.60   35.20
   8  -8   4   35.20   32.80
   8  -8   4  137.69   34.60
  -8  -8  -4   30.80   37.50
  10  -8   4  -16.70   26.80
  10  -8   4  -19.60   30.40
 -10  -8  -4   58.59   39.20
  12  -8   4    7.30   30.90
 -12  -8  -4   80.39   41.60
  12  -8   4   49.40   32.00
 -14  -8  -4   38.90   40.10
  14  -8   4   68.39   36.30
  16  -8   4    8.70   32.30
 -16  -8  -4  -27.00   39.00
 -18  -8  -4  -36.30   39.40
 -20  -8  -4   71.89   46.70
  15  -9  -4   46.50   28.80
 -15  -9   4   29.10   42.60
 -13  -9   4   -9.00   40.20
 -11  -9   4  -75.69   40.20
  -9  -9   4  -32.80   38.70
  -7  -9   4   64.29   45.20
  -5  -9   4  -22.10   42.10
   3  -9  -4  -32.00   41.20
  -3  -9   4  -70.69   37.80
   1  -9  -4  -39.30   39.10
  -1  -9   4  -39.30   36.00
  -1  -9  -4  -14.00   38.70
   1  -9   4  -18.20   40.10
   3  -9   4    4.00   38.30
  -3  -9  -4  -37.70   41.70
   5  -9   4   55.79   38.90
  -5  -9  -4  -11.90   41.10
  -7  -9  -4   49.99   43.70
   7  -9   4   35.90   38.00
   9  -9   4   14.50   34.30
  -9  -9  -4   41.30   43.80
 -46   0   5  -56.39   27.10
 -44   0   5   38.30   30.30
 -42   0   5   25.20   27.90
 -40   0   5   -7.80   23.70
 -38   0   5   37.10   22.50
 -36   0   5   -2.30   22.80
 -34   0   5    1.30   21.40
 -32   0   5  -24.10   19.20
 -30   0   5    4.50   21.20
  28   0  -5   10.30   17.00
 -28   0   5  -13.90   16.10
 -26   0   5   -1.20   13.70
  26   0  -5    9.50   14.30
 -26   0   5   22.10   18.40
  24   0  -5   -7.00   12.40
 -24   0   5  -13.10   12.00
 -24   0   5   -4.20   14.00
 -22   0   5   -4.30   12.20
  22   0  -5   -0.70   11.10
 -22   0   5    1.90   10.80
  20   0  -5  -12.30    7.20
 -20   0   5   -1.40   12.40
 -20   0   5    3.80   10.60
  18   0  -5    4.60    6.90
 -18   0   5    2.30   11.80
 -18   0   5    3.80    9.10
  16   0  -5   14.10    8.60
 -16   0   5   -3.70    2.10
 -16   0   5   -1.50    7.80
 -14   0   5    0.20    6.40
  14   0  -5    0.50    7.90
 -12   0   5    4.10    9.40
  12   0  -5   17.40    7.10
  10   0  -5   -5.80    6.30
 -10   0   5    4.20    7.00
  -8   0   5    0.80    7.40
   8   0  -5   -5.60    6.70
   6   0  -5    0.70    6.60
  -6   0   5   -6.80    6.10
   4   0  -5  -13.10    6.40
   2   0  -5    1.50    6.20
   2   0  -5   -1.30    1.20
   0   0  -5    8.80    7.20
   0   0  -5   15.30    7.10
  -2   0  -5    3.30    7.50
  -2   0  -5   -1.60    7.30
   4   0   5   -0.10    8.20
  -4   0  -5    2.40    1.30
  -4   0  -5   12.60    7.90
   6   0   5    0.30    5.00
  -6   0  -5   -0.80    8.90
  -8   0  -5   -0.60    6.20
  -8   0  -5   -9.80    9.50
   8   0   5   -3.80    6.50
  10   0   5   14.20   10.80
 -10   0  -5    7.00    7.70
 -10   0  -5    3.10   11.60
 -12   0  -5   16.70    9.00
  12   0   5  -11.70   12.30
 -12   0  -5   12.50   13.40
 -14   0  -5   -5.40    3.70
 -14   0  -5    6.20   13.30
  14   0   5    6.70   13.80
 -16   0  -5   33.20   12.60
  16   0   5  -15.90   15.50
 -16   0  -5   19.90   15.90
  18   0   5   30.50   19.20
 -18   0  -5   24.30   18.10
 -18   0  -5   28.80   15.00
  20   0   5   30.60   21.00
 -20   0  -5    1.70   15.60
 -20   0  -5   12.60   19.30
  22   0   5   11.10   22.80
 -22   0  -5   10.90   19.50
 -22   0  -5   12.60   17.10
 -24   0  -5   -7.60   17.50
  24   0   5    7.40   22.80
 -26   0  -5    4.60   20.80
  26   0   5    1.40   23.20
 -28   0  -5   13.30   20.70
 -30   0  -5   -7.80   20.20
 -32   0  -5  -23.00   22.70
 -34   0  -5   58.89   27.80
 -45  -1   5   22.10   29.70
 -45   1   5   51.09   33.40
 -43  -1   5   37.50   29.80
 -43   1   5    1.40   29.30
 -41  -1   5   73.39   30.50
 -41   1   5   39.50   29.10
 -39  -1   5  367.26   43.00
 -39   1   5  310.87   41.90
 -37  -1   5   58.19   28.00
 -37   1   5   27.90   25.50
 -35  -1   5   13.90   23.60
 -35   1   5   -4.20   23.20
 -33  -1   5   -6.30   16.40
  33  -1  -5   33.60   19.80
 -33   1   5   28.90   23.10
  31  -1  -5  655.43   42.00
 -31  -1   5  576.74   44.70
 -31   1   5  599.14   43.90
 -29  -1   5  210.98   29.90
  29  -1  -5  230.98   28.70
 -29  -1   5  207.78   27.60
 -29   1   5  212.58   29.10
 -27  -1   5  513.15   37.20
 -27  -1   5  576.04   37.00
  27  -1  -5  552.24   37.70
 -27   1   5  490.45   38.10
  25  -1  -5   95.49   20.50
 -25  -1   5  138.19   21.70
 -25  -1   5   95.89   20.90
 -25   1   5  137.59   22.40
 -23  -1   5  436.06   28.90
 -23  -1   5  410.16   31.90
  23  -1  -5  354.56   29.50
 -23   1   5  424.46   35.10
  23   1  -5  430.76   23.30
 -21  -1   5  112.49   17.60
 -21  -1   5   88.79   17.80
  21  -1  -5   97.09   17.20
 -21   1   5   94.69   17.90
  21   1  -5  115.09   12.90
 -21   1   5  106.59   11.70
 -19  -1   5 1758.62   67.89
 -19  -1   5 1702.43   66.49
  19  -1  -5 1722.13   67.69
 -19   1   5 1415.46   66.09
  19   1  -5 1806.52   61.59
  17  -1  -5  197.58   20.00
 -17  -1   5  220.48   18.70
 -17  -1   5  212.28   20.40
  17   1  -5  202.18   13.40
 -15  -1   5  484.45   25.10
  15  -1  -5  460.15   26.10
 -15  -1   5  516.55   25.60
 -15   1   5  473.35   27.50
  15   1  -5  477.15   20.90
  11  -1  -5 2941.81  112.19
 -11  -1   5 3343.17  113.09
  11   1  -5 3267.87  108.69
 -11   1   5 3252.07  110.89
  -9  -1   5  663.83   30.00
   9  -1  -5  706.93   30.90
  -9   1   5  732.23   30.80
   9   1  -5  720.93   27.50
   7  -1  -5   29.30    6.80
  -7  -1   5   56.19   10.10
   7   1  -5   71.89    8.60
  -7   1   5   54.19    9.40
   5   1  -5  644.64   26.00
  -5   1   5  625.34   25.10
   3  -1  -5 2187.78   76.69
   3  -1  -5 2041.50   75.09
   3   1  -5 2125.19   74.89
   1  -1  -5 1016.40   40.70
  -1  -1   5 1099.19   41.50
   1  -1  -5 1011.20   42.60
   1  -1   5 2273.07   81.19
  -1  -1  -5 2229.58   83.89
  -1  -1  -5 2279.87   80.29
   3  -1   5   -4.60    1.90
  -3  -1  -5    0.70   10.70
  -3  -1  -5    8.50    7.70
   7  -1   5  109.39   14.80
  -7  -1  -5  126.49   13.00
  -9  -1  -5  513.75   22.60
   9  -1   5  453.05   29.20
  -9  -1  -5  559.64   32.30
  -9   1  -5  455.95   27.50
  11  -1   5  383.16   28.00
 -11  -1  -5  438.56   21.60
 -11  -1  -5  394.96   29.90
 -11   1  -5  384.86   26.50
 -13  -1  -5    1.10   13.60
  13  -1   5   -0.70   14.90
 -13  -1  -5   19.60   10.00
 -13   1  -5   29.20   13.40
  13   1   5   11.90   11.40
  15  -1   5  102.49   21.20
 -15  -1  -5   98.99   21.30
  15   1   5   93.69   16.70
 -15   1  -5   80.69   18.40
  17  -1   5 2923.81  116.59
 -17  -1  -5 3158.38  107.89
 -17  -1  -5 3130.59  120.99
 -17   1  -5 2901.21  118.39
 -17   1  -5 3038.20  109.29
  17   1   5 2923.31  111.89
 -19  -1  -5   14.40   14.50
 -19  -1  -5  -13.00   20.60
  19  -1   5   23.30   22.10
 -19   1  -5    6.10   18.00
  19   1   5   12.70   17.70
 -19   1  -5    3.90   15.70
 -21  -1  -5   45.60   17.80
 -21  -1  -5   -1.80   20.60
  21  -1   5   10.90   23.50
  21   1   5   10.50   19.20
 -21   1  -5    5.90   18.00
 -21   1  -5   28.70   18.60
 -23  -1  -5  112.19   26.50
  23  -1   5   91.69   27.40
 -23   1  -5   48.90   20.80
 -23   1  -5  101.69   23.70
  23   1   5   81.69   24.50
  25  -1   5  568.84   48.20
 -25  -1  -5  532.75   43.50
 -25   1  -5  675.93   42.80
 -25   1  -5  558.44   42.30
  27  -1   5  130.29   32.50
 -27  -1  -5  163.08   32.00
 -27   1  -5  164.48   29.50
  29  -1   5   21.00   28.20
 -29  -1  -5   39.50   23.30
 -29   1  -5   -6.60   20.70
  31  -1   5   68.09   31.90
 -31  -1  -5   63.59   27.20
 -33  -1  -5   50.89   27.80
 -35  -1  -5  294.67   42.30
 -44  -2   5   46.80   32.50
 -44   2   5  168.08   40.60
 -42  -2   5   38.00   31.40
 -42   2   5   45.30   32.80
 -40  -2   5  -11.60   26.40
 -40   2   5  -20.70   25.60
 -38  -2   5  107.09   31.60
 -38   2   5  138.19   34.30
  36  -2  -5  214.58   32.90
 -36  -2   5  178.28   33.90
 -36   2   5  186.48   36.10
 -34  -2   5  -17.40   22.20
  34  -2  -5   16.60   23.50
 -34   2   5    4.40   22.00
 -32  -2   5   34.40   23.50
  32  -2  -5   39.70   23.80
 -32  -2   5   88.49   26.00
 -32   2   5   40.20   25.40
 -30  -2   5  158.28   28.50
  30  -2  -5  151.78   29.00
 -30  -2   5  195.08   30.30
 -30   2   5  114.99   29.40
 -28  -2   5   14.00   20.00
 -28  -2   5    6.30   22.60
  28  -2  -5   14.20   23.30
 -28   2   5   -1.30   23.60
 -26  -2   5   97.29   24.70
  26  -2  -5   94.89   25.80
 -26  -2   5   90.29   21.90
 -26   2   5  102.69   23.70
  24  -2  -5   31.40   21.00
 -24  -2   5    1.30   13.50
 -24  -2   5   33.70   20.50
 -24   2   5   41.50   18.70
 -22  -2   5   31.80   14.20
 -22  -2   5   58.29   19.60
  22  -2  -5   79.29   22.00
 -22   2   5   40.70   12.80
 -20  -2   5  174.88   21.80
  20  -2  -5  186.08   24.10
 -20  -2   5  157.98   20.20
 -18  -2   5   12.60   14.90
  18  -2  -5    4.10   14.40
 -18  -2   5    7.10   11.70
  18   2  -5    3.30    4.00
 -18   2   5    4.30   10.50
 -16  -2   5   54.39   15.60
  16  -2  -5   58.09   16.10
 -16   2   5   44.90   14.70
  16   2  -5   45.60    5.20
 -14  -2   5  368.56   25.30
  14  -2  -5  376.06   25.90
 -14   2   5  335.17   23.80
  14   2  -5  386.96   15.20
 -12  -2   5  372.86   23.40
  12  -2  -5  356.06   24.30
 -12   2   5  384.86   24.00
 -10  -2   5  269.17   13.70
 -10  -2   5  263.77   20.70
 -10   2   5  305.17   19.70
  -8  -2   5  639.34   30.30
   8  -2  -5  645.64   30.70
  -8  -2   5  580.74   25.00
  -6  -2   5  254.67   15.40
  -6  -2   5  222.78   18.40
   6  -2  -5  235.88   16.90
   6  -2  -5  232.88   17.90
   4  -2  -5   -3.00   10.00
  -4  -2   5   -2.30   10.00
  -4  -2   5   -5.70    8.00
   4  -2  -5   -2.90    8.90
  -2  -2   5  338.57   20.60
   2  -2  -5  314.27   18.90
   2  -2  -5  281.97   20.40
   0  -2   5 1065.69   42.50
   0  -2  -5  905.11   42.50
   0  -2  -5 1008.20   40.30
   2  -2   5   12.70   11.80
  -2  -2  -5    3.40    7.50
  -2  -2  -5   27.90    9.10
   4  -2   5  660.03   33.50
  -4  -2  -5  608.64   28.10
  -4  -2  -5  631.64   34.70
  -6  -2  -5  296.37   18.30
   6  -2   5  333.17   25.30
  -6  -2  -5  326.87   27.60
 -10  -2  -5   84.49   10.30
 -10  -2  -5   94.49   12.80
  10  -2   5  110.99   21.00
 -12  -2  -5   76.19   21.50
  12  -2   5   72.29   20.10
 -12  -2  -5   61.69    9.90
  14  -2   5  234.48   29.30
 -14  -2  -5  279.07   31.30
  14   2   5  242.18   19.60
 -16  -2  -5  161.88   29.70
 -16  -2  -5  154.08   17.20
  16  -2   5  163.78   28.70
  16   2   5  130.09   17.90
  18  -2   5   35.70   24.80
 -18  -2  -5   66.29   25.20
 -18  -2  -5   32.00   15.70
  18   2   5   76.09   17.70
  20  -2   5    4.00   26.60
 -20  -2  -5    0.40   23.80
 -22  -2  -5  116.19   28.70
  22  -2   5   83.39   31.00
 -24  -2  -5   -3.10   22.80
  24  -2   5   62.39   28.90
  26  -2   5  -16.50   27.60
 -26  -2  -5   20.60   27.00
 -28  -2  -5    2.90   26.80
  28  -2   5  -25.10   27.50
 -30  -2  -5   30.60   27.40
  30  -2   5   14.80   30.20
 -32  -2  -5   -6.80   27.20
  32  -2   5  -32.80   29.90
  34  -2   5    4.80   33.40
 -34  -2  -5   20.20   29.20
 -36  -2  -5   57.89   32.20
 -38  -2  -5   80.69   35.00
 -43  -3   5   15.30   30.90
 -43   3   5    6.60   32.80
  41  -3  -5   53.19   31.50
 -41  -3   5    5.50   29.30
 -41   3   5   37.80   32.60
  39  -3  -5  191.98   36.50
 -39  -3   5  125.19   34.30
 -39   3   5  157.68   37.80
 -37  -3   5   38.00   24.80
  37  -3  -5   60.89   28.00
 -37   3   5   42.00   26.70
  35  -3  -5   13.10   24.30
 -35  -3   5    8.20   24.50
 -35   3   5  -19.60   22.30
  33  -3  -5   17.60   25.30
 -33  -3   5  -17.20   21.80
 -33  -3   5  -26.80   25.00
 -33   3   5  -16.20   24.20
 -31  -3   5  382.46   39.30
 -31  -3   5  335.07   38.60
  31  -3  -5  348.77   39.80
 -31   3   5  373.76   41.30
 -29  -3   5  745.33   46.50
 -29  -3   5  818.22   53.59
  29  -3  -5  739.33   50.99
 -29   3   5  822.52   56.09
 -27  -3   5   11.00   24.90
  27  -3  -5  -28.80   22.60
 -27  -3   5    7.60   19.70
 -27   3   5   23.70   22.00
 -25  -3   5  250.57   28.80
  25  -3  -5  236.48   34.50
 -25  -3   5  238.18   33.00
 -25   3   5  300.27   35.90
 -23  -3   5  189.98   28.70
  23  -3  -5  203.48   29.90
 -23  -3   5  171.18   23.10
  21  -3  -5  886.01   49.60
 -21  -3   5  808.62   47.40
 -19  -3   5  702.73   43.80
  19  -3  -5  681.73   42.70
  17  -3  -5   -5.50    9.30
 -17  -3   5    0.80   16.70
  17  -3  -5  -13.40   16.80
  15  -3  -5    9.40    4.30
 -15  -3   5   23.00   16.90
  15  -3  -5   10.10    9.50
  13  -3  -5   25.70   15.00
  13  -3  -5   40.80   10.70
 -13  -3   5   43.90   16.70
  11  -3  -5 1972.40   76.39
  11  -3  -5 1930.81   70.99
 -11  -3   5 1868.31   76.49
 -11  -3   5 1892.21   67.29
   9  -3  -5   99.39   17.90
  -9  -3   5   66.79   11.30
   9  -3  -5   81.09   14.40
  -9  -3   5   59.99   15.80
   7  -3  -5  421.36   24.80
  -7  -3   5  365.76   21.70
  -7  -3   5  389.96   26.80
   7  -3  -5  404.56   26.70
   5  -3  -5   34.90    9.20
   5  -3  -5   71.89   14.40
  -5  -3   5   88.19   13.40
  -5  -3   5   49.90   12.00
   3  -3  -5 1316.97   52.99
  -3  -3   5 1316.67   53.49
   1  -3  -5 2839.82   99.69
  -1  -3   5 2645.94  103.49
   1  -3  -5 2787.62  103.19
  -1  -3   5 2755.52  101.19
   1  -3   5  455.25   29.20
  -1  -3  -5  448.16   24.90
  -1  -3  -5  455.15   30.50
  -3  -3  -5  312.87   27.00
   3  -3   5  275.77   26.10
  -3  -3  -5  233.58   18.80
  -5  -3  -5  241.38   26.30
  -5  -3  -5  209.88   17.50
   5  -3   5  242.58   26.30
   7  -3   5 1287.27   59.39
  -7  -3  -5 1266.77   49.80
  -7  -3  -5 1248.38   59.89
  -9  -3  -5 1732.23   66.49
   9  -3   5 1789.32   77.39
  -9  -3  -5 1868.21   79.29
 -11  -3  -5   15.20    9.70
  11  -3   5  -11.60    9.20
 -11  -3  -5   14.40    9.30
  13  -3   5   -7.50    5.40
 -13  -3  -5   44.00   12.10
 -13  -3  -5   12.20    6.80
 -15  -3  -5  119.29   16.20
  15  -3   5   41.80   21.90
 -15  -3  -5    8.90   11.90
 -17  -3  -5   78.79   29.00
  17  -3   5  106.29   31.00
 -19  -3  -5  133.49   32.60
  19  -3   5  109.89   32.40
 -21  -3  -5  180.28   33.50
  21  -3   5  104.19   32.10
  23  -3   5   69.89   29.50
 -23  -3  -5    3.90   25.90
  25  -3   5  179.98   36.80
 -25  -3  -5  194.28   36.10
  27  -3   5  396.76   49.10
 -27  -3  -5  417.56   48.60
 -29  -3  -5   34.00   30.90
  29  -3   5   -2.70   32.50
  31  -3   5   19.70   32.30
 -31  -3  -5   -4.20   29.90
  33  -3   5    5.30   35.40
 -33  -3  -5   84.29   34.40
 -35  -3  -5  165.28   41.20
  35  -3   5  131.19   40.90
 -42  -4   5  -15.30   29.40
 -40  -4   5   31.90   32.30
  40  -4  -5  107.49   36.10
  38  -4  -5   17.50   28.60
 -38  -4   5  -35.40   26.00
 -36  -4   5   70.79   29.70
 -36  -4   5   81.39   33.00
  36  -4  -5   96.29   33.20
  34  -4  -5   11.80   27.10
 -34  -4   5   34.30   32.50
 -34  -4   5    3.80   23.50
 -32  -4   5   25.60   31.30
  32  -4  -5   66.79   29.40
 -32  -4   5   19.40   22.50
  30  -4  -5   44.30   28.10
 -30  -4   5   18.60   28.90
 -30  -4   5   23.20   21.20
 -28  -4   5   80.49   22.20
 -28  -4   5   91.69   31.70
  28  -4  -5   74.49   28.60
  26  -4  -5   14.70   24.50
 -26  -4   5  -24.10   16.10
 -26  -4   5   13.30   24.20
 -24  -4   5   39.80   28.00
  24  -4  -5   47.90   25.80
  22  -4  -5   59.09   26.90
 -22  -4   5   78.29   26.90
 -20  -4   5  142.79   28.00
  20  -4  -5   70.19   20.00
 -18  -4   5  446.16   39.40
 -16  -4   5   56.79   24.90
  16  -4  -5   15.50    6.90
  14  -4  -5   28.80   13.60
 -14  -4   5   60.29   23.10
  14  -4  -5   44.90   20.30
  12  -4  -5   15.00   18.90
  12  -4  -5   23.60   15.00
 -12  -4   5   29.60   21.30
 -10  -4   5   27.30   19.70
 -10  -4   5   22.10   11.90
  10  -4  -5   41.10   18.50
  10  -4  -5   65.39   17.10
  -8  -4   5   80.79   19.60
   8  -4  -5  109.09   20.60
  -8  -4   5  111.39   15.70
   8  -4  -5  132.99   20.80
   6  -4  -5   26.70   16.40
   6  -4  -5   33.90   15.90
  -6  -4   5   33.60   14.20
   4  -4  -5  -24.50   15.10
  -4  -4   5   -3.80   15.70
   4  -4  -5   -8.40   13.00
  -4  -4   5   10.30   14.90
   2  -4  -5  127.39   18.00
   2  -4  -5  131.69   22.40
  -2  -4   5  124.29   21.10
  -2  -4   5  101.49   19.80
   0  -4  -5   35.70   15.20
   0  -4   5   80.59   19.10
   0  -4  -5   34.60   19.10
   0  -4   5   23.50   17.10
   2  -4   5   -8.20   18.70
   2  -4   5    9.30   16.40
  -2  -4  -5   15.80   20.50
  -2  -4  -5   27.20   13.50
  -4  -4  -5   93.29   15.20
  -4  -4  -5  101.69   24.30
   4  -4   5   94.59   23.10
   6  -4   5    9.00   20.80
  -6  -4  -5   24.90   12.50
  -6  -4  -5  -16.30   22.50
  -8  -4  -5  114.89   29.70
   8  -4   5  191.08   30.10
  -8  -4  -5  171.98   17.90
 -10  -4  -5  437.96   42.10
  10  -4   5  453.85   41.90
 -12  -4  -5   52.09   22.50
  12  -4   5  107.69   30.50
  14  -4   5   69.39   30.10
 -14  -4  -5   46.00   29.50
  16  -4   5   55.09   29.80
 -16  -4  -5   44.00   30.30
 -18  -4  -5   40.60   30.20
  18  -4   5   37.10   28.40
  20  -4   5   53.29   31.00
 -20  -4  -5   43.40   29.10
 -22  -4  -5    1.30   28.30
  22  -4   5   21.00   30.10
  24  -4   5   31.40   31.70
 -24  -4  -5   20.60   31.70
 -26  -4  -5   15.10   32.00
  26  -4   5   57.69   35.40
  28  -4   5   25.40   33.20
 -28  -4  -5   61.59   38.20
 -30  -4  -5   -5.20   32.90
  30  -4   5  -12.60   32.60
  32  -4   5   26.20   34.70
 -32  -4  -5   19.30   34.90
 -34  -4  -5   18.50   37.80
 -39  -5   5  106.89   35.30
  37  -5  -5   72.69   34.90
 -37  -5   5   30.60   27.80
 -37  -5   5   84.09   41.10
 -35  -5   5   24.50   24.70
 -35  -5   5   50.99   38.00
  35  -5  -5   84.59   34.40
 -33  -5   5    9.00   23.00
  33  -5  -5   33.40   29.20
 -33  -5   5   84.99   35.30
 -31  -5   5  230.28   31.60
 -31  -5   5  215.38   40.50
  31  -5  -5  250.77   39.40
  29  -5  -5  258.17   41.80
 -29  -5   5  227.78   39.30
 -29  -5   5  238.48   32.00
 -27  -5   5  213.88   39.30
  27  -5  -5  246.38   37.60
  25  -5  -5   17.20   25.10
 -25  -5   5   -6.00   26.00
 -23  -5   5   14.10   25.90
  23  -5  -5   70.39   26.50
 -21  -5   5  206.28   34.20
  21  -5  -5  172.18   31.30
 -19  -5   5  155.58   31.80
  19  -5  -5  169.08   30.20
  17  -5  -5   63.79   25.30
 -17  -5   5   71.09   30.20
  15  -5  -5   23.60   23.20
 -15  -5   5   55.69   27.80
  13  -5  -5  225.38   26.60
 -13  -5   5  192.88   32.10
  13  -5  -5  215.58   30.30
  11  -5  -5 1440.06   63.99
  11  -5  -5 1358.26   65.79
   9  -5  -5   40.20   23.10
   9  -5  -5   49.90   21.70
   7  -5  -5  155.48   25.20
   7  -5  -5  145.69   27.10
  -7  -5   5  143.19   21.60
  -5  -5   5  116.59   26.10
   5  -5  -5  165.78   24.60
  -5  -5   5  182.78   24.20
   5  -5  -5  164.28   28.00
  -3  -5   5 1196.78   56.19
  -3  -5   5 1208.98   60.79
   3  -5  -5 1212.98   55.39
   3  -5  -5 1085.39   58.09
   1  -5  -5  443.66   39.10
   1  -5  -5  485.05   33.40
  -1  -5   5  455.25   37.40
  -1  -5   5  465.85   38.50
  -1  -5  -5  277.47   32.90
   1  -5   5  172.18   28.10
  -1  -5  -5  249.18   25.10
   1  -5   5  256.67   31.00
  -3  -5  -5    6.70   25.70
   3  -5   5   34.50   26.20
   3  -5   5   49.99   22.60
  -3  -5  -5   39.30   17.00
  -5  -5  -5  197.18   34.80
  -5  -5  -5  177.38   21.00
   5  -5   5  190.38   28.20
   5  -5   5  142.99   30.30
  -7  -5  -5   81.49   31.00
   7  -5   5   72.39   28.30
   7  -5   5   89.29   23.80
  -9  -5  -5  152.28   34.50
   9  -5   5  163.98   33.90
   9  -5   5  114.29   27.10
  11  -5   5   24.30   28.40
 -11  -5  -5    4.10   26.00
  13  -5   5   36.00   29.40
 -13  -5  -5   13.40   30.50
  15  -5   5  141.39   34.60
 -15  -5  -5  116.59   35.10
  17  -5   5  510.65   50.99
 -17  -5  -5  512.75   51.49
 -19  -5  -5   -2.10   30.40
  19  -5   5   49.99   32.60
 -21  -5  -5   34.70   34.20
  21  -5   5  -18.30   30.10
  23  -5   5   36.40   34.10
 -23  -5  -5   73.39   35.20
  25  -5   5  189.38   43.50
 -25  -5  -5  142.19   40.40
  27  -5   5  190.88   44.30
 -27  -5  -5  181.28   44.70
  29  -5   5  -47.30   36.50
 -29  -5  -5   -0.70   35.90
 -31  -5  -5   30.10   39.40
 -36  -6   5   69.29   29.90
 -36  -6   5  -16.60   39.10
 -34  -6   5  -16.40   23.30
 -34  -6   5   -1.50   39.10
 -32  -6   5    3.00   33.10
 -32  -6   5   27.80   23.60
  32  -6  -5   52.99   33.00
 -30  -6   5   23.60   21.50
 -30  -6   5    4.00   32.20
  30  -6  -5   53.99   31.50
  28  -6  -5   28.30   29.60
 -28  -6   5   42.20   32.40
 -26  -6   5  107.69   38.50
  26  -6  -5   77.99   30.60
  24  -6  -5   21.20   27.10
 -24  -6   5   12.40   29.50
  22  -6  -5   28.80   26.90
 -22  -6   5   32.80   31.00
 -20  -6   5   36.60   31.20
  20  -6  -5   28.30   25.90
  18  -6  -5   78.19   27.50
 -18  -6   5  101.69   30.90
  16  -6  -5   18.80   23.50
 -16  -6   5   19.70   29.90
  14  -6  -5   43.50   24.00
 -14  -6   5   54.89   29.50
 -12  -6   5  299.57   37.50
  12  -6  -5  214.68   30.30
 -10  -6   5   77.29   29.10
  10  -6  -5   67.49   27.60
  10  -6  -5  -10.40   20.20
   8  -6  -5  111.69   25.70
   8  -6  -5  129.69   29.80
  -8  -6   5   79.89   28.70
  -6  -6   5   68.89   28.00
   6  -6  -5   71.19   24.60
   6  -6  -5   48.80   27.80
   4  -6  -5  375.06   40.40
  -4  -6   5  395.36   40.50
   4  -6  -5  436.06   36.10
  -2  -6   5   -8.80   22.70
   2  -6  -5  -24.90   25.30
   2  -6  -5  -16.80   19.30
  -2  -6   5   20.70   25.40
   0  -6   5  151.38   29.60
   0  -6   5  153.78   29.60
   0  -6  -5   96.19   32.40
   0  -6  -5  124.69   24.00
   2  -6   5  346.17   37.40
   2  -6   5  274.77   35.70
  -2  -6  -5  309.17   38.40
   4  -6   5   14.80   23.60
   4  -6   5   -4.50   23.60
  -4  -6  -5   48.40   30.80
  -6  -6  -5   33.80   29.90
   6  -6   5    8.30   25.30
   6  -6   5   35.20   23.30
   8  -6   5   70.49   29.80
  -8  -6  -5   13.70   30.50
   8  -6   5  -15.90   23.30
  10  -6   5  149.09   34.40
 -10  -6  -5  198.48   38.60
  10  -6   5  147.49   30.60
 -12  -6  -5    9.80   31.00
  12  -6   5   -7.20   23.50
  12  -6   5   12.20   29.80
 -14  -6  -5   56.29   35.30
  14  -6   5   10.10   29.90
  14  -6   5    3.50   21.80
 -16  -6  -5   86.39   36.30
  16  -6   5  -29.70   33.20
  16  -6   5    6.60   22.50
  18  -6   5  -12.10   30.10
  18  -6   5   49.50   26.30
 -18  -6  -5   62.99   35.60
 -20  -6  -5    4.20   34.40
  20  -6   5    0.70   32.20
  22  -6   5   17.80   33.80
 -22  -6  -5    7.40   35.50
  24  -6   5   31.50   37.70
 -24  -6  -5   73.09   39.30
  26  -6   5   37.40   39.50
 -26  -6  -5   28.90   40.10
 -28  -6  -5   72.09   43.10
 -31  -7   5  107.99   28.60
 -31  -7   5   62.19   38.60
 -29  -7   5  -53.39   33.80
  27  -7  -5   34.30   30.20
 -27  -7   5  -45.70   35.70
 -25  -7   5    2.20   34.60
  25  -7  -5   33.60   28.90
  23  -7  -5   76.99   30.60
 -23  -7   5  119.59   38.50
 -21  -7   5   95.29   36.00
  21  -7  -5   73.19   29.10
 -19  -7   5  121.79   37.50
  19  -7  -5  134.59   32.30
 -17  -7   5  -13.70   29.60
  17  -7  -5   12.20   26.30
  15  -7  -5   97.09   27.20
 -15  -7   5   73.59   34.60
 -13  -7   5  -14.60   29.10
  13  -7  -5    1.40   21.10
 -11  -7   5  155.68   36.10
  11  -7  -5  143.19   28.10
  -9  -7   5   -4.70   27.70
   9  -7  -5   20.30   23.90
   7  -7  -5   59.29   31.80
  -7  -7   5   79.19   30.70
   7  -7  -5   65.09   23.60
   5  -7  -5    0.10   28.70
   5  -7  -5   55.69   23.70
  -5  -7   5    7.60   28.90
   3  -7  -5  312.57   40.30
  -3  -7   5  217.98   36.80
  -1  -7   5   62.19   29.10
   1  -7  -5   -1.30   29.60
  -1  -7  -5  150.78   35.30
   1  -7   5  116.89   30.60
   1  -7   5   72.69   30.40
   3  -7   5    8.70   25.90
   3  -7   5   97.19   28.40
  -3  -7  -5   41.90   32.80
   5  -7   5   94.59   29.90
   5  -7   5  114.69   30.40
  -5  -7  -5  105.79   38.90
   7  -7   5   90.69   35.20
  -7  -7  -5   98.79   38.50
   7  -7   5  123.69   31.40
  -9  -7  -5   71.59   36.60
   9  -7   5   84.69   32.20
   9  -7   5   86.69   30.20
  11  -7   5   86.09   34.10
 -11  -7  -5   33.40   36.50
  11  -7   5   41.00   29.20
  13  -7   5   -9.00   30.50
  13  -7   5   17.90   27.90
 -13  -7  -5  -36.50   33.10
 -15  -7  -5   62.19   38.80
  15  -7   5   -3.50   32.70
  15  -7   5   26.10   27.80
 -17  -7  -5    6.80   39.70
  17  -7   5   69.79   36.60
  19  -7   5  109.59   42.60
 -19  -7  -5   45.30   39.50
 -21  -7  -5   16.90   39.10
  21  -7   5   32.30   39.80
 -23  -7  -5  -18.10   37.90
 -24  -8   5  -49.60   35.00
 -22  -8   5  -27.60   35.70
  22  -8  -5    9.00   30.30
 -20  -8   5   -7.90   36.50
  20  -8  -5   37.00   28.00
 -18  -8   5   26.80   37.90
  18  -8  -5   96.89   31.00
 -16  -8   5   31.20   35.70
  16  -8  -5   59.39   25.60
 -14  -8   5  -40.10   33.50
  14  -8  -5   12.60   25.20
  12  -8  -5   56.59   26.40
 -12  -8   5   20.60   37.30
  10  -8  -5   61.69   25.00
 -10  -8   5  -32.30   32.70
  -8  -8   5  -19.70   32.30
  -6  -8   5    3.80   34.40
   4  -8  -5  -32.40   30.50
  -4  -8   5   -6.00   31.90
  -2  -8   5   21.40   33.10
   2  -8  -5  -17.60   34.60
   0  -8   5   46.10   31.90
   0  -8  -5   13.90   32.90
   2  -8   5    7.50   29.30
  -2  -8  -5    0.00   37.70
  -4  -8  -5    8.90   35.80
   4  -8   5  -10.80   28.90
   6  -8   5   18.60   32.00
  -6  -8  -5   33.70   37.50
   8  -8   5   38.60   32.20
  -8  -8  -5  -12.80   36.90
   8  -8   5   29.90   30.00
  10  -8   5   10.60   29.40
 -10  -8  -5   35.90   41.10
  10  -8   5   72.09   36.00
  12  -8   5   18.20   32.80
 -12  -8  -5   29.30   38.70
  12  -8   5   12.50   31.50
  14  -8   5   94.59   39.30
 -14  -8  -5   15.10   40.00
 -16  -8  -5   13.60   42.10
  16  -8   5  -14.60   36.10
 -18  -8  -5   44.00   43.90
  15  -9  -5   58.79   30.60
 -15  -9   5  -52.89   38.80
 -13  -9   5  -33.50   41.20
 -11  -9   5    1.90   40.80
  -9  -9   5   -9.00   42.80
  -7  -9   5  -57.19   38.20
  -5  -9   5  -37.60   35.90
  -3  -9   5  -10.90   40.50
  -1  -9   5  -27.40   35.90
   1  -9  -5   -2.10   41.60
   1  -9   5   -5.60   37.20
  -1  -9  -5  -65.09   41.10
   3  -9   5  -14.40   37.30
  -3  -9  -5   25.80   44.30
  -5  -9  -5    4.40   41.20
   5  -9   5  -29.80   35.70
   7  -9   5    4.80   34.00
  -7  -9  -5   -1.50   43.00
 -46   0   6  -16.30   28.30
 -44   0   6    2.40   28.40
 -42   0   6   14.00   26.10
 -40   0   6  487.85   48.40
 -38   0   6  480.85   46.70
 -36   0   6   20.80   20.20
 -34   0   6   47.00   24.60
 -32   0   6  333.37   34.90
  30   0  -6   64.99   20.60
 -30   0   6   32.40   22.70
 -28   0   6  139.89   25.70
  28   0  -6  157.08   21.70
 -26   0   6  497.65   37.40
  26   0  -6  476.35   30.30
  24   0  -6   -6.30   11.70
 -24   0   6   13.60   14.60
 -24   0   6    1.30   11.80
  22   0  -6  426.16   25.80
 -22   0   6  459.95   25.40
 -22   0   6  433.76   32.00
 -20   0   6  543.25   30.20
 -20   0   6  527.25   25.80
  20   0  -6  482.05   26.30
  16   0  -6  669.23   30.30
 -16   0   6  698.53   34.00
  14   0  -6   42.70    9.00
 -14   0   6   57.89   12.60
  12   0  -6 1451.15   54.89
 -12   0   6 1504.85   56.89
  10   0  -6 1398.96   52.59
 -10   0   6 1435.26   53.39
   8   0  -6 1353.26   51.19
  -8   0   6 1425.06   50.79
   6   0  -6  112.59   11.60
  -6   0   6  100.99   10.00
   4   0  -6   -1.60    6.00
   0   0  -6  132.49   13.50
   0   0  -6  150.58   14.10
  -2   0  -6   12.50    7.10
  -2   0  -6   11.80    8.90
   6   0   6   29.40    9.90
  -6   0  -6   11.00    8.20
  -8   0  -6 2291.97   91.99
   8   0   6 2476.65   88.69
 -10   0  -6  159.48   13.30
 -10   0  -6  181.88   21.20
  10   0   6  174.48   19.40
 -12   0  -6  495.25   24.40
 -12   0  -6  451.75   31.80
  12   0   6  472.05   28.70
  14   0   6  482.25   31.10
 -14   0  -6  503.65   34.60
 -16   0  -6 2797.02  102.39
  16   0   6 2935.31  109.89
 -16   0  -6 2909.81  115.09
 -18   0  -6 1035.00   55.29
  18   0   6 1004.50   52.19
 -18   0  -6 1055.49   47.70
 -20   0  -6    2.90   18.60
  20   0   6   23.60   21.60
 -20   0  -6  -13.00   14.90
  22   0   6    1.80   22.20
 -22   0  -6   37.10   21.40
  24   0   6  158.68   29.50
 -24   0  -6   60.89   23.10
 -26   0  -6   39.40   23.60
  26   0   6   42.10   25.60
 -28   0  -6  380.96   42.50
 -30   0  -6   11.70   25.40
 -32   0  -6   -3.50   25.50
 -34   0  -6  282.87   41.90
 -45  -1   6   15.80   30.60
 -45   1   6   -6.20   29.10
 -43  -1   6   62.39   31.80
 -43   1   6   77.59   32.80
 -41  -1   6   20.60   27.90
 -41   1   6   40.10   25.60
 -39  -1   6   43.10   27.60
 -39   1   6  110.59   31.80
 -37  -1   6   14.00   20.80
 -37   1   6   21.40   25.60
 -35  -1   6  327.27   38.50
 -35   1   6  375.66   41.80
 -33  -1   6   35.70   23.00
  33  -1  -6   10.00   18.60
 -33   1   6  -22.10   17.30
 -31  -1   6  -10.90   16.70
  31  -1  -6    8.20   18.60
 -31   1   6   33.90   22.80
 -29  -1   6 2152.48   87.29
  29  -1  -6 1909.41   82.29
 -29   1   6 1847.62   85.99
 -27  -1   6  153.18   26.50
 -27  -1   6  181.48   23.80
  27  -1  -6  166.58   24.90
 -27   1   6  174.78   27.50
  25  -1  -6   75.39   20.30
 -25  -1   6  136.69   21.00
 -25  -1   6  127.89   23.10
 -25   1   6  118.59   22.50
 -23  -1   6  244.38   24.90
 -23  -1   6  273.27   24.00
  23  -1  -6  281.87   25.50
 -23   1   6  227.58   25.30
  23   1  -6  212.98   17.20
 -21  -1   6  384.06   27.20
 -21  -1   6  411.66   26.20
  21  -1  -6  331.57   26.80
  21   1  -6  377.66   20.50
 -19  -1   6 1388.66   55.89
  19  -1  -6 1394.66   58.19
 -19  -1   6 1392.66   57.69
  19   1  -6 1411.16   52.19
  17  -1  -6 2823.82  105.39
 -17  -1   6 2918.41  104.79
 -17   1   6 2973.90  106.99
  17   1  -6 2907.91  100.69
  15  -1  -6  780.32   35.00
 -15  -1   6  749.82   33.40
  15   1  -6  746.03   29.90
 -15   1   6  669.33   36.10
 -13  -1   6  119.69   13.40
 -13  -1   6  166.48   14.00
  13   1  -6  128.19   10.40
 -13   1   6  114.09   14.70
 -11  -1   6   25.80    9.20
 -11   1   6   35.40   10.90
  11   1  -6   35.20    6.90
  -9  -1   6   42.40    9.90
   9  -1  -6   44.30    9.80
  -9   1   6   55.79   10.30
   9   1  -6   46.60    8.00
   7   1  -6 4392.86  148.49
  -7   1   6 4356.56  145.09
   5  -1  -6   90.19   10.30
   5   1  -6   88.19   10.40
  -5   1   6   89.59    9.00
   3  -1  -6  133.19   13.60
   3  -1  -6  180.58   14.60
   3   1  -6  142.19   13.40
   1  -1  -6  402.26   22.50
  -1  -1   6  400.36   21.60
   1  -1  -6  389.86   20.80
  -1  -1  -6  117.09   12.90
  -1  -1  -6  133.99   15.80
   1  -1   6  120.99   14.30
   5  -1   6   48.80   12.30
  -5  -1  -6   45.60   12.40
  -5  -1  -6   44.10   10.40
  -7  -1  -6 1747.03   64.89
   7  -1   6 1650.83   67.09
  -9  -1  -6  449.36   32.10
  -9  -1  -6  573.04   23.90
   9  -1   6  565.44   32.50
   9   1   6  512.15   28.30
  -9   1  -6  590.04   31.50
 -11  -1  -6  212.48   25.90
 -11  -1  -6  193.58   15.60
  11  -1   6  221.88   24.40
 -11   1  -6  214.98   22.70
  11   1   6  230.68   20.00
  13  -1   6   25.40   16.80
 -13  -1  -6   42.80   11.10
 -13  -1  -6    4.80   17.30
 -13   1  -6   53.49   17.10
  13   1   6   53.69   14.10
  15  -1   6  253.77   28.90
 -15  -1  -6  228.98   29.10
  15   1   6  222.98   22.90
 -15   1  -6  238.88   27.80
 -17  -1  -6  770.92   36.80
 -17  -1  -6  741.43   47.10
  17  -1   6  704.83   44.70
 -17   1  -6  746.53   44.70
  17   1   6  695.73   39.70
  19  -1   6  120.99   28.20
 -19  -1  -6  134.99   26.80
 -19   1  -6  108.49   23.70
  19   1   6  116.69   22.50
  21  -1   6  173.48   33.20
 -21  -1  -6  205.08   31.10
  21   1   6  193.78   27.60
 -21   1  -6  257.97   32.80
  23  -1   6  437.16   43.30
 -23  -1  -6  506.25   44.90
 -23   1  -6  487.15   41.60
  25  -1   6   49.50   27.30
 -25  -1  -6   70.59   24.80
 -25   1  -6   62.69   22.70
 -27  -1  -6  158.88   31.30
  27  -1   6  185.88   34.50
 -27   1  -6  148.29   28.90
 -29  -1  -6   63.69   27.20
  29  -1   6   63.19   31.20
 -29   1  -6  121.49   28.00
 -31  -1  -6  112.69   32.30
 -33  -1  -6   78.49   30.80
 -35  -1  -6   31.50   29.40
 -37  -1  -6  117.09   35.80
 -44  -2   6  130.49   37.90
 -44   2   6  132.39   33.90
 -42  -2   6   55.49   32.10
 -42   2   6   17.80   30.60
 -40  -2   6   55.69   28.50
 -40   2   6    3.20   28.20
  38  -2  -6  224.88   35.40
 -38  -2   6  161.48   31.60
 -38   2   6  231.08   37.90
 -36  -2   6   20.00   22.60
  36  -2  -6    8.20   21.20
 -36   2   6   61.49   25.70
 -34  -2   6    7.20   20.50
  34  -2  -6   -0.80   22.20
 -34   2   6    8.20   24.30
  32  -2  -6  203.48   30.60
 -32  -2   6  137.59   29.30
 -32   2   6  176.08   30.40
 -30  -2   6 1527.85   73.39
 -30  -2   6 1459.75   71.59
  30  -2  -6 1537.45   71.69
 -30   2   6 1570.04   75.39
  28  -2  -6  123.99   26.20
 -28  -2   6  105.89   25.20
 -28  -2   6  108.29   25.50
 -28   2   6   87.09   24.30
 -26  -2   6  125.99   24.60
  26  -2  -6  195.08   28.60
 -26  -2   6  146.69   24.80
 -26   2   6  131.39   26.90
 -24  -2   6  393.96   33.40
  24  -2  -6  415.46   34.00
 -24  -2   6  395.26   30.40
 -22  -2   6 1766.42   72.29
  22  -2  -6 1792.82   74.69
 -22  -2   6 1726.23   73.19
 -20  -2   6  406.66   28.80
  20  -2  -6  337.87   28.70
 -20  -2   6  361.26   28.60
 -20   2   6  445.36   32.70
  18  -2  -6  822.92   41.00
 -18  -2   6  747.13   38.20
 -18  -2   6  754.72   39.20
 -18   2   6  820.82   42.30
  18   2  -6  785.12   29.40
  16  -2  -6   49.70   15.50
 -16  -2   6   49.60   15.10
 -16   2   6   53.79   14.20
  16   2  -6   41.50    6.30
  14  -2  -6 3460.05  122.69
 -14  -2   6 3246.08  122.49
  14   2  -6 3365.96  114.39
 -14   2   6 3479.25  120.39
 -12  -2   6  286.87   21.20
  12  -2  -6  366.46   23.40
 -12   2   6  278.97   21.50
  12   2  -6  328.37   15.50
 -10  -2   6 3992.80  135.09
 -10  -2   6 4088.59  142.39
 -10   2   6 3874.71  135.69
  -8  -2   6  153.18   12.60
   8  -2  -6  158.38   13.40
  -8  -2   6  147.49   15.70
   8  -2  -6  134.89   15.70
   6  -2  -6 2401.56   87.29
   6  -2  -6 2420.96   88.09
  -6  -2   6 2379.66   89.69
  -6  -2   6 2466.75   85.69
  -4  -2   6  119.59   13.00
   4  -2  -6   93.79   13.80
   4  -2  -6  103.39   13.80
   2  -2  -6 2698.03   98.59
  -2  -2   6 2622.04   95.99
   2  -2  -6 2718.03   96.19
   0  -2   6  449.56   25.20
   0  -2  -6  436.86   23.50
   2  -2   6   62.59   14.00
  -2  -2  -6   88.59   12.50
  -2  -2  -6   54.39   15.80
  -4  -2  -6 1302.77   57.69
  -4  -2  -6 1318.57   51.29
   4  -2   6 1313.57   55.89
   6  -2   6 2632.54  101.39
  -6  -2  -6 2717.73  104.69
  -6  -2  -6 2720.93   96.59
  -8  -2  -6  572.34   28.00
  -8  -2  -6  574.84   37.30
  10  -2   6  349.17   30.80
 -10  -2  -6  348.27   18.00
 -10  -2  -6  333.57   21.50
 -12  -2  -6  740.33   31.70
 -12  -2  -6  683.23   44.80
  12  -2   6  704.43   43.20
  12   2   6  762.12   35.10
  14  -2   6  328.37   33.50
 -14  -2  -6  276.47   34.20
  14   2   6  325.77   23.40
  16  -2   6  152.78   29.70
 -16  -2  -6  162.18   29.30
  16   2   6  154.88   19.90
 -18  -2  -6  557.54   46.40
  18  -2   6  613.34   47.00
  18   2   6  639.84   35.70
  20  -2   6   -5.20   24.30
 -20  -2  -6   -8.80   23.60
 -22  -2  -6   41.20   25.10
  22  -2   6   47.50   28.50
  24  -2   6   93.89   30.70
 -24  -2  -6   73.49   28.00
 -26  -2  -6 1648.54   85.19
  26  -2   6 1743.33   86.19
 -28  -2  -6  128.49   32.70
  28  -2   6   37.40   29.90
 -30  -2  -6   17.20   25.80
  30  -2   6    1.20   31.00
  32  -2   6   71.19   36.60
 -32  -2  -6   61.89   29.00
 -34  -2  -6  350.76   47.00
  34  -2   6  296.27   47.50
 -36  -2  -6   23.80   31.90
 -43  -3   6   -3.40   32.60
 -43   3   6   33.10   29.20
 -41  -3   6   13.70   31.00
  41  -3  -6   11.20   26.10
 -41   3   6   -2.40   29.90
 -39  -3   6    9.20   27.40
  39  -3  -6   46.20   28.60
 -39   3   6   44.30   26.80
 -37  -3   6   67.79   30.50
  37  -3  -6  137.09   31.20
 -37   3   6   74.29   32.30
 -35  -3   6  -17.80   19.00
  35  -3  -6   41.60   26.60
 -35   3   6  -23.30   21.70
 -33  -3   6   79.69   26.10
 -33  -3   6  115.09   31.20
  33  -3  -6  129.49   31.10
 -33   3   6   98.49   28.50
  31  -3  -6   82.49   26.80
 -31  -3   6   32.30   22.00
 -31  -3   6   71.89   27.30
 -31   3   6   64.39   29.30
 -29  -3   6  147.79   24.90
 -29  -3   6  148.09   30.20
  29  -3  -6  157.38   30.10
 -29   3   6  138.79   32.10
  27  -3  -6   86.89   26.30
 -27  -3   6   53.19   21.00
 -27  -3   6   69.89   25.00
 -27   3   6   82.99   25.20
 -25  -3   6   20.50   19.10
  25  -3  -6  -18.40   22.50
 -25  -3   6    6.90   23.50
 -25   3   6   21.80   23.30
  23  -3  -6  121.19   27.70
 -23  -3   6  114.59   25.90
 -23  -3   6  113.49   20.20
 -21  -3   6  182.28   26.30
  21  -3  -6  171.18   26.80
  19  -3  -6  129.69   24.00
 -19  -3   6  139.89   23.50
 -19   3   6  185.98   23.50
 -17  -3   6  605.54   38.50
  17  -3  -6  536.25   36.50
  15  -3  -6   12.70    3.80
  15  -3  -6   -4.60    9.70
 -15  -3   6   16.00    6.40
 -15  -3   6   -6.90   16.30
  13  -3  -6  124.39   14.80
  13  -3  -6  120.49   17.90
 -13  -3   6  137.59   11.70
 -13  -3   6  114.39   19.00
 -11  -3   6  300.77   17.90
  11  -3  -6  329.07   25.80
  11  -3  -6  277.27   20.30
 -11  -3   6  298.27   25.30
  -9  -3   6 3190.48  109.89
   9  -3  -6 3259.47  115.59
   9  -3  -6 3086.09  112.29
  -9  -3   6 3005.80  116.79
   7  -3  -6  566.14   31.60
   7  -3  -6  562.94   29.10
  -7  -3   6  576.84   29.10
  -7  -3   6  635.24   33.80
   5  -3  -6  246.48   21.40
  -5  -3   6  267.07   23.60
  -5  -3   6  273.17   21.70
  -3  -3   6  202.38   20.70
   3  -3  -6  194.08   19.20
   3  -3  -6  190.88   20.40
   1  -3  -6  272.97   21.50
   1  -3  -6  318.67   26.10
  -1  -3   6  311.97   25.90
  -1  -3  -6    1.70    9.70
  -1  -3  -6   -6.40   16.80
   1  -3   6    9.60   14.70
   3  -3   6   62.39   17.70
  -3  -3  -6   47.50   12.00
  -3  -3  -6   27.30   18.70
  -5  -3  -6  405.46   33.70
   5  -3   6  370.06   31.40
  -5  -3  -6  338.57   22.80
  -7  -3  -6  697.83   32.80
   7  -3   6  671.13   41.60
  -7  -3  -6  695.33   43.90
  -9  -3  -6    8.10   22.00
   9  -3   6   24.70   20.60
  -9  -3  -6   39.40   11.70
 -11  -3  -6   15.20    9.50
 -11  -3  -6   23.60   11.40
  11  -3   6   -7.80    5.10
 -13  -3  -6   70.89   13.60
 -13  -3  -6   80.89   15.00
 -13  -3  -6   11.60    6.60
  13  -3   6   -2.30    7.60
 -15  -3  -6  -11.80   12.20
  15  -3   6   17.10   24.70
 -17  -3  -6   60.79   29.20
  17  -3   6    1.60   27.10
  19  -3   6  133.99   33.80
 -19  -3  -6  102.69   31.90
 -21  -3  -6   15.00   26.20
  21  -3   6    2.00   25.90
 -23  -3  -6    6.40   27.60
  23  -3   6   41.70   30.30
  25  -3   6    0.40   29.00
 -25  -3  -6   11.40   27.90
 -27  -3  -6  178.58   38.30
  27  -3   6  265.47   43.60
  29  -3   6   -8.20   34.30
 -29  -3  -6   55.09   32.40
  31  -3   6    8.60   33.20
 -31  -3  -6  -14.60   29.10
 -33  -3  -6  173.08   39.10
  33  -3   6  212.08   45.20
  35  -3   6   12.30   39.70
 -35  -3  -6   57.79   32.90
 -42  -4   6    3.00   32.50
  42  -4  -6   28.20   33.10
 -40  -4   6  266.07   42.70
  40  -4  -6  316.07   44.90
 -38  -4   6   14.30   28.30
  38  -4  -6   66.29   32.50
 -36  -4   6   39.00   27.90
 -36  -4   6   14.60   32.10
  36  -4  -6   27.50   26.80
 -34  -4   6   77.59   27.50
  34  -4  -6   26.30   26.90
 -34  -4   6   45.70   32.40
  32  -4  -6   75.89   30.90
 -32  -4   6   73.19   23.50
 -32  -4   6   77.29   32.10
 -30  -4   6   91.49   24.80
  30  -4  -6   87.89   29.10
 -30  -4   6   69.09   27.90
 -28  -4   6  208.08   27.90
  28  -4  -6  223.88   34.60
 -28  -4   6  262.27   36.20
 -26  -4   6  120.79   22.30
 -26  -4   6  156.38   30.30
  26  -4  -6  126.39   29.10
 -24  -4   6   13.20   24.40
  24  -4  -6   -8.20   23.60
  22  -4  -6   83.09   27.50
 -22  -4   6   92.29   27.60
 -20  -4   6  501.55   41.50
 -18  -4   6   38.10   25.50
 -16  -4   6  381.36   35.60
  14  -4  -6  400.46   34.90
 -14  -4   6  384.56   35.20
  12  -4  -6 1254.97   56.59
 -12  -4   6 1395.36   59.99
  12  -4  -6  981.40   50.59
 -10  -4   6  276.17   21.20
  10  -4  -6  280.37   28.00
  10  -4  -6  308.27   26.50
 -10  -4   6  228.18   27.40
  -8  -4   6  110.09   22.20
   8  -4  -6  107.39   20.50
   8  -4  -6  102.89   19.00
  -8  -4   6  107.39   17.10
   6  -4  -6  142.19   20.30
  -6  -4   6  171.08   20.90
   6  -4  -6  153.58   21.60
  -4  -4   6  590.74   35.10
   4  -4  -6  559.94   32.80
   4  -4  -6  566.04   36.30
  -4  -4   6  522.85   34.20
   2  -4  -6  898.11   43.00
  -2  -4   6  886.51   46.10
  -2  -4   6  933.51   48.10
   2  -4  -6  942.81   47.70
   0  -4  -6  423.46   34.70
   0  -4   6  358.56   31.90
   0  -4  -6  406.36   27.60
   0  -4   6  398.76   32.20
  -2  -4  -6  578.34   40.60
   2  -4   6  590.14   38.00
   2  -4   6  556.54   38.70
  -2  -4  -6  591.64   32.50
  -4  -4  -6   38.40   23.80
   4  -4   6   50.29   22.30
  -4  -4  -6   44.40   14.40
  -6  -4  -6  394.76   26.30
  -6  -4  -6  397.06   38.50
   6  -4   6  375.26   37.20
  -8  -4  -6 2141.09   93.89
  -8  -4  -6 2103.59   79.59
   8  -4   6 2082.79   92.09
  10  -4   6   12.90   25.80
 -10  -4  -6   56.09   29.20
  12  -4   6  274.07   37.90
 -12  -4  -6  393.26   42.80
 -14  -4  -6   25.60   30.20
  14  -4   6   43.50   28.90
  16  -4   6  957.30   61.99
 -16  -4  -6  939.21   61.99
 -18  -4  -6   66.19   30.70
  18  -4   6   54.79   29.60
 -20  -4  -6  -25.50   27.20
  20  -4   6  -32.40   28.60
 -22  -4  -6   53.79   33.30
  22  -4   6   32.70   31.20
  24  -4   6  462.15   54.69
 -24  -4  -6  429.26   50.39
 -26  -4  -6   93.39   36.60
  26  -4   6  159.88   40.10
 -28  -4  -6  439.96   55.49
  28  -4   6  557.24   60.39
  30  -4   6   33.00   38.80
 -30  -4  -6   27.30   34.00
 -32  -4  -6   71.29   39.00
  32  -4   6   16.60   37.80
 -34  -4  -6   79.99   41.80
 -39  -5   6   16.60   33.40
 -37  -5   6   37.50   37.00
  37  -5  -6   38.70   31.30
 -37  -5   6    9.00   25.70
 -35  -5   6  103.89   37.00
  35  -5  -6   73.89   32.50
 -35  -5   6   66.79   28.40
 -33  -5   6   61.49   33.90
  33  -5  -6   48.90   29.90
 -33  -5   6  -10.30   21.10
  31  -5  -6   48.50   29.70
 -31  -5   6   30.30   30.10
 -31  -5   6   29.20   22.00
  29  -5  -6  -21.20   25.10
 -29  -5   6    5.10   19.70
 -29  -5   6    8.30   28.60
  27  -5  -6   86.39   30.60
 -27  -5   6  105.39   31.70
  25  -5  -6   71.39   27.60
 -25  -5   6   43.40   28.10
  23  -5  -6   55.99   25.20
 -23  -5   6   15.90   26.20
  21  -5  -6   51.99   24.50
 -21  -5   6   69.59   28.10
 -19  -5   6  108.59   32.20
  19  -5  -6   87.59   26.70
  17  -5  -6    9.40   22.30
 -17  -5   6  -13.70   25.50
 -15  -5   6   66.09   27.60
  15  -5  -6   44.40   23.10
 -13  -5   6   38.40   26.30
  13  -5  -6   44.80   23.50
  11  -5  -6  121.69   25.70
  11  -5  -6   62.59   23.90
 -11  -5   6   66.79   22.10
  -9  -5   6  -12.80    7.60
   9  -5  -6   30.50   21.30
   9  -5  -6   11.50   22.20
   7  -5  -6   67.99   21.20
   7  -5  -6   95.49   25.40
  -7  -5   6  130.49   21.60
   5  -5  -6  348.77   31.70
  -5  -5   6  443.46   34.50
  -5  -5   6  295.47   32.20
   5  -5  -6  360.56   34.80
  -3  -5   6  238.38   31.40
   3  -5  -6  332.87   34.00
  -3  -5   6  266.87   29.50
   3  -5  -6  318.57   29.70
  -1  -5   6  -27.50   20.50
   1  -5  -6   36.40   18.70
   1  -5  -6  -18.70   23.20
  -1  -5   6   23.70   22.50
  -1  -5  -6  138.19   30.00
  -1  -5  -6  186.68   22.80
   1  -5   6  174.28   27.70
   1  -5   6  106.09   28.10
   3  -5   6   56.99   22.80
  -3  -5  -6   66.69   19.60
  -3  -5  -6   57.09   30.10
   3  -5   6   48.70   25.10
  -5  -5  -6   10.90   28.20
   5  -5   6   39.50   23.00
   5  -5   6   36.90   26.00
  -5  -5  -6   31.50   16.60
  -7  -5  -6  770.22   55.49
   7  -5   6  749.03   52.89
   7  -5   6  788.32   48.40
  -9  -5  -6  143.09   35.40
   9  -5   6  174.38   34.50
 -11  -5  -6  179.08   37.70
  11  -5   6  209.08   36.80
 -13  -5  -6   59.29   32.50
  13  -5   6  140.69   34.80
 -15  -5  -6  477.45   50.19
  15  -5   6  467.35   49.20
 -17  -5  -6  111.29   35.60
  17  -5   6  148.49   37.10
 -19  -5  -6    9.10   32.10
  19  -5   6  -10.60   30.10
 -21  -5  -6   14.60   32.50
  21  -5   6   26.00   32.20
  23  -5   6  195.48   44.70
 -23  -5  -6  149.79   42.60
 -25  -5  -6   42.50   35.40
  25  -5   6   -9.60   34.20
 -27  -5  -6   88.39   38.90
  27  -5   6   38.30   38.60
  29  -5   6   37.60   39.70
 -29  -5  -6  -16.60   36.80
 -31  -5  -6   50.89   43.10
 -36  -6   6   55.39   40.90
 -36  -6   6   26.00   26.40
 -34  -6   6   53.19   38.70
 -34  -6   6   20.30   24.20
 -32  -6   6   37.00   34.10
  32  -6  -6   92.89   35.30
 -32  -6   6   13.90   23.20
 -30  -6   6  259.17   43.00
  30  -6  -6  197.98   37.60
 -30  -6   6  251.37   34.10
  28  -6  -6   45.10   31.40
 -28  -6   6   28.60   33.00
  26  -6  -6   83.59   29.70
 -26  -6   6   98.99   34.20
  24  -6  -6   79.69   28.50
 -24  -6   6   46.90   31.30
 -22  -6   6  368.86   44.80
  20  -6  -6   23.90   25.10
 -20  -6   6   85.99   30.90
  18  -6  -6  314.07   36.30
 -18  -6   6  314.77   41.50
  16  -6  -6   79.19   25.20
 -16  -6   6   40.80   29.70
 -14  -6   6  445.96   44.60
  14  -6  -6  465.65   39.60
  12  -6  -6   66.99   24.60
 -12  -6   6  114.09   31.20
  10  -6  -6  432.66   38.50
 -10  -6   6  420.16   41.30
  10  -6  -6  338.47   36.10
  -8  -6   6  121.09   30.00
   8  -6  -6  184.68   28.50
   8  -6  -6  188.58   30.20
   6  -6  -6   96.19   24.00
  -6  -6   6   68.09   28.90
   6  -6  -6   89.19   29.70
   4  -6  -6  103.89   23.90
  -4  -6   6  133.69   29.30
   4  -6  -6   59.99   29.40
  -2  -6   6  984.20   58.89
   2  -6  -6 1017.40   52.59
   2  -6  -6 1046.30   59.29
   0  -6  -6   11.40   30.00
   0  -6  -6   33.80   19.80
   0  -6   6   12.60   23.40
   0  -6   6   -9.50   23.90
   2  -6   6   86.49   28.50
   2  -6   6   64.29   26.30
  -2  -6  -6   77.89   31.30
   4  -6   6   22.90   23.50
  -4  -6  -6    6.40   28.90
   4  -6   6   49.20   26.50
  -6  -6  -6  413.66   46.60
   6  -6   6  378.86   42.80
   6  -6   6  402.26   39.30
   8  -6   6   15.60   23.30
   8  -6   6   -5.50   27.30
  -8  -6  -6   31.30   31.70
  10  -6   6   80.99   26.60
  10  -6   6   49.99   33.90
 -10  -6  -6   44.20   33.10
 -12  -6  -6  412.06   48.50
  12  -6   6  353.86   39.70
  12  -6   6  284.87   42.20
  14  -6   6   82.89   33.90
  14  -6   6  173.68   30.60
 -14  -6  -6   79.19   35.70
  16  -6   6   70.59   28.70
 -16  -6  -6   40.10   35.60
  16  -6   6   34.00   33.80
 -18  -6  -6  164.78   41.20
  18  -6   6  128.99   39.10
 -20  -6  -6    5.60   34.40
  20  -6   6   24.00   37.90
  22  -6   6   47.30   36.80
 -22  -6  -6   25.70   35.80
  24  -6   6   -4.10   37.20
 -24  -6  -6   11.20   36.80
 -26  -6  -6  110.49   43.30
 -28  -6  -6   67.09   42.30
 -31  -7   6   94.79   43.50
 -29  -7   6   39.30   36.30
 -27  -7   6   45.40   37.40
  27  -7  -6   77.49   32.20
  25  -7  -6   64.79   30.10
 -25  -7   6   36.40   36.10
 -23  -7   6   91.29   36.20
  23  -7  -6  171.88   35.20
 -21  -7   6   27.10   34.20
  21  -7  -6   21.50   25.90
  19  -7  -6    9.90   24.90
 -19  -7   6  -18.00   30.90
 -17  -7   6  -21.20   32.10
  17  -7  -6    5.00   23.30
 -15  -7   6  226.48   40.80
  15  -7  -6  136.09   28.50
  13  -7  -6   33.20   23.50
 -13  -7   6   44.60   30.60
 -11  -7   6   49.50   30.50
  11  -7  -6   35.30   26.00
  -9  -7   6  352.16   43.90
   7  -7  -6  -40.10   28.40
  -7  -7   6  -33.10   26.30
   7  -7  -6   30.30   21.20
  -5  -7   6    6.70   27.60
   5  -7  -6   45.40   24.10
   3  -7  -6   70.49   33.10
  -3  -7   6   46.90   28.80
   1  -7  -6   73.09   32.70
  -1  -7   6   79.69   29.90
   1  -7   6   32.40   29.00
   1  -7   6   12.10   26.30
  -1  -7  -6   59.39   32.90
   3  -7   6   63.69   31.00
   3  -7   6  -25.80   27.20
  -3  -7  -6   14.70   31.80
   5  -7   6  113.29   33.90
   5  -7   6  105.29   32.40
  -5  -7  -6  197.68   40.20
  -7  -7  -6  103.99   37.70
   7  -7   6  147.79   36.70
   7  -7   6   68.69   31.50
   9  -7   6  -21.80   23.90
   9  -7   6    5.10   29.50
  -9  -7  -6   18.10   34.80
 -11  -7  -6   85.89   38.00
  11  -7   6   69.79   30.70
  11  -7   6   99.09   34.90
  13  -7   6   -4.40   31.00
  13  -7   6   30.20   29.00
 -13  -7  -6   15.70   35.70
 -15  -7  -6   32.70   37.80
  15  -7   6   47.50   36.30
  15  -7   6    0.30   25.10
 -17  -7  -6   41.30   39.10
  17  -7   6   36.10   37.60
  19  -7   6   24.90   39.50
 -19  -7  -6   32.20   39.20
 -21  -7  -6    7.00   39.80
 -23  -7  -6   -9.80   38.10
 -26  -8   6  -28.20   37.60
 -24  -8   6  -20.40   35.80
 -22  -8   6   10.70   36.90
  22  -8  -6   41.80   28.40
 -20  -8   6  -14.30   35.50
  20  -8  -6   78.79   29.40
 -18  -8   6   -9.80   35.30
  18  -8  -6   94.59   29.00
 -16  -8   6    2.80   36.00
  16  -8  -6   33.60   25.70
 -14  -8   6   43.40   38.90
  14  -8  -6   19.90   23.90
  12  -8  -6   51.29   24.80
 -12  -8   6  -16.10   34.50
 -10  -8   6  -26.00   32.20
  10  -8  -6   54.59   24.30
  -8  -8   6   22.40   33.70
  -6  -8   6  -29.00   30.70
   4  -8  -6   54.29   36.40
  -4  -8   6   30.00   33.50
   2  -8  -6    8.90   36.00
  -2  -8   6    0.20   31.90
   0  -8   6   35.90   33.80
  -2  -8  -6   34.80   38.40
   2  -8   6  -28.70   31.40
   4  -8   6   41.40   30.90
  -4  -8  -6   77.09   39.50
   6  -8   6  -11.00   31.50
  -6  -8  -6   64.29   41.10
  -8  -8  -6   37.30   39.80
   8  -8   6   -1.50   28.80
   8  -8   6   94.49   36.40
  10  -8   6   29.60   33.30
 -10  -8  -6   20.70   39.70
  10  -8   6   32.80   35.30
 -12  -8  -6   37.50   44.30
  12  -8   6   39.00   34.80
  12  -8   6  -18.10   31.00
 -14  -8  -6   -4.10   41.60
  14  -8   6   58.89   36.70
 -16  -8  -6   50.39   44.60
 -15  -9   6    5.10   39.10
  15  -9  -6   83.39   29.90
 -13  -9   6   43.50   45.10
 -11  -9   6  -35.80   41.40
  -9  -9   6  -37.80   39.00
  -7  -9   6    5.30   39.00
  -5  -9   6    9.40   37.70
  -3  -9   6  -96.39   37.30
   1  -9  -6  -24.40   39.10
  -1  -9   6   -7.80   37.80
  -1  -9  -6   -1.20   40.10
   1  -9   6   54.19   42.90
   3  -9   6   21.30   34.80
  -3  -9  -6   12.70   40.60
   5  -9   6   29.30   36.70
  -5  -9  -6    7.90   41.70
  -7  -9  -6   84.39   48.90
   7  -9   6   76.79   37.50
 -46   0   7   46.70   32.90
 -44   0   7   -1.00   28.80
 -42   0   7   -8.70   25.70
 -40   0   7  -29.80   21.90
 -38   0   7    9.30   20.80
 -36   0   7  -44.70   20.80
 -34   0   7   -0.30   20.30
 -32   0   7    9.40   20.70
 -30   0   7  -18.50   19.90
  30   0  -7   31.20   15.70
 -28   0   7    2.20   16.90
  28   0  -7  -13.80   13.70
  26   0  -7   -1.80   13.10
 -26   0   7   -7.80   15.50
 -24   0   7   -7.30    9.10
  24   0  -7   -0.60   12.20
 -22   0   7   -3.80    9.70
 -22   0   7   -4.70    3.00
  22   0  -7   -9.30   10.10
 -20   0   7  -14.20    8.90
 -20   0   7   -7.20    8.30
  20   0  -7   -9.20    9.00
  18   0  -7    0.80    4.10
 -18   0   7   13.20   12.30
 -18   0   7   17.50    8.30
  16   0  -7   11.80    6.20
 -16   0   7   -4.40   10.70
 -14   0   7   10.50    9.50
  14   0  -7    8.30    8.00
  12   0  -7    2.10    7.70
 -12   0   7   -4.40    8.60
  10   0  -7   -0.20    6.60
 -10   0   7    1.20    7.60
   8   0  -7   -7.80    6.40
  -8   0   7   -0.90    6.40
  -6   0   7    2.30    5.90
   6   0  -7   17.90    7.90
   4   0  -7   -0.50    6.40
   2   0  -7   -3.90    6.70
   2   0  -7    0.90    1.60
   0   0  -7    0.60    7.90
   0   0  -7   -1.80    7.50
  -2   0  -7   -2.50    4.40
  -2   0  -7    6.30    8.50
  -4   0  -7   -0.10    8.70
  -4   0  -7    2.80    9.40
   6   0   7   -1.20   10.50
  -6   0  -7    2.70    2.50
  -8   0  -7   -4.90   11.10
   8   0   7   -0.10   10.80
  10   0   7    4.10   12.20
 -10   0  -7   11.90   13.10
 -12   0  -7   -3.60    8.20
  12   0   7  -17.40   13.30
 -12   0  -7   -9.60   13.30
  14   0   7   28.00   17.90
 -14   0  -7    5.00    4.80
 -14   0  -7   -1.80   16.90
  16   0   7   22.60   18.30
 -16   0  -7    1.30   12.90
 -16   0  -7   27.30   19.80
 -18   0  -7  -16.90   18.10
  18   0   7   28.80   21.70
  20   0   7   -1.80   20.70
 -20   0  -7    9.30   20.00
  22   0   7   -8.60   21.80
 -22   0  -7    1.70   19.70
 -24   0  -7   59.89   23.40
  24   0   7   20.90   22.50
 -26   0  -7   15.10   21.60
  26   0   7    2.40   25.00
 -28   0  -7    6.80   24.60
 -30   0  -7    7.30   24.00
 -32   0  -7   12.20   27.80
 -34   0  -7   -3.10   27.40
 -45  -1   7   13.20   29.50
 -45   1   7  -10.80   27.80
 -43  -1   7   24.20   25.90
 -43   1   7   37.80   30.50
 -41  -1   7  378.46   43.90
 -41   1   7  390.96   46.00
 -39  -1   7  152.78   33.30
 -39   1   7  120.69   28.80
 -37  -1   7   69.99   27.80
 -37   1   7   99.99   30.10
 -35  -1   7  489.05   45.00
 -35   1   7  414.96   41.60
 -33  -1   7   16.90   18.60
  33  -1  -7   31.80   19.90
 -33   1   7    4.00   22.00
 -31  -1   7   26.70   21.70
  31  -1  -7   30.90   20.20
 -31   1   7   55.89   24.60
  29  -1  -7  836.12   48.00
 -29  -1   7  933.01   51.59
 -29   1   7  910.21   51.59
 -27  -1   7  151.18   24.50
 -27  -1   7  216.78   25.00
  27  -1  -7  169.08   24.90
 -27   1   7  168.78   24.20
  25  -1  -7  206.28   24.30
 -25  -1   7  212.28   25.60
 -25  -1   7  225.78   23.90
 -23  -1   7   57.09   16.40
  23  -1  -7   63.99   17.00
 -23  -1   7   87.79   16.70
  23   1  -7   33.70    9.20
  21  -1  -7 2576.44   97.39
 -21  -1   7 2648.54   96.39
 -21  -1   7 2468.75   97.09
 -21   1   7 2558.44   99.39
  21   1  -7 2696.23   92.59
 -19  -1   7   29.50   12.20
  19  -1  -7   44.50   14.40
 -19   1   7   18.50   12.90
  19   1  -7   25.50    8.10
  17  -1  -7   78.39   14.70
 -17  -1   7   66.79   13.50
 -17  -1   7   77.09   13.80
  17   1  -7   72.19    9.90
 -17   1   7   54.59   15.20
 -15  -1   7  314.97   19.60
  15  -1  -7  303.57   20.70
 -15  -1   7  263.47   19.20
  15   1  -7  323.17   16.40
 -15   1   7  248.98   20.70
  13  -1  -7  720.93   32.70
 -13  -1   7  690.23   32.30
 -13  -1   7  664.93   30.20
  13   1  -7  711.63   29.00
 -13   1   7  712.53   33.80
 -11  -1   7 1074.59   43.90
 -11   1   7 1178.78   45.60
  11   1  -7 1100.49   42.40
  -9   1   7   86.79   11.50
   9   1  -7   74.19    9.60
   7  -1  -7  737.43   29.80
   7   1  -7  767.62   31.60
  -7   1   7  731.43   30.20
   5  -1  -7  216.58   14.50
  -5   1   7  233.88   13.20
   5   1  -7  245.38   15.40
   3  -1  -7  293.27   19.20
   3  -1  -7  309.77   19.10
   3   1  -7  320.87   18.60
  -1  -1   7  555.84   27.40
   1  -1  -7  564.94   27.00
   1  -1  -7  541.25   28.10
   1  -1   7   38.00   11.30
  -1  -1  -7   50.79   10.70
  -3  -1  -7  468.25   27.60
  -3  -1  -7  412.36   23.40
  -5  -1  -7   87.69   17.10
  -5  -1  -7   74.19   13.00
   5  -1   7   36.70   13.20
  -7  -1  -7 1122.79   55.89
   7  -1   7 1370.16   56.39
  -7  -1  -7 1426.66   53.59
  -9  -1  -7  186.48   12.90
   9  -1   7  238.98   23.90
   9   1   7  202.08   20.20
 -11  -1  -7    0.90    7.80
 -11  -1  -7   18.20   16.30
  11  -1   7   44.10   17.10
 -11   1  -7    3.00   12.60
  11   1   7    7.70   12.30
  13  -1   7   24.20   18.30
 -13  -1  -7   52.49   11.20
 -13  -1  -7   51.09   19.80
  13   1   7   57.09   15.70
 -13   1  -7   32.70   16.20
 -15  -1  -7  646.94   42.80
  15  -1   7  591.04   40.60
  15   1   7  587.84   35.20
 -15   1  -7  579.34   40.10
 -17  -1  -7  423.06   39.70
  17  -1   7  412.76   38.70
 -17   1  -7  417.46   36.10
  17   1   7  375.76   31.40
  19  -1   7  100.69   26.50
 -19  -1  -7  109.29   26.40
  19   1   7  100.49   22.80
 -19   1  -7  101.79   24.30
 -21  -1  -7   79.79   25.80
  21  -1   7  115.29   28.80
 -21   1  -7   81.89   25.20
  21   1   7   48.10   23.50
  23  -1   7   79.69   29.30
 -23  -1  -7   95.69   26.30
 -23   1  -7  108.49   26.20
 -25  -1  -7   64.29   26.60
  25  -1   7   30.70   28.40
 -25   1  -7   61.19   25.10
 -27  -1  -7  241.98   36.70
  27  -1   7  201.28   38.00
 -27   1  -7  197.98   33.50
 -29  -1  -7   62.09   28.20
  29  -1   7    0.90   27.60
 -31  -1  -7   46.90   28.00
 -33  -1  -7   76.69   31.40
 -35  -1  -7  397.16   49.70
 -44  -2   7   75.79   35.00
 -44   2   7   73.29   34.70
 -42  -2   7  -16.80   27.70
 -42   2   7   23.80   30.10
 -40  -2   7   32.20   28.20
 -40   2   7  -47.10   25.20
 -38  -2   7   -6.50   24.50
  38  -2  -7   33.40   23.00
 -38   2   7    9.80   27.10
 -36  -2   7   25.20   25.50
  36  -2  -7   17.20   23.00
 -36   2   7   10.60   21.70
 -34  -2   7   77.19   27.70
  34  -2  -7   55.59   22.90
 -34   2   7    9.70   25.80
  32  -2  -7  269.97   32.70
 -32  -2   7  213.18   32.30
 -32   2   7  234.88   32.80
 -30  -2   7    5.10   17.50
 -30  -2   7   -3.00   21.00
  30  -2  -7   24.70   22.70
 -30   2   7   56.59   22.00
 -28  -2   7   17.80   21.30
  28  -2  -7   62.99   23.90
 -28  -2   7   38.00   21.20
 -28   2   7   37.50   21.10
  26  -2  -7  298.07   32.70
 -26  -2   7  297.37   30.80
 -26  -2   7  293.77   30.30
  24  -2  -7   29.10   19.30
 -24  -2   7   13.60   18.60
 -24  -2   7   -9.60   13.40
 -22  -2   7   16.50   17.10
 -22  -2   7   18.20   14.60
  22  -2  -7    3.70   17.10
 -22   2   7    5.10   13.70
  20  -2  -7   37.90   16.20
 -20  -2   7   24.00   15.70
 -20  -2   7   32.30   12.60
  20   2  -7   33.30    7.20
 -20   2   7   28.20   15.20
  18  -2  -7  601.64   34.50
 -18  -2   7  553.54   32.20
  18   2  -7  595.74   24.40
 -18   2   7  630.64   36.40
  16  -2  -7  197.68   21.50
 -16  -2   7  152.98   17.60
 -16   2   7  138.19   18.10
  16   2  -7  147.29   10.60
  14  -2  -7  294.37   24.70
 -14  -2   7  228.88   20.10
 -14   2   7  255.97   21.90
  14   2  -7  218.98   13.50
  12  -2  -7   65.49   13.70
 -12  -2   7   75.89   13.60
  12   2  -7   59.19    8.70
 -12   2   7   69.89   13.50
  10  -2  -7    3.00    3.70
 -10  -2   7    1.90   10.80
  10   2  -7    5.80    7.10
 -10   2   7    8.20    9.00
   8  -2  -7   25.60    9.50
  -8  -2   7   24.50   10.90
  -8  -2   7   38.30    9.00
   8  -2  -7   35.30   11.60
  -8   2   7   18.50    8.70
  -6  -2   7  180.88   15.30
   6  -2  -7  223.88   18.80
   6  -2  -7  198.08   16.70
  -4  -2   7  309.47   20.20
   4  -2  -7  333.37   21.20
   4  -2  -7  325.07   22.20
   2  -2  -7  235.78   17.70
  -2  -2   7  232.58   19.40
   0  -2   7   34.00   12.40
   0  -2  -7   32.80   14.00
   0  -2  -7   24.60   11.00
   2  -2   7  767.62   37.50
  -2  -2  -7  763.32   34.20
  -2  -2  -7  727.53   39.60
  -4  -2  -7   66.59   16.70
  -4  -2  -7   48.60   12.20
   4  -2   7   78.39   16.60
  -6  -2  -7  263.87   19.30
   6  -2   7  193.28   23.20
  -6  -2  -7  247.28   26.10
  -8  -2  -7   38.90   19.40
  -8  -2  -7   36.80    7.10
  -8  -2  -7   36.20   11.50
 -10  -2  -7   16.60   11.10
 -10  -2  -7   -2.90    6.90
 -10  -2  -7    6.60    7.40
  10  -2   7   29.00   18.50
  12  -2   7  114.89   23.90
  12   2   7  104.39   17.00
 -14  -2  -7   17.40    9.10
  14  -2   7   37.50   22.70
  14   2   7    9.20   14.20
  16  -2   7    8.30   23.80
 -16  -2  -7   10.30   22.80
  16   2   7   26.80   15.80
  18  -2   7  157.68   31.80
 -18  -2  -7  136.79   29.60
  18   2   7  134.99   22.20
  20  -2   7  -11.60   25.30
 -20  -2  -7   31.60   24.70
  22  -2   7   20.00   26.20
 -22  -2  -7   38.80   25.50
 -24  -2  -7  117.69   30.00
  26  -2   7   46.10   31.30
 -26  -2  -7   43.90   27.20
  28  -2   7   -9.80   30.50
 -28  -2  -7   42.60   29.70
  30  -2   7  -36.70   30.70
 -30  -2  -7    4.00   26.80
 -32  -2  -7   82.39   33.60
  32  -2   7  -20.50   30.50
 -34  -2  -7   27.70   30.90
 -36  -2  -7   34.00   30.00
 -43  -3   7   31.80   32.70
 -43   3   7  -10.60   31.60
  41  -3  -7  156.08   35.30
 -41  -3   7   67.09   32.50
 -41   3   7   86.19   35.50
 -39  -3   7   94.09   32.80
  39  -3  -7  133.29   31.50
 -39   3   7   73.69   30.60
 -37  -3   7  -27.30   24.40
  37  -3  -7   40.10   25.10
 -37   3   7  -24.30   26.70
  35  -3  -7   74.09   27.00
 -35  -3   7   22.50   26.00
 -35   3   7   63.09   27.70
 -33  -3   7  180.58   34.10
  33  -3  -7  145.99   31.70
 -33  -3   7  147.29   28.30
 -33   3   7  183.48   33.60
 -31  -3   7  353.26   37.30
 -31  -3   7  409.06   40.70
  31  -3  -7  405.66   41.10
 -31   3   7  393.96   44.20
  29  -3  -7  636.04   45.10
 -29  -3   7  589.54   41.30
 -29  -3   7  581.94   45.60
 -29   3   7  594.34   51.49
 -27  -3   7  -14.20   17.20
  27  -3  -7   -6.90   22.70
 -27  -3   7   -7.10   22.80
 -27   3   7   13.30   20.70
  25  -3  -7   23.30   23.20
 -25  -3   7    8.20   17.50
 -25  -3   7   59.69   24.00
 -25   3   7   30.50   24.00
 -23  -3   7   93.69   20.90
 -23  -3   7  101.09   23.00
  23  -3  -7  123.29   26.50
 -23   3   7    3.80   16.90
 -21  -3   7  794.02   45.20
  21  -3  -7  792.12   47.20
 -21   3   7  831.52   46.80
  19  -3  -7  278.27   29.70
 -19  -3   7  219.88   28.40
 -19   3   7  232.88   27.40
  17  -3  -7  168.38   22.20
 -17  -3   7  163.48   23.70
 -17   3   7  173.48   23.30
 -15  -3   7   19.10    8.40
 -15  -3   7   59.69   18.30
  15  -3  -7   20.90   11.20
  15  -3  -7   11.30    3.20
 -13  -3   7 1866.11   69.79
  13  -3  -7 2019.60   78.79
  13  -3  -7 1974.60   71.69
 -13  -3   7 1970.10   78.99
 -11  -3   7 1629.84   59.19
 -11  -3   7 1486.65   65.49
  11  -3  -7 1569.64   65.29
  11  -3  -7 1585.84   60.29
  -9  -3   7  132.29   14.90
   9  -3  -7  137.09   16.10
   9  -3  -7  152.38   19.60
  -9  -3   7   99.29   17.50
  -7  -3   7  194.68   21.60
  -7  -3   7  209.78   19.20
   7  -3  -7  143.09   15.70
   7  -3  -7  200.78   20.60
   5  -3  -7  107.49   16.70
  -5  -3   7   95.59   15.60
  -5  -3   7   78.09   16.50
   5  -3  -7   34.20   12.90
  -3  -3   7 1036.80   46.40
   3  -3  -7 1028.20   48.10
   3  -3  -7 1033.70   45.10
   1  -3  -7  832.12   43.60
  -1  -3   7  949.31   43.20
   1  -3  -7  867.11   40.50
  -1  -3  -7   23.80   17.50
  -1  -3  -7   17.90   11.20
   1  -3   7   21.10   16.20
   3  -3   7  569.04   36.10
  -3  -3  -7  570.94   37.90
  -3  -3  -7  572.04   30.20
  -5  -3  -7  653.33   32.60
  -5  -3  -7  647.94   42.70
   5  -3   7  671.23   40.50
  -7  -3  -7 1161.48   60.09
  -7  -3  -7 1170.08   49.00
   7  -3   7 1140.09   57.49
  -9  -3  -7   48.00   25.10
  -9  -3  -7   34.80   13.60
   9  -3   7   22.50   14.30
 -11  -3  -7   20.10   10.10
 -11  -3  -7   36.10   13.20
  13  -3   7  -11.40    7.60
 -13  -3  -7  -11.40   12.20
 -13  -3  -7    7.70    6.80
 -15  -3  -7  170.68   33.40
  15  -3   7  208.78   34.60
  17  -3   7   44.00   29.00
 -17  -3  -7   70.59   28.50
 -19  -3  -7   34.20   27.00
  19  -3   7  -30.70   24.50
 -21  -3  -7  180.68   35.00
  21  -3   7  163.68   37.20
 -23  -3  -7   23.30   27.60
  23  -3   7   -3.60   27.80
  25  -3   7  241.78   42.40
 -25  -3  -7  270.07   41.20
 -27  -3  -7   60.99   34.80
  27  -3   7   26.40   32.00
 -29  -3  -7   87.19   34.10
  29  -3   7   40.50   34.50
 -31  -3  -7   26.20   30.40
  31  -3   7  -46.10   33.30
 -33  -3  -7   90.39   35.80
  33  -3   7   45.30   39.70
  42  -4  -7   71.29   35.40
 -42  -4   7   25.10   34.80
  40  -4  -7   -6.40   27.50
 -40  -4   7   -7.50   29.80
  38  -4  -7   53.79   29.70
 -38  -4   7   -0.30   26.80
 -36  -4   7   26.10   26.50
  36  -4  -7   80.49   28.90
 -34  -4   7   40.60   31.30
 -34  -4   7   56.49   25.60
  34  -4  -7   78.79   29.60
 -32  -4   7   41.80   26.30
  32  -4  -7   37.20   26.50
 -32  -4   7   -5.10   20.90
 -30  -4   7  -16.00   25.90
  30  -4  -7   28.20   24.90
 -30  -4   7   -8.80   18.90
 -28  -4   7   11.30   19.10
  28  -4  -7   10.50   23.90
 -28  -4   7    6.60   24.60
  26  -4  -7   30.40   23.10
 -26  -4   7    4.90   18.00
 -26  -4   7   18.10   22.80
  24  -4  -7   57.09   24.90
 -24  -4   7   50.89   25.40
  22  -4  -7   78.09   27.00
 -22  -4   7   91.09   26.50
 -20  -4   7   22.30   24.50
  20  -4  -7  -23.50   13.90
 -18  -4   7  266.27   31.90
 -14  -4   7   52.79   21.80
  14  -4  -7   45.70   20.90
  12  -4  -7   42.10   19.20
  12  -4  -7   25.10   15.20
 -12  -4   7    8.40   19.70
 -12  -4   7   21.00   13.90
 -10  -4   7 1007.50   51.39
  10  -4  -7  908.71   47.90
 -10  -4   7  980.40   43.10
  10  -4  -7  965.30   46.00
   8  -4  -7  185.08   22.20
  -8  -4   7  146.69   23.60
  -8  -4   7  141.39   19.40
   8  -4  -7  153.38   22.20
   6  -4  -7  135.09   21.20
  -6  -4   7   48.20   15.00
   6  -4  -7  133.79   22.40
  -6  -4   7  134.19   20.10
   4  -4  -7   52.49   19.70
   4  -4  -7   63.59   17.30
  -4  -4   7   59.69   18.40
   2  -4  -7   -5.40   19.40
  -2  -4   7   16.60   18.60
  -2  -4   7    1.70   17.20
   2  -4  -7    4.60   15.80
   0  -4  -7  442.06   36.70
   0  -4   7  413.36   35.70
   0  -4   7  441.96   34.40
   0  -4  -7  445.36   30.30
   2  -4   7   13.90   21.60
  -2  -4  -7   10.10   15.20
  -2  -4  -7   -7.70   21.90
  -4  -4  -7   73.19   27.00
  -4  -4  -7   69.39   16.30
   4  -4   7   31.00   22.60
   6  -4   7  125.09   27.80
  -6  -4  -7  104.79   29.40
  -6  -4  -7   95.49   17.60
   8  -4   7  206.98   32.20
  -8  -4  -7  160.78   19.70
  -8  -4  -7  169.08   32.40
 -10  -4  -7  121.59   32.90
  10  -4   7  141.29   32.20
  12  -4   7   11.80   29.00
 -12  -4  -7   -8.20   29.70
  14  -4   7   19.60   27.90
 -14  -4  -7   39.50   30.30
 -16  -4  -7  190.08   35.40
  16  -4   7  139.79   34.90
 -18  -4  -7  370.36   44.60
  18  -4   7  358.26   46.10
  20  -4   7   31.80   31.90
 -20  -4  -7   29.00   30.00
  22  -4   7  286.27   44.80
 -22  -4  -7  250.77   42.30
  24  -4   7    2.70   35.10
 -24  -4  -7   13.60   30.90
  26  -4   7    8.00   36.70
 -26  -4  -7  -15.50   33.00
 -28  -4  -7   -0.50   34.00
  28  -4   7  -30.20   34.30
  30  -4   7  -25.60   35.40
 -30  -4  -7   38.40   36.70
 -32  -4  -7   58.79   39.80
 -39  -5   7   21.10   30.10
 -37  -5   7   79.39   36.40
  37  -5  -7  114.79   34.90
 -37  -5   7   11.00   23.00
 -35  -5   7    4.30   33.80
  35  -5  -7   48.80   31.40
 -35  -5   7  -28.80   19.00
  33  -5  -7   61.09   30.70
 -33  -5   7   12.90   21.70
 -33  -5   7   13.60   32.20
  31  -5  -7   94.29   30.90
 -31  -5   7   15.10   22.20
 -31  -5   7   32.10   29.60
  29  -5  -7   99.39   31.60
 -29  -5   7   73.19   30.90
 -29  -5   7   93.39   23.10
  27  -5  -7   13.30   25.70
 -27  -5   7   13.20   26.00
 -25  -5   7   -5.90   27.10
  25  -5  -7   30.50   24.80
 -23  -5   7   44.00   26.30
  23  -5  -7    6.70   22.70
  21  -5  -7  231.28   33.40
 -21  -5   7  202.88   33.80
  19  -5  -7    2.60   22.60
 -19  -5   7    5.60   28.50
  17  -5  -7   18.50   22.30
 -17  -5   7   66.19   27.60
 -15  -5   7  120.49   29.50
  15  -5  -7  140.69   27.40
  13  -5  -7   58.59   24.10
 -13  -5   7   90.59   27.30
  11  -5  -7  291.47   30.30
 -11  -5   7  281.97   34.80
  11  -5  -7  194.78   28.80
   9  -5  -7  207.38   28.10
   9  -5  -7  236.48   29.30
   7  -5  -7   82.19   22.40
   7  -5  -7   83.49   24.70
  -7  -5   7   66.79   21.20
   5  -5  -7  232.58   31.20
  -5  -5   7  215.68   26.70
  -5  -5   7  126.39   22.90
   5  -5  -7  247.78   28.40
   3  -5  -7  677.23   41.20
  -3  -5   7  584.34   44.50
  -3  -5   7  658.13   43.50
   3  -5  -7  689.03   47.60
  -1  -5   7  288.17   32.60
   1  -5  -7  285.37   34.70
  -1  -5   7  211.18   31.20
   1  -5  -7  262.77   27.40
   1  -5   7   44.70   23.70
  -1  -5  -7   31.20   18.90
   1  -5   7   14.60   23.50
  -1  -5  -7   29.50   27.50
   3  -5   7   14.10   24.80
  -3  -5  -7   49.50   18.70
   3  -5   7   13.20   22.10
  -3  -5  -7   45.50   30.90
   5  -5   7  118.69   30.70
  -5  -5  -7  137.49   34.20
   5  -5   7  139.89   27.90
  -5  -5  -7  158.98   22.30
  -7  -5  -7  401.26   45.00
   7  -5   7  315.67   40.40
   9  -5   7  127.49   32.50
  -9  -5  -7  113.39   36.00
 -11  -5  -7  227.48   38.50
  11  -5   7  128.79   36.10
 -13  -5  -7  181.78   38.30
  13  -5   7  107.79   34.30
  15  -5   7  187.18   38.00
 -15  -5  -7  170.58   38.90
 -17  -5  -7  283.67   43.70
  17  -5   7  271.37   43.00
 -19  -5  -7   57.09   34.20
  19  -5   7   72.99   36.70
 -21  -5  -7   37.60   33.80
  21  -5   7   11.60   33.90
 -23  -5  -7   51.39   35.90
  23  -5   7   15.00   37.80
 -25  -5  -7   79.59   40.00
  25  -5   7  107.49   41.30
 -27  -5  -7   64.89   42.10
  27  -5   7   67.99   40.10
 -29  -5  -7   23.10   37.40
 -36  -6   7   43.30   40.10
 -36  -6   7   13.60   26.50
  34  -6  -7   48.60   33.20
 -34  -6   7   -5.30   33.10
 -34  -6   7  -15.30   23.90
  32  -6  -7   71.19   33.50
 -32  -6   7   -9.50   31.40
 -32  -6   7    7.80   22.30
 -30  -6   7   -6.80   32.50
  30  -6  -7   -4.70   26.00
 -28  -6   7  165.08   37.90
  28  -6  -7  202.08   36.50
 -26  -6   7    0.70   29.90
  26  -6  -7   37.90   27.20
 -24  -6   7   -4.60   29.70
  24  -6  -7   24.10   25.40
 -22  -6   7   16.60   29.10
  22  -6  -7   33.30   26.10
 -20  -6   7  230.68   38.30
  20  -6  -7  196.08   32.30
 -18  -6   7  100.79   32.50
  18  -6  -7  125.89   27.00
  16  -6  -7   91.49   26.20
 -16  -6   7   53.29   28.20
 -14  -6   7  -12.60   26.20
  14  -6  -7   14.50   23.70
  12  -6  -7   19.20   23.60
 -12  -6   7   35.20   26.40
  10  -6  -7   88.49   23.90
 -10  -6   7  102.49   29.00
   8  -6  -7  -12.80   20.40
  -8  -6   7   28.70   26.40
   8  -6  -7   14.50   25.40
   6  -6  -7   97.49   24.80
   6  -6  -7   98.99   27.80
  -6  -6   7  102.89   28.60
   4  -6  -7   37.80   21.40
  -4  -6   7   34.20   26.00
   4  -6  -7   45.00   27.70
  -4  -6   7    5.40   24.40
   2  -6  -7   26.40   20.60
  -2  -6   7   32.70   25.30
   2  -6  -7  -15.30   26.80
  -2  -6   7   15.20   23.40
   0  -6  -7  127.49   32.60
   0  -6   7  121.59   29.50
   0  -6  -7  125.39   23.40
   0  -6   7   96.19   27.60
   2  -6   7  -11.70   22.10
   2  -6   7    8.50   26.90
  -2  -6  -7   68.39   31.30
   4  -6   7   -8.40   27.40
  -4  -6  -7   22.80   29.80
   4  -6   7   49.00   26.00
   6  -6   7   35.80   30.30
  -6  -6  -7   42.50   31.80
   6  -6   7   11.50   23.40
   8  -6   7   41.30   33.40
  -8  -6  -7   65.19   33.90
   8  -6   7   78.79   26.80
  10  -6   7   59.59   25.50
  10  -6   7   17.90   31.40
 -10  -6  -7   14.30   33.30
 -12  -6  -7   25.50   33.60
  12  -6   7   -6.40   30.70
  12  -6   7   25.20   23.70
  14  -6   7   93.49   36.10
 -14  -6  -7  144.49   39.00
  14  -6   7   93.09   28.20
 -16  -6  -7   23.60   38.00
  16  -6   7   58.89   35.50
 -18  -6  -7   59.39   38.40
  18  -6   7   -0.20   33.40
 -20  -6  -7   19.20   37.80
  20  -6   7   24.80   36.80
 -22  -6  -7    7.50   37.10
  22  -6   7   35.00   38.50
 -24  -6  -7   -5.70   35.60
  24  -6   7   92.19   41.60
 -26  -6  -7   41.80   39.60
 -31  -7   7   97.69   41.20
  29  -7  -7  112.29   34.30
 -29  -7   7    1.90   37.80
  27  -7  -7  111.39   33.10
 -27  -7   7    9.00   34.00
 -25  -7   7   26.50   34.40
  25  -7  -7   27.40   26.50
  23  -7  -7   30.80   25.90
 -23  -7   7   18.70   32.90
 -21  -7   7  173.78   42.00
  21  -7  -7  135.09   31.40
  19  -7  -7   39.80   28.00
 -19  -7   7  -11.60   31.90
  17  -7  -7   32.40   25.80
 -17  -7   7  -41.10   31.50
 -15  -7   7   24.00   31.10
  15  -7  -7   24.50   23.90
 -13  -7   7  280.87   41.30
  11  -7  -7   34.80   22.60
 -11  -7   7   28.50   30.30
   9  -7  -7   -7.90   20.20
  -9  -7   7   -0.20   28.20
   7  -7  -7   23.50   23.30
   7  -7  -7  -37.70   31.00
  -7  -7   7   27.00   29.00
   5  -7  -7   43.10   23.50
   5  -7  -7   12.20   29.40
  -5  -7   7   35.30   29.10
   3  -7  -7   27.20   34.20
  -3  -7   7   31.00   28.90
   1  -7  -7  118.49   35.50
  -1  -7   7   70.29   29.80
   1  -7   7   -6.50   27.60
  -1  -7  -7   -2.70   34.20
   1  -7   7   29.30   27.10
  -3  -7  -7   19.00   32.30
   3  -7   7    4.50   26.50
   3  -7   7   63.49   31.90
  -5  -7  -7   20.20   34.40
   5  -7   7   -7.60   31.30
   5  -7   7   -7.00   25.60
  -7  -7  -7  231.78   42.80
   7  -7   7  135.49   35.60
   7  -7   7  210.78   37.10
   9  -7   7    4.70   25.90
   9  -7   7  -10.60   29.80
  -9  -7  -7    1.50   38.00
  11  -7   7   26.50   32.70
  11  -7   7   23.10   27.80
 -11  -7  -7   17.40   36.20
  13  -7   7   22.60   26.70
  13  -7   7   -9.20   35.10
 -13  -7  -7  -32.70   35.40
  15  -7   7   90.19   32.70
 -15  -7  -7   74.69   41.40
  15  -7   7   69.59   38.20
 -17  -7  -7   15.70   40.40
  17  -7   7  -29.80   33.50
  17  -7   7   45.80   31.80
 -19  -7  -7   43.30   41.40
  19  -7   7  -22.00   36.50
 -21  -7  -7   22.20   39.60
 -26  -8   7   26.40   39.20
 -24  -8   7  -17.50   37.00
  22  -8  -7   46.80   28.90
 -22  -8   7   -4.90   36.70
 -20  -8   7   -8.10   34.40
  20  -8  -7   85.29   30.20
  18  -8  -7   46.90   25.60
 -18  -8   7    3.40   38.60
 -16  -8   7  -31.20   37.60
  16  -8  -7   14.20   25.50
  14  -8  -7   76.79   27.60
 -14  -8   7   27.40   35.40
 -12  -8   7   -4.30   33.90
  12  -8  -7   24.90   22.60
 -10  -8   7   82.19   36.80
  10  -8  -7   89.89   27.10
  -8  -8   7  -14.80   32.10
  -6  -8   7  -12.40   32.70
   4  -8  -7   -6.20   35.80
  -4  -8   7  -15.20   32.40
  -2  -8   7   16.80   31.10
   2  -8  -7  -44.70   31.70
   0  -8  -7    1.10   33.90
   0  -8   7   23.10   31.20
  -2  -8  -7  -10.30   37.50
   2  -8   7  -24.00   32.10
  -4  -8  -7   91.39   39.80
   4  -8   7   59.69   32.20
   6  -8   7   16.10   29.90
  -6  -8  -7   13.90   37.70
   6  -8   7   30.20   34.80
   8  -8   7   34.70   33.10
  -8  -8  -7    9.30   39.90
   8  -8   7   23.10   33.90
 -10  -8  -7   13.50   42.40
  10  -8   7    8.10   33.30
  10  -8   7   42.80   37.30
  12  -8   7   49.50   38.00
 -12  -8  -7   33.60   42.40
  12  -8   7  -16.90   29.60
 -14  -8  -7    3.70   42.60
  14  -8   7    3.50   34.30
  14  -8   7   -2.40   39.20
 -16  -8  -7    0.90   42.70
  15  -9  -7   57.19   26.30
 -13  -9   7   33.20   43.00
 -11  -9   7  -56.79   41.20
  -9  -9   7    3.60   39.20
  -7  -9   7  -40.00   36.70
  -5  -9   7  -42.10   39.60
  -3  -9   7    1.80   39.20
  -1  -9   7   -6.80   37.60
  -1  -9  -7   48.20   45.70
   1  -9   7   -6.10   35.20
   3  -9   7    9.00   38.20
  -3  -9  -7  -58.29   41.90
  -5  -9  -7   -7.70   44.60
   5  -9   7  -53.59   35.70
 -46   0   8  -16.60   29.00
 -44   0   8   26.80   25.70
 -42   0   8    5.20   25.70
 -40   0   8  723.13   55.29
 -38   0   8    2.60   24.30
 -36   0   8   13.90   22.90
 -34   0   8   68.09   23.00
 -32   0   8 2525.35  105.69
 -30   0   8   -0.40   20.70
  30   0  -8   27.00   16.50
  28   0  -8  651.43   36.20
 -28   0   8  632.14   41.30
 -22   0   8  175.68   15.30
 -22   0   8  153.88   22.40
  22   0  -8  198.88   19.10
 -20   0   8 1606.64   59.79
 -20   0   8 1648.14   67.99
  20   0  -8 1644.84   63.39
 -18   0   8   16.90   11.70
 -18   0   8   34.20    8.50
  18   0  -8    6.50    9.10
 -16   0   8 3048.09  109.39
 -12   0   8 4106.09  140.29
   8   0  -8   -0.70    5.50
  -8   0   8   -4.90    6.90
   4   0  -8    0.30    3.70
   2   0  -8   99.99   11.10
   0   0  -8  333.57   19.60
  -2   0  -8  344.07   22.10
  -2   0  -8  375.76   23.50
  -4   0  -8  506.55   29.80
  -4   0  -8  523.45   28.20
   6   0   8   14.20   12.50
  -6   0  -8    4.50    2.80
  -8   0  -8  757.82   42.80
   8   0   8 1010.60   43.30
  10   0   8  771.82   40.90
 -10   0  -8  822.02   44.40
 -12   0  -8  399.16   33.30
  12   0   8  393.46   29.30
 -14   0  -8  406.36   36.90
  14   0   8  279.67   29.60
 -16   0  -8 4094.39  157.78
  16   0   8 4022.70  150.88
  18   0   8   62.89   24.60
 -18   0  -8  102.79   26.50
 -20   0  -8  142.49   28.80
  20   0   8  129.29   26.80
 -22   0  -8  262.27   35.30
  22   0   8  284.67   34.50
  24   0   8 1873.31   85.19
 -24   0  -8 1819.32   89.09
 -26   0  -8  -11.30   21.90
  26   0   8   47.90   27.60
 -28   0  -8  432.16   48.70
 -30   0  -8   99.89   33.20
 -32   0  -8  152.08   36.40
 -34   0  -8   42.90   29.40
 -36   0  -8  219.78   44.20
 -45  -1   8   -0.60   29.30
 -45   1   8  -26.10   27.70
 -43  -1   8   30.00   29.40
 -43   1   8  -30.10   26.50
 -41  -1   8  -38.80   24.10
 -41   1   8    6.20   26.40
 -39  -1   8   -5.40   24.60
 -39   1   8   18.10   21.90
 -37  -1   8   -2.20   22.70
 -37   1   8   21.90   24.60
 -35  -1   8   18.80   23.20
 -35   1   8   17.40   20.30
 -33  -1   8   29.20   19.40
  33  -1  -8   77.69   20.70
 -33   1   8   57.09   24.90
 -31  -1   8  347.27   36.40
  31  -1  -8  291.07   30.40
 -31   1   8  263.87   33.90
 -29  -1   8   21.10   18.20
  29  -1  -8   -3.00   17.90
 -29   1   8   19.70   18.90
  27  -1  -8  434.86   33.60
 -27  -1   8  509.05   38.80
 -25  -1   8   -2.80    5.70
 -25  -1   8   19.10   14.80
  25  -1  -8   -9.80   15.80
 -25   1   8   -5.80    4.90
  25   1  -8    8.80    8.00
 -23  -1   8   16.10   14.40
  23  -1  -8   37.50   16.10
 -23   1   8   25.80   16.90
  23   1  -8    3.60    3.80
 -21  -1   8   -4.70    7.70
 -21  -1   8   25.90   12.60
  21  -1  -8   -5.70   12.10
 -21   1   8   35.70   14.50
  21   1  -8   11.00    8.20
 -19  -1   8   21.90   12.60
  19  -1  -8    9.50   11.40
 -19  -1   8   30.20   12.60
  19   1  -8   40.20    9.40
 -19   1   8   34.00   13.20
 -17  -1   8   46.60   11.80
 -17  -1   8   49.00   11.90
  17  -1  -8   29.20   12.90
 -17   1   8   57.79   15.10
  17   1  -8   46.40    8.90
 -15  -1   8   76.49   13.50
 -15  -1   8   89.89   12.40
  15  -1  -8   98.19   15.00
  15   1  -8   78.69   10.60
 -15   1   8   99.79   16.40
 -13  -1   8  230.28   16.30
 -13  -1   8  221.58   17.60
  13  -1  -8  250.57   18.90
  13   1  -8  226.68   14.70
 -13   1   8  235.48   18.10
  11  -1  -8   10.00    9.20
 -11  -1   8   20.80    9.10
 -11   1   8    9.10    9.10
  11   1  -8   23.00    7.80
   9  -1  -8  126.19   14.40
   9   1  -8  129.89   12.70
  -9   1   8  155.78   14.10
   7  -1  -8 2115.09   72.79
   7   1  -8 1770.92   73.09
  -7   1   8 2159.28   70.49
   5  -1  -8  375.76   20.70
   3  -1  -8   20.10    9.40
   3  -1  -8   15.20    9.30
   3   1  -8    7.90    5.60
   1  -1  -8    9.70    5.00
   1  -1  -8    1.50    8.70
   1   1  -8   11.90    9.10
  -1  -1  -8  549.65   28.10
  -1  -1  -8  567.34   30.40
   1  -1   8  554.64   28.50
  -3  -1  -8  956.60   41.70
  -3  -1  -8  950.70   45.00
   5  -1   8  118.29   17.80
  -5  -1  -8   90.39   18.10
  -5  -1  -8  116.99   15.30
  -7  -1  -8  576.94   31.30
  -7  -1  -8  559.94   34.00
   7  -1   8  601.04   34.10
   9  -1   8   56.99   17.30
   9   1   8   75.19   15.20
  11  -1   8  224.48   27.10
 -11  -1  -8  214.98   27.50
  11   1   8  222.68   22.80
 -11   1  -8  199.88   25.40
  13  -1   8  219.68   28.70
 -13   1  -8  175.58   25.20
  13   1   8  269.87   26.00
  15  -1   8   52.59   23.20
 -15  -1  -8   28.70   21.10
 -15   1  -8   49.00   19.90
  15   1   8   64.79   19.60
  17  -1   8  276.37   34.20
 -17  -1  -8  258.97   33.10
  17   1   8  265.07   29.20
 -17   1  -8  190.28   30.30
  19  -1   8  103.89   28.70
 -19  -1  -8   78.19   25.70
  19   1   8   78.09   23.70
 -19   1  -8   87.79   23.80
 -21  -1  -8  163.08   30.40
  21  -1   8  170.88   31.40
 -21   1  -8  163.58   28.90
  21   1   8  198.78   28.30
 -23  -1  -8  251.37   36.70
  23  -1   8  337.07   40.60
 -23   1  -8  295.07   36.70
 -25  -1  -8   65.99   25.60
  25  -1   8   29.90   27.80
 -27  -1  -8  114.49   30.90
  27  -1   8   38.70   29.50
 -29  -1  -8   35.30   26.80
  29  -1   8   26.00   32.60
 -31  -1  -8   64.59   30.20
 -33  -1  -8   56.99   31.80
 -35  -1  -8   50.49   31.60
 -46  -2   8  -43.10   29.40
 -46   2   8    5.30   27.90
 -44  -2   8   35.40   32.50
 -44   2   8   15.10   31.00
 -42  -2   8  135.59   32.20
 -42   2   8  166.88   38.60
 -40  -2   8   35.30   28.60
 -40   2   8   89.39   32.40
  38  -2  -8  162.08   30.50
 -38  -2   8  103.19   31.30
 -38   2   8  142.39   34.60
  36  -2  -8   28.30   21.20
 -36  -2   8    8.20   24.00
 -36   2   8    5.50   20.90
  34  -2  -8   28.10   21.80
 -34  -2   8  -15.60   21.50
 -34   2   8   28.90   24.90
  32  -2  -8  189.48   28.20
 -32  -2   8  183.28   31.10
 -32   2   8  139.59   27.90
  30  -2  -8 1243.08   61.79
 -30  -2   8 1139.99   61.09
 -30   2   8 1166.88   63.69
 -28  -2   8   70.99   23.70
 -28  -2   8   49.30   22.00
  28  -2  -8   69.29   22.40
 -28   2   8   39.60   21.90
  26  -2  -8    1.90   20.40
 -26  -2   8   16.00   19.30
 -26  -2   8   -1.40   16.70
 -26   2   8   -9.90   13.90
 -24  -2   8   -2.00   10.60
  24  -2  -8    9.10   17.50
 -24  -2   8   10.20   18.20
 -24   2   8  -25.40   12.30
 -22  -2   8  799.52   41.80
  22  -2  -8  760.02   43.20
 -22   2   8  876.81   48.40
 -20  -2   8 1887.51   75.09
  20  -2  -8 1817.02   75.89
 -20   2   8 1898.41   77.59
  20   2  -8 1803.22   66.09
  18  -2  -8   -3.40   14.00
 -18  -2   8   18.50   13.40
  18   2  -8   -4.10    6.00
 -18   2   8    8.40   12.40
  16  -2  -8  776.42   38.60
 -16  -2   8  749.62   36.70
 -16   2   8  713.63   38.10
  16   2  -8  733.53   30.30
 -14  -2   8 1828.92   71.49
  14  -2  -8 1869.51   72.69
 -14   2   8 1798.82   70.19
  14   2  -8 1856.71   66.39
  12  -2  -8  448.26   27.10
 -12  -2   8  541.55   28.40
  12   2  -8  513.45   23.90
 -12   2   8  546.45   28.00
  10  -2  -8 1781.32   64.29
 -10  -2   8 1700.83   68.59
 -10   2   8 1758.82   65.09
  10   2  -8 1767.42   64.79
   8  -2  -8  110.69   13.60
   8  -2  -8  101.69   15.40
  -8  -2   8   97.99   12.70
  -8   2   8   94.49   11.40
  -6  -2   8 1768.22   65.19
   6  -2  -8 1658.43   65.79
   6  -2  -8 1704.33   66.49
  -4  -2   8 2480.55   90.89
   4  -2  -8 2515.65   91.69
   2  -2  -8 7841.02  288.67
  -2  -2   8 8519.85  283.17
   2  -2  -8 8646.43  282.67
   0  -2   8    7.10   11.80
   0  -2  -8   21.80   11.00
   0  -2  -8   44.20   15.60
   2  -2   8   -2.40   12.40
  -2  -2  -8    1.80   10.80
  -2  -2  -8   -3.20   14.50
  -4  -2  -8  -16.30   15.40
  -4  -2  -8    4.50   11.20
   4  -2   8   28.50   15.00
  -6  -2  -8 2576.34   94.99
  -6  -2  -8 2537.25  102.59
   8  -2   8  240.98   25.20
  -8  -2  -8  410.26   34.50
  -8  -2  -8  378.26   24.00
  10  -2   8   65.99   21.40
 -10  -2  -8   65.89   20.80
 -10  -2  -8   45.30   14.40
  12  -2   8   14.20   21.20
 -12  -2  -8   15.20    5.10
  12   2   8    5.50   14.00
  14  -2   8  692.73   47.40
  14   2   8  673.83   37.80
  16  -2   8  377.76   40.60
 -16  -2  -8  258.27   35.90
  16   2   8  322.47   29.80
  18  -2   8   26.50   25.90
 -18  -2  -8   43.80   25.20
  18   2   8   18.00   21.40
  20  -2   8  -20.70   24.50
 -20  -2  -8   -9.30   22.60
 -22  -2  -8   57.79   25.80
  22  -2   8   27.70   27.50
 -24  -2  -8   37.80   26.60
  24  -2   8   30.70   28.50
 -26  -2  -8  626.44   52.59
  26  -2   8  667.93   59.09
  28  -2   8    6.20   31.20
 -28  -2  -8   -5.40   26.90
 -30  -2  -8   92.29   31.70
  30  -2   8  -62.09   27.30
  32  -2   8    4.00   34.50
 -32  -2  -8   18.20   29.40
 -34  -2  -8  104.19   36.40
 -43  -3   8   29.80   32.40
 -43   3   8   20.90   28.30
  41  -3  -8   47.20   28.80
 -41  -3   8    6.20   29.00
 -41   3   8   17.00   30.80
  39  -3  -8   36.80   26.60
 -39  -3   8   39.90   30.40
 -39   3   8    5.80   25.10
  37  -3  -8  140.09   31.70
 -37  -3   8   53.99   28.60
 -37   3   8   86.69   30.30
  35  -3  -8   64.39   27.60
 -35  -3   8   20.40   21.00
 -35   3   8   33.80   25.80
 -33  -3   8    1.10   21.70
  33  -3  -8   14.50   23.00
 -33   3   8   -1.30   25.70
  31  -3  -8  530.45   43.40
 -31  -3   8  584.64   45.50
 -31  -3   8  585.14   44.70
 -31   3   8  565.14   47.10
  29  -3  -8    7.40   22.50
 -29  -3   8   32.10   23.60
 -29  -3   8   21.90   20.20
 -29   3   8   48.60   22.90
  27  -3  -8   21.00   20.90
 -27  -3   8   39.70   18.00
 -27  -3   8   29.60   23.40
 -27   3   8  -18.50   23.40
  25  -3  -8    8.30   22.00
 -25  -3   8   75.59   23.00
 -25  -3   8   62.39   20.30
 -25   3   8   61.99   23.70
 -23  -3   8   79.59   20.50
  23  -3  -8   77.49   23.50
 -23  -3   8   89.99   22.30
 -23   3   8  111.89   26.30
  21  -3  -8   38.80   21.50
 -21  -3   8   73.39   22.40
 -21   3   8   29.70   21.10
  19  -3  -8    6.40   18.70
 -19  -3   8   24.00   17.60
 -19   3   8   -5.70   14.50
 -17  -3   8  769.42   41.20
  17  -3  -8  638.24   40.30
 -17   3   8  776.72   41.60
 -15  -3   8  487.85   32.20
 -15  -3   8  466.15   22.90
  13  -3  -8  133.59   20.00
 -13  -3   8  144.19   20.60
 -13  -3   8  152.88   14.30
  13  -3  -8  157.58   15.50
 -11  -3   8  168.08   20.90
 -11  -3   8  144.09   15.20
  11  -3  -8  163.28   21.00
  11  -3  -8  176.28   16.90
  -9  -3   8 1361.66   58.49
   9  -3  -8 1384.26   57.59
  -9  -3   8 1307.87   52.79
   9  -3  -8 1296.87   54.39
   7  -3  -8  327.47   24.90
  -7  -3   8  327.27   22.60
  -7  -3   8  315.37   26.50
  -5  -3   8  188.98   20.30
   5  -3  -8  170.68   19.50
   5  -3  -8  232.98   22.00
   3  -3  -8  648.14   37.80
  -3  -3   8  718.43   36.80
   3  -3  -8  632.24   35.20
  -1  -3   8  508.35   31.50
   1  -3  -8  465.35   33.00
   1  -3  -8  472.95   27.90
   1  -3   8  479.25   32.30
  -1  -3  -8  423.26   34.00
  -1  -3  -8  460.75   27.30
  -3  -3  -8  865.71   47.90
   3  -3   8  827.32   45.50
  -3  -3  -8  828.12   39.60
   5  -3   8 1672.63   72.89
  -5  -3  -8 1629.54   65.29
  -5  -3  -8 1624.34   74.69
  -7  -3  -8  207.48   30.50
   7  -3   8  214.08   28.70
  -7  -3  -8  276.37   23.50
   9  -3   8   -6.00    6.80
  -9  -3  -8   15.70   13.50
  -9  -3  -8  -24.00   24.30
 -11  -3  -8  291.67   33.10
 -11  -3  -8  260.27   22.40
  13  -3   8   79.19   28.20
 -13  -3  -8   56.29   16.50
 -13  -3  -8   26.30   25.10
 -15  -3  -8    0.00   25.20
  15  -3   8  -12.40   24.90
  17  -3   8   80.39   29.10
 -17  -3  -8   52.69   27.40
  19  -3   8   38.80   28.80
 -19  -3  -8  106.19   30.20
  21  -3   8  378.86   47.30
 -21  -3  -8  349.37   43.30
  23  -3   8  -25.90   29.90
 -23  -3  -8   49.80   29.70
  25  -3   8  -16.10   31.60
 -25  -3  -8   22.60   29.90
 -27  -3  -8  231.18   41.60
  27  -3   8  207.68   43.80
  29  -3   8  115.49   38.50
 -29  -3  -8   70.49   32.80
  31  -3   8  -35.60   33.00
 -31  -3  -8   39.00   30.70
 -33  -3  -8   41.10   33.00
  33  -3   8   29.70   38.10
  42  -4  -8   77.59   31.50
 -42  -4   8   10.80   32.50
  40  -4  -8  339.67   45.50
 -40  -4   8  216.68   41.30
  38  -4  -8    7.40   28.40
 -38  -4   8   12.80   27.40
  36  -4  -8   64.69   28.00
 -36  -4   8   14.20   25.20
 -34  -4   8   41.40   28.90
 -34  -4   8   47.30   25.40
  34  -4  -8   17.50   27.80
 -32  -4   8  279.17   38.60
 -32  -4   8  334.07   37.70
  32  -4  -8  305.67   39.30
 -30  -4   8   13.80   23.60
  30  -4  -8   30.70   24.40
 -30  -4   8   25.80   21.10
 -28  -4   8   83.79   21.30
  28  -4  -8   89.79   27.10
 -28  -4   8   79.29   25.60
  26  -4  -8  213.08   32.20
 -26  -4   8  172.58   29.70
  24  -4  -8  132.29   28.60
 -24  -4   8  109.99   29.00
  22  -4  -8  200.18   31.00
 -22  -4   8  202.38   31.00
 -20  -4   8  137.69   27.00
  20  -4  -8   61.49   20.50
 -18  -4   8   17.80   22.10
  18  -4  -8   26.80    7.60
  16  -4  -8  -12.20   10.90
 -16  -4   8   22.90   22.00
  14  -4  -8   12.80   19.30
 -14  -4   8   35.30   21.70
 -12  -4   8 1539.65   60.39
 -12  -4   8 1619.14   70.39
  12  -4  -8 1419.96   66.29
  10  -4  -8  190.08   24.80
 -10  -4   8  206.58   21.10
 -10  -4   8  192.08   27.00
  10  -4  -8  210.18   23.70
   8  -4  -8   96.09   20.80
   8  -4  -8   86.79   20.30
  -8  -4   8  118.19   23.40
  -8  -4   8   87.29   17.80
  -6  -4   8   -8.90   15.60
   6  -4  -8   13.10   19.10
  -6  -4   8    5.00    9.60
   6  -4  -8  -12.70   15.70
   4  -4  -8  679.93   37.60
   4  -4  -8  696.73   40.60
  -4  -4   8  598.74   38.40
   2  -4  -8  194.68   27.10
  -2  -4   8  165.78   20.90
   2  -4  -8  171.88   22.20
  -2  -4   8  156.98   24.90
   0  -4   8  139.99   25.00
   0  -4  -8  195.18   22.30
   0  -4  -8  163.68   28.40
  -2  -4  -8  482.95   31.10
  -2  -4  -8  479.25   41.00
   2  -4   8  471.75   38.40
  -4  -4  -8  439.06   29.60
  -4  -4  -8  491.75   42.70
   4  -4   8  405.16   38.50
   6  -4   8  144.59   29.80
  -6  -4  -8  165.18   20.90
  -6  -4  -8  119.39   32.10
  -8  -4  -8  725.93   37.90
   8  -4   8  700.23   51.49
  -8  -4  -8  767.12   54.59
 -10  -4  -8  183.78   35.70
  10  -4   8  231.88   35.60
 -12  -4  -8   49.00   30.00
  12  -4   8   38.50   28.60
  14  -4   8   14.50   27.40
 -14  -4  -8    5.10   27.60
  16  -4   8 1146.59   69.19
 -16  -4  -8 1021.10   66.89
  18  -4   8   59.89   31.60
 -18  -4  -8   81.99   32.90
  20  -4   8   37.80   32.80
 -20  -4  -8  -29.40   27.00
 -22  -4  -8   11.20   28.90
  22  -4   8    1.10   32.30
  24  -4   8  807.82   64.69
 -24  -4  -8  712.03   61.89
 -26  -4  -8   39.20   35.20
  26  -4   8   69.39   39.40
  28  -4   8  130.59   42.40
 -28  -4  -8  221.48   43.50
  30  -4   8   22.90   38.80
 -30  -4  -8  -10.70   35.00
 -39  -5   8   24.10   28.90
  37  -5  -8  117.59   33.60
 -37  -5   8   16.60   26.80
 -35  -5   8  117.79   30.50
 -35  -5   8   88.49   35.50
  35  -5  -8  120.99   34.40
  33  -5  -8   86.69   30.40
 -33  -5   8   22.20   22.60
 -33  -5   8   46.90   30.60
 -31  -5   8  128.79   33.30
 -31  -5   8  131.79   26.20
  31  -5  -8  244.18   37.90
 -29  -5   8    2.30   29.00
 -29  -5   8   13.50   19.80
  29  -5  -8   26.10   27.20
  27  -5  -8  125.19   31.10
 -27  -5   8  128.49   32.90
 -25  -5   8   97.29   29.70
  25  -5  -8   99.29   28.40
  23  -5  -8  -19.10   20.30
 -23  -5   8   -1.10   23.90
  21  -5  -8   44.30   23.80
 -21  -5   8  113.59   30.60
 -19  -5   8  301.37   35.70
  19  -5  -8  253.77   33.30
 -17  -5   8  189.58   31.70
  17  -5  -8   74.19   25.40
  15  -5  -8  100.99   26.10
 -15  -5   8  124.19   29.20
  13  -5  -8  708.03   48.50
 -13  -5   8  887.91   52.89
  11  -5  -8  150.98   26.40
 -11  -5   8  247.38   32.80
  11  -5  -8  194.48   28.90
   9  -5  -8   50.49   21.40
   9  -5  -8   32.50   24.00
  -9  -5   8    1.40   21.20
   7  -5  -8    8.00   24.10
  -7  -5   8   16.60   17.60
   7  -5  -8   30.10   22.30
  -7  -5   8   38.00   20.60
   5  -5  -8  699.33   47.90
  -5  -5   8  666.13   44.00
   5  -5  -8  714.73   42.00
   3  -5  -8    6.50   20.20
   3  -5  -8   29.90   27.80
  -3  -5   8   -6.80   23.50
  -3  -5   8    0.40   21.80
  -1  -5   8   63.19   25.00
   1  -5  -8   14.50   19.60
   1  -5  -8   43.90   28.40
  -1  -5   8  -24.20   20.60
   1  -5   8   15.10   25.30
  -1  -5  -8  -23.80   28.60
  -1  -5  -8   14.40   17.50
   1  -5   8    7.30   21.80
   3  -5   8  321.07   36.00
  -3  -5  -8  369.36   30.00
   3  -5   8  328.37   40.10
  -3  -5  -8  301.57   40.00
  -5  -5  -8  274.37   39.50
  -5  -5  -8  315.77   28.30
   5  -5   8  246.68   36.80
  -7  -5  -8   31.40   31.10
   7  -5   8   10.40   29.50
  -9  -5  -8  608.24   51.99
   9  -5   8  459.55   48.30
  11  -5   8   34.50   32.70
 -11  -5  -8   50.89   32.50
 -13  -5  -8  -29.40   30.20
  13  -5   8  -21.20   28.00
  15  -5   8  196.78   39.50
 -15  -5  -8  175.68   38.90
 -17  -5  -8  -11.30   30.90
  17  -5   8   13.20   30.30
 -19  -5  -8   59.69   34.50
  19  -5   8   -0.10   32.70
 -21  -5  -8  162.18   39.60
  21  -5   8  143.69   40.90
 -23  -5  -8  115.09   39.20
  23  -5   8   89.69   39.70
 -25  -5  -8  173.58   43.40
  25  -5   8   88.99   43.80
 -27  -5  -8   18.40   36.70
 -29  -5  -8   41.90   38.30
 -36  -6   8   -0.10   33.40
 -36  -6   8   -8.80   24.90
 -34  -6   8   47.50   25.80
  34  -6  -8   53.49   31.20
 -34  -6   8   36.60   37.60
  32  -6  -8  141.69   34.20
 -32  -6   8  109.49   26.20
 -32  -6   8   16.60   35.00
  30  -6  -8  190.58   35.60
 -30  -6   8  140.59   37.10
  28  -6  -8   15.20   24.90
 -28  -6   8   40.10   33.30
  26  -6  -8   78.59   29.30
 -26  -6   8   48.60   32.30
  24  -6  -8   68.09   28.20
 -24  -6   8   17.40   30.60
  22  -6  -8  119.99   29.80
 -22  -6   8  217.78   38.40
 -20  -6   8  111.09   34.50
  20  -6  -8  105.29   28.50
  18  -6  -8   81.39   26.00
 -18  -6   8   96.39   30.70
 -16  -6   8  -38.70   24.70
  16  -6  -8    0.90   21.80
 -14  -6   8  142.39   32.60
  14  -6  -8   92.89   24.70
  12  -6  -8   78.59   25.80
 -12  -6   8  135.19   30.60
 -10  -6   8  174.38   32.50
  10  -6  -8  172.18   27.60
   8  -6  -8   26.90   27.50
   8  -6  -8   60.19   21.90
  -8  -6   8   36.20   25.70
   6  -6  -8   -6.90   27.60
  -6  -6   8   30.30   25.70
   6  -6  -8   45.60   21.90
   4  -6  -8  353.66   33.70
  -4  -6   8  277.47   36.40
  -4  -6   8  307.77   33.90
   4  -6  -8  392.76   41.00
   2  -6  -8  466.35   44.60
  -2  -6   8  357.76   39.30
  -2  -6   8  412.96   40.00
   2  -6  -8  493.35   36.40
   0  -6  -8   19.80   19.90
   0  -6   8   44.40   25.60
   0  -6  -8   81.49   33.30
   0  -6   8   61.59   29.00
   2  -6   8   26.60   24.50
  -2  -6  -8   -0.20   31.60
   2  -6   8   19.90   26.00
   4  -6   8    0.90   22.50
  -4  -6  -8   29.70   31.70
   4  -6   8   -5.00   28.40
   6  -6   8  297.17   36.90
  -6  -6  -8  300.27   43.60
   6  -6   8  216.48   38.10
   8  -6   8  121.79   28.50
   8  -6   8   53.99   30.90
  -8  -6  -8   67.99   35.40
  10  -6   8   26.30   32.30
  10  -6   8   -2.00   23.70
 -10  -6  -8   32.70   36.40
  12  -6   8   62.59   28.60
  12  -6   8   90.09   36.70
 -12  -6  -8  101.59   38.60
  14  -6   8   60.49   38.00
 -14  -6  -8   76.99   38.40
 -16  -6  -8   71.59   37.50
  16  -6   8   98.09   39.20
  18  -6   8   83.99   38.80
 -18  -6  -8  131.89   40.40
  20  -6   8   30.00   39.80
 -20  -6  -8   13.10   38.10
  22  -6   8  -51.49   38.70
 -22  -6  -8   22.40   36.80
 -24  -6  -8   20.80   38.20
 -31  -7   8  -48.10   33.80
 -29  -7   8    2.00   34.80
  29  -7  -8   67.19   32.00
 -27  -7   8   -2.70   35.90
  27  -7  -8   52.19   28.80
  25  -7  -8   11.80   26.40
 -25  -7   8  -42.30   30.50
 -23  -7   8   56.79   35.60
  23  -7  -8  102.79   30.50
  21  -7  -8  149.49   32.20
 -21  -7   8   59.19   35.70
  19  -7  -8   48.20   26.60
 -19  -7   8  -41.60   31.70
  17  -7  -8  -12.40   21.30
 -17  -7   8  -13.00   29.40
  15  -7  -8   26.60   23.10
 -15  -7   8   39.10   32.20
  13  -7  -8   47.10   25.50
 -13  -7   8   43.00   31.00
  11  -7  -8   28.00   22.60
 -11  -7   8    7.80   29.50
   9  -7  -8   42.50   25.20
  -9  -7   8   65.09   29.70
   7  -7  -8   -3.40   21.40
  -7  -7   8  -20.80   27.70
  -5  -7   8   59.39   31.00
   5  -7  -8   68.79   25.10
   5  -7  -8   62.09   33.80
  -3  -7   8   -0.60   28.40
   3  -7  -8   16.50   33.30
  -1  -7   8  241.48   38.30
   1  -7  -8  284.87   42.60
  -1  -7  -8  105.19   35.50
   1  -7   8   93.69   32.40
   1  -7   8   42.60   31.10
  -3  -7  -8    8.50   35.30
   3  -7   8   34.30   29.90
   3  -7   8   64.19   31.50
  -5  -7  -8  272.07   45.10
   5  -7   8  292.97   40.60
   5  -7   8  174.18   39.50
   7  -7   8   59.49   29.00
  -7  -7  -8    0.40   36.40
   7  -7   8    3.70   30.70
   9  -7   8   10.80   32.70
   9  -7   8   43.10   28.20
  -9  -7  -8    1.10   36.10
  11  -7   8   -6.80   26.00
  11  -7   8   22.50   36.60
 -11  -7  -8  -35.40   35.10
  13  -7   8   20.30   27.50
  13  -7   8  126.29   39.50
 -13  -7  -8   41.00   41.00
  15  -7   8    9.40   37.40
 -15  -7  -8   -9.30   38.20
  15  -7   8   51.89   32.00
 -17  -7  -8    4.20   39.20
  17  -7   8   21.20   31.30
  17  -7   8  -39.80   35.50
 -19  -7  -8    7.90   39.70
 -21  -7  -8  105.69   45.60
 -26  -8   8  -34.30   36.50
 -24  -8   8  -44.70   36.40
  22  -8  -8   66.49   29.70
 -22  -8   8  -78.29   33.50
 -20  -8   8    1.50   38.70
  20  -8  -8   62.09   28.40
  18  -8  -8   23.40   24.00
 -18  -8   8    0.40   39.50
 -16  -8   8  -34.00   34.40
  16  -8  -8   62.19   26.00
  14  -8  -8   36.90   23.80
 -14  -8   8   12.40   37.20
 -12  -8   8  133.69   39.00
 -10  -8   8  -36.90   31.50
  10  -8  -8   30.90   25.00
  -8  -8   8   12.50   34.80
  -6  -8   8   26.70   32.30
  -4  -8   8   54.19   33.40
   2  -8  -8   43.60   38.20
  -2  -8   8   26.40   33.90
   0  -8   8   83.59   34.10
   0  -8  -8  195.48   45.00
  -2  -8  -8    5.50   39.00
   2  -8   8  -15.00   29.30
   4  -8   8  102.69   36.70
  -4  -8  -8   63.99   42.30
  -6  -8  -8   -3.10   39.60
   6  -8   8  -31.90   34.10
   6  -8   8    9.60   31.20
   8  -8   8  104.09   37.70
  -8  -8  -8  131.89   46.10
   8  -8   8   94.29   35.20
  10  -8   8   36.20   35.20
 -10  -8  -8   46.60   47.20
  10  -8   8  -12.30   34.20
  12  -8   8   37.50   38.40
  12  -8   8  133.29   38.00
 -12  -8  -8   48.80   45.60
 -14  -8  -8   15.90   44.50
  14  -8   8  -12.10   33.60
 -13  -9   8   35.10   42.50
 -11  -9   8  -27.10   37.10
  -9  -9   8    2.10   42.50
  -7  -9   8  -15.00   41.30
  -5  -9   8   52.99   40.70
  -3  -9   8  -36.20   37.00
  -1  -9   8   41.30   40.20
   1  -9   8    0.30   35.80
  -1  -9  -8   21.60   41.50
 -46   0   9   48.90   32.60
 -44   0   9  -46.00   19.70
 -42   0   9  -10.70   25.00
 -40   0   9   20.30   24.70
 -38   0   9   45.20   22.60
 -36   0   9   13.20   23.00
 -34   0   9  -11.80   19.70
 -32   0   9   10.80   17.80
  30   0  -9   -2.90   14.10
 -30   0   9  -11.40   18.90
  28   0  -9  -15.90   12.80
 -28   0   9    4.60   10.70
  26   0  -9    9.90   12.80
 -26   0   9    1.70    6.20
 -24   0   9   -1.70    7.40
  24   0  -9   -4.60   11.30
  22   0  -9    6.30   11.00
 -22   0   9    4.30   12.80
 -20   0   9   17.30   12.40
 -20   0   9   -9.70    8.00
  20   0  -9  -11.80    9.10
  18   0  -9    5.40    8.60
 -18   0   9    0.40    7.80
 -18   0   9   -2.70   12.30
 -16   0   9    9.00    7.00
  16   0  -9    0.80    9.30
 -16   0   9   -6.50   10.60
 -14   0   9   -2.80    9.10
 -14   0   9    1.40    6.40
  14   0  -9    9.00    8.20
 -12   0   9    8.90    8.60
  12   0  -9    5.60    6.70
  10   0  -9   26.00    8.40
 -10   0   9   28.30    8.40
  -8   0   9   27.20    7.60
   8   0  -9   15.50    7.90
   6   0  -9   18.80    8.80
  -6   0   9    2.70    5.50
  -4   0   9   -0.60    4.80
   4   0  -9   -8.00    7.30
   2   0  -9   -0.90    2.10
   2   0  -9   -4.10    6.70
   0   0  -9   11.20    9.40
   0   0  -9    2.20    9.10
  -2   0  -9   -4.90   10.10
  -2   0  -9    6.20   10.00
  -4   0  -9   -5.00   10.30
  -4   0  -9    5.30    9.70
   6   0   9   16.30   12.90
  -6   0  -9    5.40    9.50
  -8   0  -9    0.60    4.00
   8   0   9   -2.40   12.70
  10   0   9    8.60   14.80
 -10   0  -9    5.00   15.80
  12   0   9    2.10   16.40
 -12   0  -9    7.40   17.80
 -14   0  -9   24.80   19.20
  14   0   9   -6.40   19.40
  16   0   9   12.60   20.60
 -16   0  -9   -2.10   19.40
  18   0   9   -9.70   20.00
 -18   0  -9   -9.00   19.40
 -20   0  -9    1.30   19.90
  20   0   9   14.20   22.50
  22   0   9   12.90   24.40
 -22   0  -9    9.80   22.60
  24   0   9  -35.20   24.30
 -24   0  -9   -6.20   22.80
 -26   0  -9   -2.30   25.30
  26   0   9   -1.80   27.70
 -28   0  -9   12.00   26.00
 -30   0  -9   -9.30   24.90
 -32   0  -9    4.70   29.20
 -34   0  -9    4.80   30.20
 -47  -1   9  -22.70   29.80
 -47   1   9    2.90   26.30
 -45  -1   9   58.19   33.60
 -45   1   9   49.00   32.60
 -43  -1   9   30.20   29.00
 -43   1   9   15.10   28.90
 -41  -1   9   85.39   30.30
 -41   1   9  110.59   31.70
 -39  -1   9  228.98   37.00
 -39   1   9  261.27   37.00
 -37  -1   9   95.69   28.30
 -37   1   9   72.49   27.40
 -35  -1   9   63.59   25.90
 -33  -1   9   40.30   22.50
  33  -1  -9   53.49   20.30
 -33   1   9   40.70   23.10
  31  -1  -9  529.95   38.40
 -31  -1   9  559.44   41.30
 -31   1   9  582.24   44.40
  29  -1  -9   89.59   22.40
 -29  -1   9   53.29   23.80
 -29   1   9   56.39   23.10
 -27  -1   9    3.80   10.00
  27  -1  -9  160.78   23.90
 -27   1   9   -6.20   10.50
 -25  -1   9   51.29   15.50
 -25  -1   9   -3.50    3.40
  25  -1  -9   11.90   15.00
 -25   1   9    3.10   12.70
  25   1  -9   39.60   11.70
  23  -1  -9 1486.95   62.19
 -23  -1   9 1494.95   59.19
 -23   1   9 1577.94   66.19
  23   1  -9 1308.67   55.99
  21  -1  -9  812.42   42.00
 -21  -1   9  878.51   39.40
 -21  -1   9  938.41   44.10
 -21   1   9  905.11   46.70
 -19  -1   9  855.11   37.30
  19  -1  -9  838.82   40.60
 -19  -1   9  853.21   41.70
 -19   1   9  798.72   42.80
 -17  -1   9 1052.19   44.50
  17  -1  -9  937.71   43.80
 -17  -1   9 1005.50   41.50
 -17   1   9  960.40   45.20
 -15  -1   9  627.54   30.30
  15  -1  -9  611.04   31.10
 -15  -1   9  564.54   28.20
 -15   1   9  566.94   31.00
 -13  -1   9  230.08   18.20
  13  -1  -9  246.28   19.40
 -13  -1   9  230.28   17.20
 -13   1   9  235.68   19.60
  11  -1  -9 1563.94   61.99
 -11   1   9 1580.44   59.49
   9  -1  -9 2017.10   74.49
   9  -1  -9 1923.31   70.99
  -9   1   9 1991.90   70.79
   7  -1  -9   87.09   10.60
  -7   1   9   91.19    9.80
   7   1  -9   67.19   10.10
   5  -1  -9   97.29   11.90
   5  -1  -9  112.79   14.20
   5   1  -9  108.29   13.10
  -5   1   9   84.09    8.40
   3  -1  -9 2853.71  102.19
   3   1  -9 2773.72  101.99
   1  -1  -9  264.27   20.50
   1  -1  -9  299.87   19.50
   1   1  -9  278.37   20.60
  -1  -1  -9   65.89   14.70
   1  -1   9   40.30   13.40
  -1  -1  -9   57.69   12.70
  -3  -1  -9   98.49   15.30
  -3  -1  -9   88.59   17.00
  -5  -1  -9 1400.16   62.69
  -5  -1  -9 1454.65   58.69
   5  -1   9 1417.46   60.69
  -7  -1  -9  547.65   36.50
  -7  -1  -9  582.04   32.20
   7  -1   9  620.84   35.70
   9  -1   9  519.35   35.20
   9   1   9  583.24   32.90
  11  -1   9  118.49   23.10
  11   1   9   75.59   17.90
  13  -1   9  279.07   32.10
 -13   1  -9  381.16   35.50
  13   1   9  240.28   27.60
 -15  -1  -9  450.45   41.30
  15  -1   9  393.06   38.00
  15   1   9  395.06   33.50
 -15   1  -9  422.06   38.90
 -17  -1  -9  199.88   31.70
  17  -1   9  199.38   32.40
  17   1   9  244.08   29.20
 -17   1  -9  215.78   30.40
  19  -1   9   43.10   24.90
 -19  -1  -9   60.39   24.60
  19   1   9   27.40   20.30
 -19   1  -9   42.50   21.70
  21  -1   9   45.40   27.20
 -21  -1  -9   11.40   22.00
  21   1   9   13.70   21.00
 -21   1  -9   10.20   20.90
 -23  -1  -9   60.89   26.10
  23  -1   9   33.60   27.60
  25  -1   9  547.55   53.49
 -25  -1  -9  557.54   52.49
  27  -1   9   10.60   31.20
 -27  -1  -9   15.80   26.60
  29  -1   9   -2.90   29.60
 -29  -1  -9   59.39   30.00
 -31  -1  -9   33.60   29.60
 -33  -1  -9  186.58   40.10
 -46  -2   9    8.30   28.10
 -46   2   9  -15.10   26.20
 -44  -2   9    3.40   29.70
 -44   2   9   32.80   31.30
 -42  -2   9   36.10   25.30
 -42   2   9   15.80   28.90
 -40  -2   9   68.59   30.70
 -40   2   9   50.69   29.30
 -38  -2   9  -29.80   23.30
  38  -2  -9   19.20   22.20
 -38   2   9   12.60   22.70
  36  -2  -9   50.49   21.50
 -36  -2   9    9.70   21.10
 -36   2   9   16.50   24.90
  34  -2  -9  194.18   28.80
 -34  -2   9  162.08   29.10
 -34   2   9  193.98   34.30
  32  -2  -9   33.90   19.70
 -32  -2   9   44.80   20.70
 -32   2   9   22.20   23.70
 -30  -2   9  271.37   33.40
  30  -2  -9  299.57   32.90
 -30   2   9  303.47   37.40
 -28  -2   9  185.68   26.70
  28  -2  -9  305.57   32.50
 -28  -2   9  254.27   28.60
 -28   2   9  243.48   34.30
 -26  -2   9    8.40   17.00
 -26  -2   9   13.50   19.60
  26  -2  -9   28.50   21.60
 -26   2   9   -8.00   17.80
 -24  -2   9   77.09   20.30
  24  -2  -9   68.09   21.50
 -24   2   9   77.59   21.20
  22  -2  -9  122.09   22.20
 -22  -2   9  127.09   20.70
 -22   2   9  103.99   23.50
 -20  -2   9  150.98   19.00
 -20  -2   9  180.68   20.40
  20  -2  -9  164.98   22.10
  20   2  -9  170.98   13.80
 -20   2   9  143.89   21.60
 -18  -2   9   24.90   13.70
  18  -2  -9   12.60   14.60
  18   2  -9   30.00    8.50
 -18   2   9   31.50   15.50
 -16  -2   9  105.89   15.60
  16  -2  -9  127.29   18.90
 -16   2   9   97.39   16.90
  16   2  -9  126.59   12.80
 -14  -2   9  171.48   18.40
  14  -2  -9  138.59   18.30
  14   2  -9  161.38   13.60
 -14   2   9  144.39   16.20
  12  -2  -9  141.09   12.20
  12  -2  -9   99.19   13.90
 -12  -2   9  123.09   16.00
 -12   2   9  105.19   14.70
  12   2  -9  148.69   14.20
 -10  -2   9    5.00   11.00
  10  -2  -9    1.30    7.50
  10  -2  -9   16.50    8.60
 -10   2   9   24.90   10.30
  10   2  -9   -4.00    4.30
   8  -2  -9  770.42   34.30
  -8  -2   9  817.12   35.20
   8  -2  -9  827.52   37.10
   8   2  -9  656.23   33.20
  -8   2   9  792.62   32.90
   6  -2  -9   40.90   12.90
   6  -2  -9   28.70   11.60
  -6  -2   9   14.00   10.60
   4  -2  -9   89.29   15.00
  -4  -2   9   71.79   14.30
   2  -2  -9  164.08   20.10
  -2  -2   9  166.88   19.20
   2  -2  -9  184.48   18.80
   0  -2   9  279.77   24.80
   0  -2  -9  262.07   25.00
   0  -2  -9  238.98   20.30
  -2  -2  -9   22.30   15.90
   2  -2   9    7.20   14.10
  -2  -2  -9   19.20   12.90
   4  -2   9  265.07   26.40
  -4  -2  -9  306.67   29.50
  -4  -2  -9  246.28   21.00
   6  -2   9    4.10    8.20
  -6  -2  -9   55.49   20.70
  -6  -2  -9   21.60   13.70
  -8  -2  -9   22.00   13.30
  -8  -2  -9   -5.30   19.70
   8  -2   9    0.40   10.70
 -10  -2  -9  100.99   18.40
 -10  -2  -9   67.89   15.40
  10  -2   9   78.89   22.20
  12  -2   9   -1.50   22.10
 -12  -2  -9   19.60    6.60
  12   2   9   23.30   16.20
 -14  -2  -9   -0.60   18.50
  14  -2   9   33.80   25.20
  14   2   9   24.20   16.80
  16  -2   9  259.87   36.60
 -16  -2  -9  325.67   38.30
  16   2   9  375.26   32.30
  18  -2   9   40.40   26.60
 -18  -2  -9   12.10   23.30
 -20  -2  -9   33.70   25.00
  20  -2   9   -6.10   25.30
  22  -2   9  171.98   35.70
 -22  -2  -9  170.78   33.40
 -24  -2  -9   61.89   28.60
  24  -2   9   59.89   30.70
  26  -2   9  -13.70   29.80
 -26  -2  -9   13.70   27.40
  28  -2   9   -5.40   34.80
 -28  -2  -9   28.40   28.30
 -30  -2  -9   51.69   31.70
  30  -2   9  -76.99   30.30
  32  -2   9   32.60   38.50
 -32  -2  -9   13.80   31.20
 -45  -3   9   15.10   34.80
 -45   3   9   20.30   32.60
 -43  -3   9   -2.90   29.90
 -43   3   9   52.59   34.40
 -41  -3   9  102.59   31.30
 -41   3   9   96.19   36.30
 -39  -3   9   93.09   32.60
  39  -3  -9  155.08   31.50
 -39   3   9  155.48   38.10
  37  -3  -9   50.19   25.00
 -37  -3   9   12.00   25.00
 -37   3   9   -8.80   27.60
 -35  -3   9   44.60   26.80
  35  -3  -9   29.00   24.20
 -35   3   9   -8.90   27.30
  33  -3  -9   -3.90   20.80
 -33  -3   9    5.80   21.30
 -33   3   9  -11.70   21.80
 -31  -3   9  245.58   33.50
  31  -3  -9  228.78   33.50
 -31  -3   9  246.98   30.90
 -31   3   9  282.47   39.30
 -29  -3   9   37.80   24.40
 -29  -3   9   36.90   18.30
  29  -3  -9   37.10   21.70
 -29   3   9   32.60   26.40
  27  -3  -9   27.10   20.50
 -27  -3   9   33.30   22.50
 -27  -3   9    0.10   14.90
 -27   3   9   -4.80   19.40
  25  -3  -9  -11.60   21.00
 -25  -3   9  -31.90   19.90
 -25  -3   9   -5.10   17.60
 -25   3   9   12.50   20.10
 -23  -3   9  317.47   32.80
  23  -3  -9  316.77   34.40
 -23   3   9  301.77   33.90
 -21  -3   9  450.15   34.10
  21  -3  -9  463.45   37.40
 -21   3   9  539.35   40.10
  19  -3  -9   66.59   21.00
 -19  -3   9   34.80   18.10
 -19   3   9   82.09   19.10
  17  -3  -9  120.19   19.40
 -17  -3   9  150.58   21.70
 -17   3   9  125.19   20.80
 -15  -3   9   70.19   11.80
 -15  -3   9   68.49   19.00
 -13  -3   9 1083.99   44.20
  13  -3  -9 1041.10   44.30
 -13  -3   9 1126.99   51.59
  13  -3  -9 1108.39   51.09
  11  -3  -9  946.41   45.40
 -11  -3   9  880.51   45.20
 -11  -3   9  897.41   39.90
  11  -3  -9  937.71   40.70
  -9  -3   9  181.08   18.20
   9  -3  -9  168.88   21.00
  -9  -3   9  175.18   22.20
   7  -3  -9   -1.70   13.40
  -7  -3   9    8.50   14.60
   7  -3  -9  -11.20   12.80
  -7  -3   9    7.20   11.90
   5  -3  -9   27.70   15.80
   5  -3  -9    9.60   13.70
  -5  -3   9   11.40   13.80
   3  -3  -9  878.71   45.10
  -3  -3   9  912.11   44.60
   3  -3  -9  881.91   42.00
   1  -3  -9   70.89   15.50
  -1  -3   9   48.20   17.30
   1  -3  -9   62.89   20.80
  -1  -3  -9  637.74   40.60
  -1  -3  -9  560.74   33.30
   1  -3   9  604.84   37.80
  -3  -3  -9  132.59   18.30
  -3  -3  -9   82.29   24.60
   3  -3   9  130.49   23.70
   5  -3   9 1174.28   59.89
  -5  -3  -9 1296.77   63.69
  -5  -3  -9 1193.28   52.99
  -7  -3  -9 1354.36   68.99
   7  -3   9 1241.08   64.29
  -7  -3  -9 1359.56   56.59
  -9  -3  -9  201.38   22.00
  -9  -3  -9  248.68   35.60
 -11  -3  -9   58.29   27.90
 -11  -3  -9   10.20   14.30
  11  -3   9  -11.40   17.20
 -13  -3  -9   72.29   18.30
 -13  -3  -9   91.29   29.20
  13  -3   9   57.29   28.40
  15  -3   9  128.79   32.90
 -15  -3  -9  116.09   30.90
  17  -3   9  613.74   53.29
 -17  -3  -9  578.74   49.10
  19  -3   9  -27.60   29.60
 -19  -3  -9    3.90   25.00
  21  -3   9   -8.30   27.70
 -21  -3  -9    6.00   26.70
  23  -3   9   95.39   35.70
 -23  -3  -9  147.09   37.40
 -25  -3  -9  262.37   44.20
  25  -3   9  235.08   44.10
 -27  -3  -9   86.79   34.40
  27  -3   9   36.90   36.40
 -29  -3  -9   25.50   30.00
  29  -3   9   -4.00   34.30
  31  -3   9  -20.50   35.50
 -31  -3  -9    2.90   31.00
  42  -4  -9   76.69   31.50
 -42  -4   9   31.50   32.80
 -40  -4   9   37.30   27.20
  40  -4  -9  129.69   34.30
  38  -4  -9   86.89   31.00
 -38  -4   9  113.89   33.20
  36  -4  -9  104.59   29.20
 -36  -4   9   71.29   25.00
 -34  -4   9   -2.40   21.50
  34  -4  -9   36.60   24.30
 -32  -4   9  -30.10   19.10
  32  -4  -9    4.20   23.20
 -32  -4   9  -12.70   25.40
  30  -4  -9   82.39   26.90
 -30  -4   9   56.69   20.10
 -30  -4   9   55.19   28.40
 -28  -4   9   21.70   22.90
 -28  -4   9   19.90   19.80
  28  -4  -9   40.70   24.90
  26  -4  -9    7.20   20.60
 -26  -4   9   -6.20   23.30
 -24  -4   9  141.39   28.20
  24  -4  -9  107.09   27.00
  22  -4  -9  201.78   31.30
 -22  -4   9  163.68   29.00
 -20  -4   9  -11.00   21.30
  20  -4  -9  -19.40   19.70
 -18  -4   9  127.69   26.20
  16  -4  -9   -1.00   15.10
 -16  -4   9   20.00   21.90
 -14  -4   9    6.60   20.60
  14  -4  -9    6.20   18.50
  12  -4  -9   31.70   19.30
  12  -4  -9   -5.30   16.70
 -12  -4   9   22.80   20.80
 -12  -4   9   12.60   15.10
 -10  -4   9  280.57   30.30
  10  -4  -9  234.18   27.80
  10  -4  -9  313.47   27.90
 -10  -4   9  274.57   25.30
  -8  -4   9    9.20   19.80
   8  -4  -9   33.20   18.20
  -8  -4   9    5.70   16.60
   8  -4  -9   25.90   20.80
  -6  -4   9  163.78   23.50
   6  -4  -9  176.98   26.60
   6  -4  -9  178.48   24.30
   4  -4  -9  440.66   35.80
   4  -4  -9  365.06   29.90
  -4  -4   9  344.97   32.00
  -2  -4   9   -2.20   18.80
   2  -4  -9   -1.80   21.30
   2  -4  -9   -9.60   17.00
   0  -4  -9    2.40   15.10
   0  -4   9   21.50   20.40
   0  -4  -9    5.00   23.70
  -2  -4  -9   14.90   16.80
   2  -4   9  -20.40   20.50
  -2  -4  -9  -16.90   25.60
   4  -4   9   84.49   26.30
  -4  -4  -9  123.49   30.40
  -4  -4  -9  126.09   20.30
   6  -4   9   55.89   26.40
  -6  -4  -9   83.29   30.80
  -6  -4  -9   71.29   18.30
   8  -4   9   10.70   25.90
  -8  -4  -9  -15.00   28.00
  -8  -4  -9   20.30   15.00
 -10  -4  -9  -25.50   27.40
  10  -4   9    5.10   27.80
  12  -4   9   74.09   30.90
 -12  -4  -9   42.60   29.30
  14  -4   9   67.39   30.80
 -14  -4  -9   67.49   32.20
  16  -4   9    7.60   29.80
 -16  -4  -9   69.09   30.30
  18  -4   9   53.19   33.50
 -18  -4  -9   93.49   33.00
 -20  -4  -9  108.49   34.60
  20  -4   9  112.09   37.60
  22  -4   9   29.70   32.10
 -22  -4  -9   36.20   31.90
 -24  -4  -9    5.70   31.50
  24  -4   9    9.80   37.30
 -26  -4  -9  -13.30   31.70
  26  -4   9  -11.80   35.20
 -28  -4  -9   -2.40   35.30
  28  -4   9   -0.40   38.80
 -30  -4  -9   64.69   38.20
 -39  -5   9   67.59   31.80
  37  -5  -9   81.99   29.50
 -37  -5   9  -22.00   24.10
 -35  -5   9   29.30   32.20
  35  -5  -9   19.70   27.00
 -35  -5   9   33.20   22.20
 -33  -5   9  101.09   31.80
  33  -5  -9   74.79   29.10
 -33  -5   9   87.19   23.70
 -31  -5   9   49.30   29.50
  31  -5  -9   84.79   28.60
 -31  -5   9   76.89   22.40
  29  -5  -9   33.70   25.90
 -29  -5   9    2.90   28.50
 -27  -5   9   20.60   26.70
  27  -5  -9   32.30   24.80
 -25  -5   9  -22.80   22.90
  25  -5  -9   36.00   24.70
  23  -5  -9  197.18   31.40
 -23  -5   9  191.28   33.20
  21  -5  -9  210.48   32.00
 -21  -5   9  244.78   35.50
 -19  -5   9  -10.10   23.10
  19  -5  -9   -1.90   20.80
  17  -5  -9   11.10   20.90
 -17  -5   9   29.60   25.50
  15  -5  -9  -34.30   18.60
 -15  -5   9   13.10   24.00
  13  -5  -9  344.17   35.00
 -13  -5   9  461.55   42.00
  11  -5  -9  191.88   28.10
 -11  -5   9  259.67   33.70
   9  -5  -9   -1.00   23.40
  -9  -5   9   17.30   23.20
   9  -5  -9   42.50   21.70
   7  -5  -9  -10.00   18.60
   7  -5  -9   15.20   25.20
  -7  -5   9   17.80   23.40
  -7  -5   9   11.50   21.50
  -5  -5   9  134.19   26.90
  -5  -5   9  137.09   28.10
   5  -5  -9   98.99   27.30
   5  -5  -9  148.69   26.10
   3  -5  -9  409.46   35.40
  -3  -5   9  334.87   36.70
  -3  -5   9  343.37   35.20
   3  -5  -9  441.86   41.40
   1  -5  -9    9.90   19.80
  -1  -5   9   -0.30   22.50
  -1  -5   9    3.40   23.50
   1  -5  -9  -22.50   26.90
  -1  -5  -9  -17.50   29.90
  -1  -5  -9   32.10   18.90
   1  -5   9   35.40   23.80
   1  -5   9    5.00   26.10
  -3  -5  -9   34.50   29.90
  -3  -5  -9  -16.60   17.20
   3  -5   9   28.30   26.50
  -5  -5  -9  248.58   40.80
   5  -5   9  206.88   36.00
   7  -5   9  116.09   32.10
  -7  -5  -9  121.09   35.40
   9  -5   9   84.39   32.70
  -9  -5  -9   70.29   32.30
  11  -5   9  162.48   38.20
 -11  -5  -9  183.48   38.70
 -13  -5  -9   99.09   34.40
  13  -5   9  106.89   35.90
  15  -5   9  239.48   42.40
 -15  -5  -9  277.07   43.50
 -17  -5  -9  209.38   42.40
  17  -5   9  219.18   42.90
 -19  -5  -9    8.00   33.00
  19  -5   9   47.40   36.30
 -21  -5  -9   19.20   32.60
  21  -5   9  -16.50   32.40
  23  -5   9   72.39   43.00
 -23  -5  -9  109.69   40.00
  25  -5   9  136.29   45.50
 -25  -5  -9  215.58   46.80
 -27  -5  -9   64.59   42.00
 -36  -6   9   18.10   24.20
 -36  -6   9  -15.60   33.30
 -34  -6   9   35.00   35.80
 -34  -6   9   11.10   23.70
  34  -6  -9   21.70   29.20
 -32  -6   9   10.80   22.90
  32  -6  -9   27.10   27.90
 -32  -6   9  -15.80   32.00
  30  -6  -9   66.69   28.80
 -30  -6   9   31.00   32.70
  28  -6  -9   79.09   30.20
 -28  -6   9   16.10   29.50
  26  -6  -9  -14.90   22.90
 -26  -6   9   18.70   31.00
  24  -6  -9   99.69   29.10
 -24  -6   9   42.80   33.30
  22  -6  -9   15.80   24.90
 -22  -6   9  -31.50   29.30
  20  -6  -9   48.90   26.00
 -20  -6   9    4.80   28.50
  18  -6  -9   29.30   23.50
 -18  -6   9   50.29   29.00
  16  -6  -9   34.90   22.80
 -16  -6   9   59.49   29.30
  14  -6  -9   41.00   22.70
 -14  -6   9   25.60   27.50
  12  -6  -9    6.20   22.60
 -12  -6   9   31.30   26.00
 -10  -6   9  107.09   29.50
  10  -6  -9  106.49   26.30
   8  -6  -9   -0.90   20.50
  -8  -6   9   24.40   24.30
   8  -6  -9   15.00   29.30
   6  -6  -9   -2.10   28.20
   6  -6  -9   23.60   22.60
  -6  -6   9   19.90   23.40
   4  -6  -9   39.40   22.00
  -4  -6   9   27.50   24.30
   4  -6  -9   59.99   31.40
  -4  -6   9   18.40   24.70
  -2  -6   9   20.80   25.50
   2  -6  -9   65.89   23.20
  -2  -6   9   42.70   24.90
   2  -6  -9   27.40   30.80
   0  -6  -9   11.30   29.60
   0  -6   9   -8.70   23.60
   0  -6   9    9.30   26.50
   0  -6  -9  -13.50   19.20
   2  -6   9    7.40   23.50
   2  -6   9   28.00   26.90
  -2  -6  -9   34.60   34.30
   4  -6   9  146.69   30.50
  -4  -6  -9  123.89   36.70
   4  -6   9  101.39   32.50
   6  -6   9   45.80   25.80
  -6  -6  -9   22.70   36.00
   6  -6   9   30.50   32.80
  -8  -6  -9   64.99   35.60
   8  -6   9   30.90   25.00
   8  -6   9   16.70   32.40
  10  -6   9   25.90   33.90
 -10  -6  -9    6.60   37.30
  10  -6   9   18.90   24.50
  12  -6   9  235.68   43.40
 -12  -6  -9  241.38   45.00
 -14  -6  -9  110.79   38.80
  14  -6   9   86.79   37.70
  16  -6   9   32.60   37.30
 -16  -6  -9   77.79   37.70
 -18  -6  -9   54.49   38.70
  18  -6   9  -15.10   35.20
 -20  -6  -9   33.20   39.90
  20  -6   9   49.90   40.90
 -22  -6  -9   38.80   39.50
 -24  -6  -9   17.10   38.00
 -31  -7   9   41.40   38.00
 -29  -7   9  -46.30   32.10
  29  -7  -9   13.60   34.10
 -27  -7   9   -3.80   34.00
  27  -7  -9   66.69   31.10
  25  -7  -9   73.99   28.70
 -25  -7   9   16.10   34.70
  23  -7  -9   40.40   27.30
 -23  -7   9   72.89   39.00
  21  -7  -9   27.80   24.80
 -21  -7   9   11.80   32.70
 -19  -7   9  117.89   37.40
  19  -7  -9   95.69   26.70
 -17  -7   9   11.40   31.90
  17  -7  -9   30.10   23.20
 -15  -7   9  140.09   36.30
  15  -7  -9  102.49   26.70
  13  -7  -9   16.20   22.40
 -13  -7   9   -0.60   29.90
 -11  -7   9  114.99   33.70
  11  -7  -9   88.89   25.40
  -9  -7   9   -5.80   27.60
   9  -7  -9    7.80   23.60
  -7  -7   9   -2.90   27.60
   7  -7  -9  -20.50   20.50
   5  -7  -9   47.30   33.70
   5  -7  -9   15.90   23.30
  -5  -7   9    6.20   28.60
   3  -7  -9  502.95   50.19
  -3  -7   9  333.57   44.10
   1  -7  -9   80.59   37.70
  -1  -7   9   80.49   31.10
  -1  -7  -9    6.30   33.00
   1  -7   9   34.00   28.30
   1  -7   9  -31.40   29.20
   3  -7   9    0.80   27.40
  -3  -7  -9   20.40   36.30
   3  -7   9   -1.10   31.50
  -5  -7  -9  202.38   43.10
   5  -7   9  182.78   35.30
   5  -7   9  140.49   36.50
  -7  -7  -9   39.10   39.20
   7  -7   9    6.10   32.50
   7  -7   9   26.40   27.80
   9  -7   9   92.69   38.30
   9  -7   9   33.00   27.90
  -9  -7  -9   12.20   37.80
  11  -7   9   20.80   28.10
  11  -7   9   -6.90   33.20
 -11  -7  -9   55.19   41.90
 -13  -7  -9   85.89   42.10
  13  -7   9   52.59   32.40
  13  -7   9   18.10   35.20
 -15  -7  -9   51.29   41.50
  15  -7   9  -57.89   34.20
  15  -7   9   31.00   29.50
  17  -7   9   98.99   44.60
 -17  -7  -9   78.89   42.70
  17  -7   9   74.09   34.50
 -19  -7  -9   11.00   43.50
 -24  -8   9  -27.30   36.50
  22  -8  -9   55.79   28.10
 -22  -8   9  -10.00   36.40
  20  -8  -9   88.29   28.90
 -20  -8   9  -36.90   34.80
 -18  -8   9   -7.90   38.70
  18  -8  -9    9.80   25.00
 -16  -8   9   30.60   38.60
  16  -8  -9   66.79   27.40
 -14  -8   9   14.40   36.20
  14  -8  -9   36.00   24.20
 -12  -8   9   14.00   33.60
  12  -8  -9   51.69   26.30
  10  -8  -9   64.79   26.90
 -10  -8   9   65.09   37.50
  -8  -8   9   34.90   36.20
  -6  -8   9   26.50   34.10
  -4  -8   9  -64.59   28.70
   2  -8  -9   37.70   38.20
  -2  -8   9  -20.20   30.10
   0  -8   9   42.60   32.70
   0  -8  -9   27.80   39.30
   2  -8   9    8.80   33.40
  -2  -8  -9   11.10   40.60
   4  -8   9   61.89   34.00
  -4  -8  -9   84.89   44.40
   6  -8   9   -0.10   30.80
  -6  -8  -9   13.20   42.80
   6  -8   9   45.30   35.30
   8  -8   9   31.90   38.40
  -8  -8  -9    6.20   44.30
   8  -8   9  -15.20   31.30
 -10  -8  -9    5.40   42.50
  10  -8   9  -14.80   37.50
  10  -8   9   17.90   35.40
  12  -8   9  -22.80   37.30
  12  -8   9   22.70   32.90
 -12  -8  -9   59.19   46.30
 -11  -9   9   -6.90   38.50
  -9  -9   9  -17.60   37.70
  -7  -9   9   55.79   40.50
  -5  -9   9  -30.00   37.20
  -3  -9   9   -2.60   37.70
  -1  -9   9  -43.60   34.60
 -46   0  10  -29.10   28.40
 -44   0  10  -25.20   25.30
 -42   0  10  153.58   34.40
 -40   0  10  350.76   42.60
 -38   0  10   40.70   25.00
 -36   0  10  -17.30   17.50
 -34   0  10  -18.00   20.30
 -32   0  10  380.26   38.60
  30   0 -10  329.97   27.50
 -30   0  10  389.96   36.00
  28   0 -10   27.10   15.40
 -28   0  10   11.30   17.10
  24   0 -10  249.68   23.00
 -24   0  10  197.78   25.60
 -22   0  10 2524.75   96.39
  22   0 -10 2379.56   91.19
 -20   0  10  187.78   22.00
  20   0 -10  239.38   21.10
 -20   0  10  214.18   15.70
  18   0 -10 1923.11   72.89
 -18   0  10 1847.72   74.69
 -18   0  10 1883.81   67.79
  16   0 -10  806.32   36.30
 -16   0  10  750.82   37.80
 -16   0  10  780.42   31.60
 -14   0  10  118.19   15.10
  14   0 -10  116.39   14.90
 -12   0  10 2665.13   95.09
  12   0 -10 2676.63   97.19
  10   0 -10   32.10    9.90
 -10   0  10   25.10    8.10
  -8   0  10 6153.48  200.68
   8   0 -10 6016.10  208.88
   6   0 -10 2185.48   82.59
  -6   0  10 2243.78   76.49
  -4   0  10  774.02   29.40
   4   0 -10  766.72   35.70
   0   0 -10    7.00   10.50
   0   0 -10   -7.50    9.50
  -2   0 -10   43.10   14.00
  -2   0 -10   38.00   13.40
  -4   0 -10  567.74   35.10
  -4   0 -10  642.24   34.10
  -6   0 -10  835.52   43.70
   6   0  10  736.53   40.30
   8   0  10   66.49   18.10
 -12   0 -10    2.40   11.50
  12   0  10  105.29   23.70
 -14   0 -10  637.14   45.10
  14   0  10  577.24   40.60
 -16   0 -10  540.25   47.80
  16   0  10  511.25   40.20
  18   0  10  135.49   27.80
 -18   0 -10  122.99   28.40
 -20   0 -10   19.30   22.20
  20   0  10  -12.80   21.80
  22   0  10  132.39   32.30
 -22   0 -10  142.69   32.70
  24   0  10  482.85   48.10
 -24   0 -10  454.05   50.79
 -26   0 -10   25.70   30.70
 -28   0 -10   40.40   30.50
 -30   0 -10   18.90   27.80
 -32   0 -10  111.19   35.60
 -47  -1  10   97.29   37.60
 -47   1  10  154.78   40.20
 -45  -1  10    3.40   25.40
 -45   1  10   16.50   29.50
 -43  -1  10   -7.20   22.00
 -43   1  10    4.60   27.10
 -41  -1  10    6.80   21.50
 -41   1  10    3.10   22.50
 -39  -1  10    8.60   21.30
 -39   1  10   11.10   25.20
 -37  -1  10   42.60   22.80
 -37   1  10   60.69   24.30
 -35  -1  10  244.28   32.60
  35  -1 -10  198.38   27.30
 -35   1  10  214.98   33.10
  33  -1 -10   41.10   18.80
 -33  -1  10   72.39   24.30
 -33   1  10   96.89   23.60
  31  -1 -10   73.59   19.60
 -31  -1  10   78.29   25.10
 -31   1  10   76.29   22.30
 -29  -1  10   23.50   18.60
  29  -1 -10   21.40   16.40
 -29   1  10   14.70   18.90
  27  -1 -10  280.37   28.20
 -27   1  10  218.18   28.50
  25  -1 -10   98.39   19.00
  25   1 -10  127.19   16.30
 -25   1  10  109.59   23.70
  23  -1 -10  542.75   32.80
 -23  -1  10  543.95   30.60
 -23  -1  10  575.74   37.00
  23   1 -10  497.85   27.70
 -23   1  10  549.85   38.50
 -21  -1  10    0.10   11.80
  21  -1 -10   11.90   12.50
 -21  -1  10   21.30   14.70
 -21   1  10    5.60   15.90
  21   1 -10    8.80    9.30
 -19  -1  10 1710.73   65.99
 -19  -1  10 1798.42   70.39
  19  -1 -10 1676.23   68.89
  19   1 -10 1710.83   65.39
 -19   1  10 1747.33   71.49
 -17  -1  10  912.81   42.40
  17  -1 -10  925.91   42.60
 -17  -1  10  938.51   39.30
 -17   1  10  852.91   42.50
  17   1 -10  934.51   38.60
 -15  -1  10  511.85   27.80
 -15  -1  10  513.25   25.80
  15  -1 -10  495.15   28.30
 -15   1  10  453.25   27.30
  15   1 -10  457.45   23.90
 -13  -1  10 1015.90   42.30
 -13  -1  10 1053.59   43.10
  13  -1 -10  976.50   44.30
  13   1 -10  991.70   41.20
 -13   1  10  930.11   42.50
  11  -1 -10  230.38   20.30
 -11   1  10  222.08   18.40
  11   1 -10  218.48   16.30
   9  -1 -10   20.10   10.70
   9  -1 -10   21.10    7.20
   9   1 -10   16.80    9.00
  -9   1  10   17.40    8.70
   7  -1 -10 2180.48   81.39
  -7   1  10 2200.88   76.39
   7   1 -10 2281.07   82.99
   5  -1 -10 1796.92   70.69
  -5   1  10 1830.92   62.69
   5   1 -10 1872.21   70.69
   3  -1 -10  493.05   26.70
   3  -1 -10  447.76   26.40
   3   1 -10  421.76   25.90
   1  -1 -10   59.39   13.20
   1  -1 -10   39.70   13.00
   1   1 -10   45.30   12.50
   1  -1  10  150.38   18.00
  -1  -1 -10  207.08   21.80
  -1  -1 -10  236.08   19.90
  -3  -1 -10  631.04   32.30
  -3  -1 -10  521.35   34.30
  -5  -1 -10  222.68   26.00
  -5  -1 -10  194.48   21.30
   5  -1  10  185.68   22.90
  -7  -1 -10 1016.60   49.99
  -7  -1 -10 1158.88   56.29
   7  -1  10 1104.19   52.89
   9  -1  10  110.09   22.30
   9   1  10  106.99   19.60
  11  -1  10  562.74   39.50
  11   1  10  552.44   36.80
  13  -1  10   14.60   21.30
 -13  -1 -10    8.10    8.80
  13   1  10   25.10   19.10
 -15  -1 -10   16.60   22.00
  15  -1  10   21.60   22.70
  15   1  10    3.30   19.60
 -17  -1 -10  206.28   32.80
  17  -1  10  262.97   35.30
  17   1  10  265.27   31.10
 -19  -1 -10  149.09   29.40
  19  -1  10  141.59   31.00
  19   1  10  147.19   28.00
  21  -1  10   64.59   29.90
 -21  -1 -10   70.09   27.60
  21   1  10   52.99   24.80
  23  -1  10  178.18   36.10
 -23  -1 -10  191.48   34.60
 -25  -1 -10   80.59   31.80
  25  -1  10   -1.80   30.70
 -27  -1 -10  160.98   37.40
  27  -1  10  132.69   38.60
  29  -1  10   34.50   34.00
 -29  -1 -10   72.39   32.30
 -31  -1 -10   52.79   32.50
 -33  -1 -10   12.80   32.80
 -46  -2  10    3.80   32.60
 -46   2  10   42.90   33.50
 -44  -2  10   24.70   30.50
 -44   2  10   68.49   32.40
 -42  -2  10  207.28   38.70
 -42   2  10  171.48   35.40
 -40  -2  10   43.80   28.40
 -40   2  10   32.30   24.30
  38  -2 -10   33.60   23.20
 -38  -2  10   -1.60   21.30
 -38   2  10    6.10   26.00
  36  -2 -10  447.46   41.60
 -36  -2  10  369.36   43.00
 -36   2  10  345.17   43.00
 -34  -2  10  218.98   35.20
  34  -2 -10  305.07   35.40
 -34   2  10  311.97   37.40
 -32  -2  10  586.54   46.30
  32  -2 -10  669.03   43.60
 -32   2  10  598.94   46.50
 -30  -2  10 1466.15   72.99
  30  -2 -10 1514.55   70.79
 -30   2  10 1559.94   75.09
  28  -2 -10   54.19   22.50
 -28  -2  10   54.69   18.70
 -28   2  10   58.49   22.40
  26  -2 -10  168.58   26.90
 -26  -2  10  188.58   25.10
 -26   2  10  232.08   31.80
 -24  -2  10   63.89   19.60
  24  -2 -10   36.60   19.10
 -24   2  10  105.49   24.60
 -22  -2  10 1060.59   49.30
  22  -2 -10 1080.19   51.99
 -22   2  10 1027.30   53.29
 -20  -2  10   -6.20   14.10
  20  -2 -10   48.80   17.30
 -20  -2  10   17.30   15.00
 -20   2  10   14.40   14.80
  20   2 -10   23.80    9.00
 -18  -2  10  299.27   24.60
  18  -2 -10  325.07   26.80
 -18   2  10  364.26   28.70
 -16  -2  10  196.48   19.80
  16  -2 -10  187.58   22.70
 -16   2  10  206.38   21.90
  14  -2 -10 3282.77  120.59
 -14  -2  10 3263.27  120.59
 -14   2  10 3284.87  116.29
  12  -2 -10    3.70    5.30
  12  -2 -10    9.90    7.00
 -12  -2  10   13.80   11.80
 -12   2  10    8.80   10.50
  12   2 -10   12.40    7.10
  10  -2 -10  832.32   34.50
 -10   2  10  788.32   35.30
  10   2 -10  796.82   35.90
   8  -2 -10  364.86   24.50
   8  -2 -10  328.97   21.60
  -8   2  10  308.47   18.80
   8   2 -10  312.87   22.00
  -6  -2  10  429.46   26.10
   6  -2 -10  447.36   27.10
   4  -2 -10   35.40   13.50
  -4  -2  10   31.90   13.60
   4  -2 -10   62.69   14.90
  -2  -2  10 3566.14  133.49
   2  -2 -10 3781.72  137.09
   2  -2 -10 3772.62  133.39
   0  -2  10  551.84   32.80
   0  -2 -10  538.65   31.40
   0  -2 -10  532.45   35.20
  -2  -2 -10  843.52   46.20
   2  -2  10  863.21   44.10
  -2  -2 -10  861.21   41.00
  -4  -2 -10    0.40   17.60
  -4  -2 -10   21.40   14.00
   4  -2  10   -1.00   14.80
  -6  -2 -10 2426.66   93.89
  -6  -2 -10 2516.15  102.39
   8  -2  10   -0.90    6.70
  -8  -2 -10   32.00   22.90
  -8  -2 -10   65.59   16.40
 -10  -2 -10  132.09   26.00
  10  -2  10  112.79   25.30
 -10  -2 -10   95.99   19.60
  12  -2  10  407.76   39.10
 -12  -2 -10  240.68   31.70
  12   2  10  338.47   30.60
 -14  -2 -10  180.38   32.70
  14  -2  10  202.58   33.20
  14   2  10  221.08   26.80
  16  -2  10   74.29   28.40
 -16  -2 -10   54.59   24.40
  16   2  10   71.99   20.70
 -18  -2 -10  187.08   32.80
  18  -2  10  190.08   35.70
 -20  -2 -10  164.18   32.60
  20  -2  10  210.98   36.60
 -22  -2 -10  342.47   41.80
  22  -2  10  357.86   46.70
  24  -2  10  101.49   35.40
 -24  -2 -10   88.59   31.70
  26  -2  10  283.17   47.10
 -26  -2 -10  350.56   45.60
  28  -2  10   63.89   38.70
 -28  -2 -10   91.69   33.00
 -30  -2 -10   29.00   29.80
  30  -2  10  -15.80   33.30
 -32  -2 -10   71.49   34.10
  32  -2  10  -15.30   37.60
 -45  -3  10   55.79   31.60
 -45   3  10   -1.40   32.20
 -43  -3  10  -17.30   28.90
 -43   3  10    1.20   31.50
 -41  -3  10  -31.30   27.40
  41  -3 -10   84.59   29.40
 -41   3  10   49.20   29.20
  39  -3 -10   15.60   24.00
 -39  -3  10   -0.90   26.00
 -39   3  10    3.20   25.50
  37  -3 -10   43.20   24.30
 -37  -3  10   18.10   22.50
 -37   3  10   25.60   24.90
 -35  -3  10  200.88   33.40
  35  -3 -10  214.78   33.20
 -35   3  10  154.08   32.10
 -33  -3  10   17.00   22.00
  33  -3 -10   -8.60   20.20
 -33   3  10   -6.80   25.40
  31  -3 -10   43.00   23.30
 -31  -3  10   70.69   23.60
 -31   3  10   35.20   26.40
 -29  -3  10   68.19   24.10
  29  -3 -10   73.19   24.00
 -29  -3  10   49.99   18.60
 -29   3  10   66.59   27.70
 -27  -3  10   21.60   21.80
 -27  -3  10    8.20   15.30
  27  -3 -10   34.80   21.70
 -27   3  10   45.80   22.70
 -25  -3  10   49.20   22.70
 -25  -3  10   42.00   19.60
  25  -3 -10   40.10   22.20
 -25   3  10   33.00   23.40
 -23  -3  10  107.49   23.20
  23  -3 -10  103.89   24.60
 -23   3  10   80.09   24.60
 -21  -3  10   11.60   17.70
  21  -3 -10  -14.00   18.00
 -21   3  10   19.30   20.60
 -19  -3  10   22.70   17.60
  19  -3 -10   10.00   17.90
 -19   3  10   -6.90   17.10
 -17  -3  10  100.29   20.20
 -17  -3  10   85.29   13.50
 -17   3  10  104.29   17.80
  15  -3 -10    5.50    3.80
 -15  -3  10   -3.50   15.40
 -15  -3  10   20.00   11.00
 -13  -3  10   42.10   17.00
 -13  -3  10   56.89   13.60
  13  -3 -10   79.29   19.10
  13  -3 -10   50.39   12.90
 -11  -3  10   11.40   15.50
 -11  -3  10   20.90   12.20
  11  -3 -10   35.20   13.70
  11  -3 -10   16.00   15.60
   9  -3 -10    0.80    6.10
  -9  -3  10    3.70   15.30
   9  -3 -10    9.30   14.10
  -9  -3  10   11.40   12.50
  -7  -3  10 1249.47   53.09
   7  -3 -10 1269.87   55.59
   7  -3 -10 1180.78   54.29
   5  -3 -10   12.90   14.50
   5  -3 -10  -15.50   16.00
  -5  -3  10    1.90   13.50
  -3  -3  10   19.40   15.20
   3  -3 -10    0.30   17.20
   3  -3 -10   17.40   13.90
   1  -3 -10  852.51   41.90
   1  -3 -10  790.22   47.40
  -1  -3  10  754.72   42.90
  -1  -3 -10   47.80   23.50
   1  -3  10    7.30   17.40
  -1  -3 -10   21.60   15.80
  -3  -3 -10  323.77   26.70
  -3  -3 -10  276.27   32.90
   3  -3  10  230.68   29.10
  -5  -3 -10  674.63   36.90
  -5  -3 -10  584.64   46.50
   5  -3  10  636.04   43.30
  -7  -3 -10  489.85   43.70
  -7  -3 -10  503.55   32.60
  -9  -3 -10  206.98   34.60
  -9  -3 -10  233.18   24.20
 -11  -3 -10  761.32   40.50
 -11  -3 -10  765.72   54.89
  11  -3  10  750.32   52.49
  13  -3  10   18.20   26.40
 -13  -3 -10   18.80   16.00
 -13  -3 -10  -28.90   20.60
 -15  -3 -10   17.10   24.60
  15  -3  10    3.60   26.60
 -17  -3 -10   50.99   26.80
  17  -3  10   72.59   30.90
  19  -3  10  153.18   37.10
 -19  -3 -10  115.89   32.40
  21  -3  10  227.98   42.90
 -21  -3 -10  153.38   34.60
 -23  -3 -10    4.40   29.70
  23  -3  10   26.10   33.80
 -25  -3 -10   27.70   29.40
  25  -3  10  -12.90   33.90
 -27  -3 -10   90.69   34.20
  27  -3  10   59.99   38.20
 -29  -3 -10  -17.00   30.00
  29  -3  10   13.00   38.30
 -31  -3 -10   -0.30   31.30
 -42  -4  10   51.49   33.80
  42  -4 -10   58.49   30.40
  40  -4 -10  154.38   35.10
 -40  -4  10   95.59   34.20
 -38  -4  10    5.00   21.40
  38  -4 -10   49.60   29.10
 -36  -4  10   17.00   24.40
  36  -4 -10   74.09   28.70
  34  -4 -10   -2.70   24.00
 -34  -4  10   23.90   20.30
 -32  -4  10  177.78   33.60
  32  -4 -10  202.58   34.40
 -30  -4  10   -2.00   16.20
  30  -4 -10   32.70   24.60
 -30  -4  10   33.60   25.30
 -28  -4  10  114.59   23.10
  28  -4 -10  132.59   29.00
 -28  -4  10  114.39   28.30
 -26  -4  10  113.79   28.10
  26  -4 -10  107.89   27.00
 -24  -4  10  228.28   31.70
  24  -4 -10  159.78   29.30
 -22  -4  10  270.27   31.80
  22  -4 -10  254.07   32.40
 -20  -4  10   98.39   24.90
  20  -4 -10   36.10   21.70
  18  -4 -10  119.89   21.10
  16  -4 -10   13.90   19.00
 -16  -4  10   77.99   23.40
  14  -4 -10  121.29   24.00
 -14  -4  10  204.28   28.80
 -12  -4  10 1713.83   74.99
  12  -4 -10 1594.14   71.49
 -12  -4  10 1585.84   66.29
 -10  -4  10   48.30   21.50
  10  -4 -10   34.80   20.50
  10  -4 -10   43.30   20.40
 -10  -4  10   42.30   18.10
  -8  -4  10   28.90   20.30
   8  -4 -10    5.50   20.00
  -8  -4  10   -4.30   16.70
   8  -4 -10  -51.19   16.90
   6  -4 -10   20.00   20.90
  -6  -4  10   26.00   19.20
   6  -4 -10   -4.50   18.10
  -6  -4  10   13.20   12.50
  -4  -4  10  616.44   40.00
   4  -4 -10  562.94   43.40
   4  -4 -10  613.94   37.90
   2  -4 -10    1.80   22.50
   2  -4 -10    1.70   18.00
  -2  -4  10   26.60   20.90
   0  -4 -10  100.79   28.80
   0  -4  10   54.39   24.70
   0  -4 -10   35.80   19.00
   2  -4  10  261.97   33.90
  -2  -4 -10  262.17   35.30
  -2  -4 -10  326.47   28.70
   4  -4  10  350.96   37.80
  -4  -4 -10  415.36   41.90
  -4  -4 -10  360.96   29.80
  -6  -4 -10  121.19   21.10
   6  -4  10   95.79   29.40
  -6  -4 -10   69.49   31.20
   8  -4  10   58.29   29.80
  -8  -4 -10   89.59   19.00
  -8  -4 -10  106.59   34.20
 -10  -4 -10  373.46   43.70
  10  -4  10  408.46   44.40
 -12  -4 -10   31.90   28.40
  12  -4  10    5.00   28.50
 -14  -4 -10  301.17   42.10
  14  -4  10  347.17   45.30
 -16  -4 -10  760.82   58.99
  16  -4  10  850.71   62.79
 -18  -4 -10   18.40   29.40
  18  -4  10   -5.30   31.80
  20  -4  10   13.50   33.90
 -20  -4 -10  -21.80   30.10
  22  -4  10  148.09   42.00
 -22  -4 -10  114.99   36.60
  24  -4  10  196.28   45.90
 -24  -4 -10  198.88   43.00
 -26  -4 -10   37.80   33.50
  26  -4  10    7.30   37.60
 -28  -4 -10   46.70   37.10
 -39  -5  10  -21.30   25.20
  37  -5 -10  124.99   33.40
 -37  -5  10   63.59   29.20
 -35  -5  10    8.80   31.90
  35  -5 -10   72.69   29.30
 -35  -5  10   28.20   24.70
  33  -5 -10   64.19   28.90
 -33  -5  10   16.90   30.20
 -33  -5  10   15.00   19.00
 -31  -5  10  100.69   24.00
  31  -5 -10  104.59   30.40
 -31  -5  10   74.89   30.00
  29  -5 -10   30.40   26.00
 -29  -5  10   10.50   29.00
  27  -5 -10   34.70   24.30
 -27  -5  10  -27.70   24.30
 -25  -5  10  135.69   32.70
  25  -5 -10  112.59   28.60
 -23  -5  10   26.80   25.10
  23  -5 -10   48.80   24.70
 -21  -5  10   76.09   27.10
  21  -5 -10   84.19   25.10
 -19  -5  10  556.24   45.30
  19  -5 -10  526.35   41.40
  17  -5 -10   12.60   21.20
 -17  -5  10   10.40   23.70
 -15  -5  10   44.20   25.90
  15  -5 -10   18.30   21.40
  13  -5 -10  -11.60   21.10
 -13  -5  10   24.90   24.90
  11  -5 -10   88.49   24.20
 -11  -5  10  130.99   28.80
   9  -5 -10   13.90   20.30
   9  -5 -10   53.39   26.20
  -9  -5  10    7.20   23.90
  -9  -5  10   14.60   20.80
  -7  -5  10   23.10   23.10
  -7  -5  10   39.60   24.10
   7  -5 -10    8.90   26.60
   7  -5 -10    9.10   21.40
   5  -5 -10  131.49   30.90
  -5  -5  10   97.19   27.10
   5  -5 -10  108.89   24.20
  -5  -5  10   91.99   26.10
   3  -5 -10    8.70   26.20
   3  -5 -10   21.20   21.40
  -3  -5  10   -3.70   25.00
  -3  -5  10  -10.00   21.90
   1  -5 -10  145.59   32.90
  -1  -5  10  133.39   28.10
   1  -5 -10  151.88   25.10
  -1  -5  10  106.69   28.10
  -1  -5 -10  122.99   33.30
   1  -5  10   85.89   28.80
  -1  -5 -10  138.59   23.40
   1  -5  10   96.99   27.30
   3  -5  10  181.08   34.30
  -3  -5 -10  161.78   24.10
  -3  -5 -10  176.38   36.20
   5  -5  10    2.40   26.70
  -5  -5 -10   -8.50   29.40
  -7  -5 -10   48.70   31.20
   7  -5  10  -33.20   25.60
   9  -5  10   70.69   32.40
  -9  -5 -10  136.19   36.20
 -11  -5 -10   85.79   35.40
  11  -5  10   41.50   33.10
 -13  -5 -10   70.69   34.50
  13  -5  10  111.59   38.80
  15  -5  10   48.30   34.70
 -15  -5 -10   32.60   34.10
  17  -5  10  106.69   39.00
 -17  -5 -10  108.89   37.20
 -19  -5 -10   84.79   35.70
  19  -5  10   95.89   39.60
  21  -5  10  -64.49   35.00
 -21  -5 -10   -6.80   31.60
 -23  -5 -10  150.78   42.20
  23  -5  10   96.19   42.20
 -25  -5 -10   53.99   37.80
 -36  -6  10   17.40   25.40
 -36  -6  10   -7.00   33.00
 -34  -6  10   11.30   35.70
 -34  -6  10   63.29   27.40
  34  -6 -10   92.99   33.40
  32  -6 -10    7.70   27.80
 -32  -6  10  -17.70   17.40
 -32  -6  10   41.70   35.10
 -30  -6  10  135.19   36.00
  30  -6 -10  116.89   32.70
  28  -6 -10   70.79   28.80
 -28  -6  10  -20.00   29.00
  26  -6 -10  135.79   31.20
 -26  -6  10   81.99   34.30
 -24  -6  10   -2.40   30.40
  24  -6 -10   16.90   23.70
 -22  -6  10  104.69   33.80
  22  -6 -10  136.19   29.20
 -20  -6  10    5.30   29.10
  20  -6 -10    4.40   22.30
  18  -6 -10  165.38   30.00
 -18  -6  10  226.78   37.60
  16  -6 -10   46.80   23.40
 -16  -6  10   37.70   27.80
  14  -6 -10  486.35   41.00
 -14  -6  10  499.95   47.90
 -12  -6  10  -24.40   23.60
  12  -6 -10   -8.40   20.60
  10  -6 -10  240.28   31.80
 -10  -6  10  243.48   35.90
  -8  -6  10  154.78   31.30
   8  -6 -10  137.09   27.70
   6  -6 -10   66.99   30.60
  -6  -6  10   94.69   28.40
   6  -6 -10   62.19   22.60
   4  -6 -10   55.39   32.60
  -4  -6  10   27.10   26.10
  -4  -6  10   53.09   26.80
   4  -6 -10   40.40   21.80
  -2  -6  10  419.06   42.80
   2  -6 -10  530.55   38.90
  -2  -6  10  416.96   42.50
   2  -6 -10  427.96   47.30
   0  -6 -10   39.10   21.20
   0  -6  10   72.29   30.70
   0  -6 -10   22.80   33.30
   0  -6  10   50.59   25.90
   2  -6  10   72.79   27.10
   2  -6  10  104.79   33.60
  -2  -6 -10   88.69   37.40
   4  -6  10   -3.90   29.10
   4  -6  10   11.10   25.80
  -4  -6 -10   25.10   35.40
   6  -6  10  384.46   41.30
   6  -6  10  337.97   45.50
  -6  -6 -10  456.45   51.39
  -8  -6 -10   -4.10   34.10
   8  -6  10   21.00   25.50
   8  -6  10    9.10   31.70
  10  -6  10   67.69   34.70
 -10  -6 -10   56.89   36.70
  12  -6  10    6.10   33.30
 -12  -6 -10   58.49   36.90
  14  -6  10  206.78   46.40
 -14  -6 -10  239.98   45.50
  16  -6  10    3.50   37.50
 -16  -6 -10  -12.00   35.70
  18  -6  10  136.49   46.70
 -18  -6 -10  105.19   42.30
 -20  -6 -10   21.90   38.90
  20  -6  10   -4.10   38.90
 -22  -6 -10  130.89   44.80
 -31  -7  10  -45.80   31.90
 -29  -7  10   98.09   38.50
 -27  -7  10   41.50   36.30
  27  -7 -10   89.99   31.30
  25  -7 -10   60.19   27.10
 -25  -7  10  -18.50   32.00
 -23  -7  10   64.39   36.90
  23  -7 -10   42.70   25.80
  21  -7 -10   43.40   24.80
 -21  -7  10   -4.30   32.40
  19  -7 -10   -5.10   23.50
 -19  -7  10  -24.10   32.30
 -17  -7  10  -25.70   29.80
  17  -7 -10  -10.60   23.50
 -15  -7  10  235.08   40.30
  13  -7 -10   23.40   23.50
 -13  -7  10   63.09   33.10
  11  -7 -10   54.19   25.70
 -11  -7  10  -11.10   27.30
   9  -7 -10   42.80   25.90
  -9  -7  10   68.59   31.40
  -7  -7  10  136.79   34.30
   7  -7 -10  184.98   30.70
  -5  -7  10  -20.30   27.10
   5  -7 -10   40.40   24.50
  -3  -7  10   -1.00   27.30
   3  -7 -10   17.20   34.70
   1  -7 -10  274.67   45.60
  -1  -7  10  159.88   36.50
   1  -7  10  -50.49   23.70
  -1  -7 -10   71.89   38.60
   1  -7  10  -20.80   29.60
   3  -7  10   17.70   31.90
   3  -7  10   12.30   26.20
  -3  -7 -10  -10.60   36.70
   5  -7  10   -9.80   31.50
   5  -7  10  108.29   32.30
  -5  -7 -10  145.99   43.80
   7  -7  10  165.38   35.40
  -7  -7 -10  142.89   45.30
   7  -7  10  119.29   39.90
   9  -7  10   70.89   36.20
   9  -7  10  -38.90   25.40
  -9  -7 -10   16.10   38.70
  11  -7  10   10.90   27.50
  11  -7  10    3.20   35.40
 -11  -7 -10   -0.10   38.20
  13  -7  10   28.30   30.50
 -13  -7 -10   39.50   40.60
  13  -7  10   39.80   39.40
  15  -7  10   58.59   31.50
  15  -7  10  -43.70   36.80
 -15  -7 -10    7.80   42.50
 -17  -7 -10   13.20   41.30
  17  -7  10   -1.00   27.90
 -24  -8  10  -51.29   36.60
  22  -8 -10   72.29   31.30
 -22  -8  10   52.59   41.90
  20  -8 -10   26.80   25.20
 -20  -8  10  -39.20   35.80
  18  -8 -10    0.00   22.70
 -18  -8  10  -19.50   34.00
  16  -8 -10   22.80   24.00
 -16  -8  10    0.80   33.50
 -14  -8  10   48.30   36.70
  14  -8 -10   74.39   28.70
  12  -8 -10   41.30   26.90
 -12  -8  10    3.60   34.40
  10  -8 -10   35.60   27.70
 -10  -8  10   -2.70   32.60
  -8  -8  10   14.30   34.00
  -6  -8  10   56.69   38.30
  -4  -8  10   60.39   36.70
  -2  -8  10   35.80   34.70
   0  -8 -10   -5.10   40.10
   0  -8  10   -5.10   31.80
   2  -8  10    4.30   31.50
  -2  -8 -10   25.90   42.00
   4  -8  10   35.80   34.50
  -4  -8 -10  -16.90   39.80
  -6  -8 -10   29.20   41.80
   6  -8  10   20.00   34.10
   6  -8  10   24.20   38.00
   8  -8  10  -29.30   34.10
  -8  -8 -10   59.29   45.90
   8  -8  10   41.80   36.20
 -10  -8 -10   38.90   46.00
  10  -8  10   14.10   39.20
  10  -8  10  -10.40   32.10
 -46   0  11   17.90   28.30
 -44   0  11   39.70   28.40
 -42   0  11  -17.60   24.90
 -40   0  11   27.10   22.80
 -38   0  11  -30.00   20.70
 -36   0  11   -7.40   21.30
 -34   0  11  -28.60   18.30
 -32   0  11   34.30   19.00
  30   0 -11   18.10   15.40
 -30   0  11   23.00   18.00
  28   0 -11    5.90   14.30
 -28   0  11  -12.10   18.50
  26   0 -11    5.30   13.30
 -26   0  11  -12.40   17.80
  24   0 -11   -6.20   11.70
 -24   0  11    0.00   14.20
 -22   0  11  -12.40   14.70
  22   0 -11   -0.70   11.30
  20   0 -11    1.30   10.40
 -20   0  11    0.00   13.90
 -20   0  11   -6.90    9.00
  18   0 -11    9.90   10.30
 -18   0  11   -3.30   10.50
 -18   0  11    6.60    7.80
  16   0 -11    9.30   10.20
 -16   0  11    2.20    7.30
 -16   0  11   -7.30   10.20
  14   0 -11   11.40    9.80
 -14   0  11   19.70   10.40
  12   0 -11   37.90   11.10
 -12   0  11   23.80   10.30
 -10   0  11   18.50    8.80
  10   0 -11    1.70    9.40
   8   0 -11   14.20    9.90
  -8   0  11    0.80    6.90
   6   0 -11    6.70    9.40
  -6   0  11    4.00    6.10
  -4   0  11   15.90    6.00
   4   0 -11   10.70    9.30
   2   0 -11   15.40   10.00
   2   0 -11   -3.60    3.20
   0   0 -11   -1.20   10.60
   0   0 -11   -7.70    9.80
  -2   0 -11   -9.10   10.90
  -2   0 -11    9.20   12.50
  -4   0 -11    1.50   12.50
  -4   0 -11  -15.40   12.50
  -6   0 -11    9.00   15.80
   6   0  11  -10.90   14.40
   8   0  11  -21.60   16.10
  -8   0 -11    4.10    5.20
  10   0  11   15.20   18.50
 -10   0 -11    6.30    4.80
 -12   0 -11    7.80   15.20
  12   0  11  -14.40   18.60
  14   0  11   -6.30   20.00
 -14   0 -11    5.70   20.30
  16   0  11  -12.00   19.20
 -16   0 -11    9.50   21.20
  18   0  11    3.10   23.30
 -18   0 -11   32.60   23.80
  20   0  11   13.10   25.00
 -20   0 -11   27.00   24.60
  22   0  11   62.09   28.70
 -22   0 -11    5.60   24.50
 -24   0 -11  -18.00   24.90
  24   0  11   18.50   27.60
 -26   0 -11   -3.40   26.70
 -28   0 -11  -31.10   25.30
 -30   0 -11   54.49   32.90
 -32   0 -11   45.30   33.30
 -47  -1  11  -29.70   29.40
 -47   1  11   13.40   31.20
 -45  -1  11   12.20   29.50
 -45   1  11   -9.30   27.10
 -43  -1  11  -36.20   24.30
 -43   1  11   -6.40   22.50
 -41  -1  11  320.37   42.30
 -41   1  11  352.06   44.60
 -39  -1  11   73.49   27.90
 -39   1  11   41.90   23.80
 -37  -1  11   53.79   25.20
 -37   1  11   29.60   24.10
  35  -1 -11   36.30   18.00
 -35  -1  11   10.90   21.60
 -35   1  11   48.40   21.30
  33  -1 -11  740.73   43.60
 -33  -1  11  726.53   49.99
 -33   1  11  727.23   48.40
  31  -1 -11  261.77   28.20
 -31  -1  11  238.28   31.40
 -31   1  11  305.07   35.70
 -29  -1  11  117.39   23.60
  29  -1 -11  139.29   22.80
 -29   1  11  140.69   28.30
  27  -1 -11  512.45   35.10
 -27  -1  11  451.75   39.60
 -27   1  11  457.45   37.00
 -25  -1  11  229.28   28.10
  25  -1 -11  255.77   26.50
  25   1 -11  229.38   20.80
 -25   1  11  208.08   27.40
  23  -1 -11  493.85   32.50
 -23  -1  11  536.55   31.00
 -23  -1  11  525.05   34.90
 -23   1  11  565.44   39.00
  23   1 -11  532.85   28.40
 -21  -1  11 2240.98   83.49
  21  -1 -11 2107.59   86.59
 -21  -1  11 2315.47   88.09
  21   1 -11 2185.88   82.99
 -21   1  11 2296.77   89.49
 -19  -1  11  283.47   20.40
  19  -1 -11  282.67   23.60
 -19  -1  11  313.77   25.80
  19   1 -11  305.57   20.80
 -19   1  11  322.87   28.00
  17  -1 -11   85.89   15.90
 -17  -1  11   73.49   15.10
 -17  -1  11   97.29   13.60
 -17   1  11   70.39   16.20
  17   1 -11   88.19   13.70
 -15  -1  11   19.90   10.40
 -15  -1  11   18.70    9.40
  15  -1 -11    9.90   11.20
  15   1 -11   43.40   10.40
 -15   1  11   11.50   11.60
 -13  -1  11 3846.62  132.79
  13  -1 -11 3726.43  136.79
  13   1 -11 3863.31  135.19
 -13   1  11 3856.41  132.99
  11  -1 -11   45.10   12.60
  11   1 -11   43.70   10.90
 -11   1  11   44.40   11.40
   9  -1 -11   29.30    8.60
   9  -1 -11   14.00   11.40
  -9   1  11   35.90    9.70
   9   1 -11   28.50   10.50
   5  -1 -11 3754.22  131.89
   5  -1 -11 3591.94  131.79
   5   1 -11 3609.54  131.29
  -5   1  11 3682.23  120.99
   3  -1 -11 2247.38   85.79
   3  -1 -11 2216.08   86.19
   3   1 -11 2284.97   86.29
   1  -1 -11   16.90   12.30
   1  -1 -11   33.30   13.00
   1   1 -11   31.50   12.20
  -1  -1 -11  316.37   24.60
  -1  -1 -11  292.57   25.00
  -3  -1 -11  147.59   19.80
  -3  -1 -11  184.78   23.70
  -5  -1 -11 1003.00   52.09
  -5  -1 -11 1063.79   48.40
   5  -1  11  958.60   49.60
  -7  -1 -11 1124.79   52.49
   7  -1  11 1092.09   55.09
  -7  -1 -11 1138.29   58.09
   9  -1  11  216.18   29.10
   9   1  11  208.98   26.40
 -11  -1 -11    9.00    5.00
  11  -1  11  -16.10   18.80
  11   1  11   -5.70   16.40
  13  -1  11   25.60   23.00
 -13  -1 -11   -1.50   17.90
  13   1  11   40.60   21.20
 -15  -1 -11  555.34   47.80
  15  -1  11  540.45   46.40
  15   1  11  514.85   39.90
 -17  -1 -11   96.19   27.30
  17  -1  11  102.99   30.10
  17   1  11  115.89   25.40
 -19  -1 -11    5.60   21.70
  19  -1  11   57.89   26.70
  19   1  11  -37.80   20.30
  21  -1  11   39.40   28.30
 -21  -1 -11   59.59   27.50
  21   1  11   20.10   25.40
  23  -1  11  337.27   44.40
 -23  -1 -11  423.36   48.20
  25  -1  11  309.67   46.40
 -25  -1 -11  302.37   43.00
  27  -1  11   11.40   32.00
 -27  -1 -11   39.10   30.00
 -29  -1 -11   74.19   33.90
 -31  -1 -11   -1.70   31.00
 -46  -2  11   -4.70   31.10
 -46   2  11  -21.60   29.40
 -44  -2  11   29.40   26.50
 -44   2  11   57.39   33.70
 -42  -2  11   -6.60   26.10
 -42   2  11  -17.80   26.20
 -40  -2  11   -3.70   25.70
 -40   2  11    0.80   25.60
 -38  -2  11  -12.30   24.50
  38  -2 -11   16.20   20.90
 -38   2  11   15.70   22.50
 -36  -2  11  -53.59   16.90
  36  -2 -11   19.80   21.00
 -36   2  11   31.40   26.30
  34  -2 -11    9.10   18.50
 -34  -2  11  -30.90   19.20
 -34   2  11   24.80   21.00
  32  -2 -11   12.90   18.10
 -32  -2  11   -1.10   19.90
 -32   2  11   28.30   24.10
  30  -2 -11   39.70   19.70
 -30  -2  11   42.90   21.20
 -30   2  11   26.10   24.10
  28  -2 -11   24.90   18.80
 -28  -2  11   16.10   16.10
 -28   2  11  -30.00   17.40
  26  -2 -11    0.60   16.70
 -26  -2  11  -11.10   18.60
 -26  -2  11   -5.30   17.40
 -26   2  11   10.30   21.20
 -24  -2  11    7.70   15.80
  24  -2 -11   70.59   20.30
 -24  -2  11   67.29   20.00
 -24   2  11   33.30   21.10
  22  -2 -11  388.96   32.80
 -22  -2  11  310.37   29.90
 -22  -2  11  327.77   27.50
 -22   2  11  279.07   31.00
 -20  -2  11  161.38   19.70
  20  -2 -11  149.09   22.90
 -20  -2  11  130.19   19.40
  20   2 -11   82.49   10.90
 -20   2  11  202.28   25.40
 -18  -2  11  185.48   19.90
  18  -2 -11  195.18   23.50
 -18   2  11  163.18   22.30
  18   2 -11  168.48   15.60
  16  -2 -11    1.90   14.10
 -16  -2  11   -3.40   11.50
 -16   2  11   17.10   12.60
  16   2 -11    4.30    8.90
  14  -2 -11  125.69   19.00
  14  -2 -11  134.39   10.60
 -14  -2  11  129.89   18.20
  14   2 -11  144.89   15.50
 -14   2  11  110.39   15.80
  12  -2 -11  129.29   11.80
 -12  -2  11  119.89   18.40
 -12   2  11  115.69   15.10
  12   2 -11  112.29   14.80
  10  -2 -11  239.08   17.30
  10  -2 -11  181.38   20.30
 -10   2  11  219.38   17.40
  10   2 -11  253.37   18.80
   8  -2 -11  213.78   21.50
   8   2 -11  210.28   20.30
   6  -2 -11   48.00   13.70
   6  -2 -11   54.29   14.70
  -6  -2  11   51.19   14.20
  -4  -2  11  187.28   21.40
   4  -2 -11  205.38   21.20
   4  -2 -11  236.28   23.50
   2  -2 -11  329.97   27.30
   2  -2 -11  328.57   25.00
  -2  -2  11  337.37   25.90
   0  -2  11   15.00   15.20
   0  -2 -11  -13.60   11.40
   0  -2 -11   23.60   18.00
  -2  -2 -11  117.89   18.40
   2  -2  11   82.09   19.80
  -2  -2 -11   95.19   22.10
  -4  -2 -11  194.68   28.30
  -4  -2 -11  232.78   24.60
  -6  -2 -11   35.30   15.10
  -6  -2 -11   47.60   22.70
   8  -2  11   -1.90    7.30
  -8  -2 -11   23.70   22.60
  -8  -2 -11   70.29   17.90
 -10  -2 -11   28.20   24.40
  10  -2  11   57.19   24.60
 -10  -2 -11   38.60   18.70
 -12  -2 -11   44.20   25.70
  12  -2  11   80.79   26.70
  12   2  11   38.10   19.70
  14  -2  11  108.39   29.70
 -14  -2 -11  101.09   27.40
  14   2  11   85.39   21.80
  16  -2  11   30.80   26.60
 -16  -2 -11   69.29   25.30
  16   2  11   11.60   18.90
  18  -2  11   24.40   27.20
 -18  -2 -11   -3.30   22.10
 -20  -2 -11  -14.00   23.30
  20  -2  11   14.60   28.50
 -22  -2 -11   21.70   28.10
  22  -2  11   -7.10   29.30
  24  -2  11   27.90   35.10
 -24  -2 -11   63.89   31.10
 -26  -2 -11   34.80   29.20
  26  -2  11   32.60   34.50
  28  -2  11    0.20   34.20
 -28  -2 -11   45.30   33.10
  30  -2  11   16.40   39.00
 -30  -2 -11   20.60   33.50
 -45  -3  11   32.90   35.10
 -45   3  11    2.90   32.00
 -43  -3  11   26.00   32.30
 -43   3  11   42.50   32.90
 -41  -3  11  170.58   38.20
  41  -3 -11  202.58   34.60
 -41   3  11  130.69   37.20
 -39  -3  11  -20.90   20.70
  39  -3 -11   48.80   24.70
 -39   3  11    6.50   28.80
  37  -3 -11   61.89   25.60
 -37  -3  11   15.10   24.90
 -37   3  11   68.89   31.70
 -35  -3  11  -23.70   21.00
  35  -3 -11  -14.40   20.20
 -35   3  11    1.30   22.60
  33  -3 -11  167.18   31.30
 -33  -3  11  139.39   28.20
 -33   3  11  110.99   31.70
  31  -3 -11  218.98   30.70
 -31  -3  11  157.88   26.90
 -31   3  11  172.08   34.00
 -29  -3  11   59.49   23.00
 -29  -3  11   24.00   17.20
  29  -3 -11   48.90   23.50
 -29   3  11   25.50   24.90
 -27  -3  11  116.89   23.80
 -27  -3  11  161.08   25.70
  27  -3 -11   94.79   24.00
 -27   3  11  122.09   26.00
 -25  -3  11   50.79   23.30
 -25  -3  11   66.89   18.80
  25  -3 -11   76.79   22.80
 -25   3  11   41.50   21.00
  23  -3 -11  118.89   25.00
 -23  -3  11  102.39   22.90
 -23   3  11  180.78   28.70
 -21  -3  11  333.37   31.50
  21  -3 -11  358.66   33.80
 -21   3  11  335.37   33.60
  19  -3 -11    0.40   15.90
 -19  -3  11   17.20   18.60
 -19   3  11   11.40   17.30
 -17  -3  11   23.20   12.30
  17  -3 -11   12.00    5.80
 -17  -3  11   -5.30   17.50
 -17   3  11   22.10   15.70
 -15  -3  11  418.36   26.40
 -15  -3  11  436.16   31.90
 -13  -3  11 1176.08   48.90
 -13  -3  11 1100.69   54.09
 -11  -3  11  290.27   24.70
 -11  -3  11  383.56   30.20
  11  -3 -11  334.17   29.50
   9  -3 -11   18.80   16.30
  -9  -3  11   -4.60   13.00
   9  -3 -11   29.70   15.30
  -9  -3  11    2.90   16.20
   7  -3 -11  705.33   38.60
  -7  -3  11  692.93   37.90
   7  -3 -11  666.03   39.30
   5  -3 -11  998.90   50.09
  -5  -3  11 1102.19   49.80
   5  -3 -11  993.40   48.50
  -3  -3  11 1020.40   49.00
   3  -3 -11  955.40   47.40
   3  -3 -11  963.70   52.09
  -1  -3  11  217.08   26.70
   1  -3 -11  277.37   26.70
   1  -3 -11  304.37   32.40
  -1  -3 -11  400.86   37.20
   1  -3  11  378.56   35.80
  -1  -3 -11  364.76   30.30
   3  -3  11    6.60   20.20
  -3  -3 -11   14.80   23.10
  -3  -3 -11   -2.90   15.90
  -5  -3 -11  722.63   49.20
  -5  -3 -11  680.23   39.30
   5  -3  11  631.54   45.40
   7  -3  11  482.75   43.20
  -7  -3 -11  391.06   31.10
  -7  -3 -11  406.16   42.20
   9  -3  11  290.37   38.00
  -9  -3 -11  285.97   38.70
  -9  -3 -11  301.47   28.50
  11  -3  11    0.90   24.90
 -11  -3 -11   31.00   17.30
 -11  -3 -11   29.10   26.20
  13  -3  11  915.71   59.99
 -13  -3 -11  905.91   47.90
 -13  -3 -11  932.31   59.69
 -15  -3 -11  845.82   58.19
  15  -3  11  859.51   60.09
  17  -3  11   26.10   29.90
 -17  -3 -11   19.50   27.10
  19  -3  11   25.60   32.00
 -19  -3 -11   39.90   27.90
  21  -3  11    2.00   33.10
 -21  -3 -11   11.10   26.90
  23  -3  11  182.18   43.20
 -23  -3 -11  216.88   39.10
  25  -3  11  196.78   45.10
 -25  -3 -11  162.58   38.30
  27  -3  11   14.80   39.70
 -27  -3 -11   39.70   32.20
 -29  -3 -11   27.60   33.30
  29  -3  11  -16.50   44.70
  42  -4 -11   21.20   29.10
 -42  -4  11  -26.20   28.60
  40  -4 -11   49.20   28.40
 -40  -4  11   26.70   28.90
  38  -4 -11   49.00   29.30
 -38  -4  11   46.00   28.20
 -38   4  11   31.40   27.90
 -36  -4  11   49.00   26.10
  36  -4 -11   72.19   29.20
 -36   4  11   50.19   31.60
 -34  -4  11   25.00   19.70
  34  -4 -11   89.89   30.10
 -34   4  11   24.00   30.30
 -32  -4  11  -48.60   23.20
 -32  -4  11   -1.60   19.70
  32  -4 -11   12.10   24.90
 -32   4  11   14.40   24.50
 -30  -4  11  -16.90   23.70
  30  -4 -11   27.50   23.90
 -30  -4  11   -8.80   18.90
  28  -4 -11   17.90   21.80
 -28  -4  11   13.30   24.10
 -28  -4  11    3.30   18.20
  26  -4 -11    4.80   21.30
 -26  -4  11    1.30   24.10
 -24  -4  11   13.50   22.50
  24  -4 -11    1.60   19.70
  22  -4 -11   99.69   25.10
 -22  -4  11  115.09   27.10
 -20  -4  11   16.70   23.40
  20  -4 -11   22.40   19.90
 -18  -4  11   29.90   24.00
  18  -4 -11   42.00   22.10
 -16  -4  11  252.67   29.90
  16  -4 -11  197.18   28.00
 -14  -4  11   43.80   22.30
  14  -4 -11   52.09   21.30
 -12  -4  11   19.60   21.20
 -12  -4  11   28.40   17.70
  12  -4 -11   24.70   20.10
 -10  -4  11   54.09   19.70
  10  -4 -11   31.50   20.60
  10  -4 -11    8.20   20.10
 -10  -4  11   71.89   23.70
   8  -4 -11    7.80   19.90
  -8  -4  11   38.40   20.10
   8  -4 -11   37.40   21.50
  -8  -4  11   13.50   18.80
  -6  -4  11  -23.40   18.10
   6  -4 -11   14.20   23.10
  -6  -4  11    3.00   19.50
   6  -4 -11  -26.90   18.10
  -4  -4  11    5.70   21.60
   4  -4 -11   18.50   18.00
   4  -4 -11   23.50   25.00
  -2  -4  11   69.99   23.80
   2  -4 -11   33.20   26.70
   2  -4 -11   14.50   17.70
   0  -4  11   22.60   23.00
   0  -4 -11   17.60   19.60
   0  -4 -11   -0.30   27.30
   2  -4  11    9.80   23.70
  -2  -4 -11   14.60   18.40
  -2  -4 -11   65.09   29.60
  -4  -4 -11    9.70   28.20
   4  -4  11    4.20   24.30
  -4  -4 -11    5.30   17.30
   6  -4  11   13.10   25.50
  -6  -4 -11    9.70   16.30
  -6  -4 -11   30.70   30.50
  -8  -4 -11   87.09   18.70
  -8  -4 -11   92.69   32.40
   8  -4  11   54.59   28.50
 -10  -4 -11    8.50   27.30
  10  -4  11    2.60   26.90
 -12  -4 -11  131.19   34.00
  12  -4  11  113.19   33.20
 -14  -4 -11  121.49   34.00
  14  -4  11   71.79   32.80
 -16  -4 -11  131.29   35.70
  16  -4  11  147.79   38.10
  18  -4  11   94.19   37.20
 -18  -4 -11    5.30   28.70
 -20  -4 -11   -4.30   28.90
  20  -4  11    6.70   35.80
  22  -4  11   -0.10   36.70
 -22  -4 -11   18.70   31.00
  24  -4  11   -8.70   39.70
 -24  -4 -11  -39.30   29.80
  26  -4  11   86.39   44.60
 -26  -4 -11   49.50   37.00
 -28  -4 -11   46.00   35.20
 -39  -5  11   40.80   29.70
 -37  -5  11   -4.40   25.10
  37  -5 -11  126.19   34.50
 -35  -5  11    6.00   22.40
  35  -5 -11   27.20   26.60
 -33  -5  11   79.39   32.90
 -33  -5  11   76.99   23.70
  33  -5 -11  139.79   32.60
 -31  -5  11    2.50   20.50
  31  -5 -11   34.50   26.50
 -31  -5  11    5.50   26.60
 -29  -5  11   35.20   29.70
  29  -5 -11   77.39   28.60
 -27  -5  11   12.30   25.70
  27  -5 -11    7.30   22.90
 -25  -5  11  106.79   30.30
  25  -5 -11   93.29   26.30
  23  -5 -11  206.78   30.70
 -23  -5  11  120.79   30.90
  21  -5 -11  297.37   34.90
 -21  -5  11  312.97   36.90
 -19  -5  11   26.70   24.20
  19  -5 -11   -8.30   20.20
  17  -5 -11   88.09   24.30
 -17  -5  11  122.99   28.30
 -15  -5  11   77.19   26.20
  15  -5 -11   34.20   21.80
  13  -5 -11  338.97   34.20
 -13  -5  11  354.46   38.60
  11  -5 -11  133.19   25.80
 -11  -5  11  125.29   28.90
   9  -5 -11   23.80   20.90
  -9  -5  11   16.80   22.30
  -9  -5  11  -18.00   22.50
  -7  -5  11  167.78   28.00
   7  -5 -11  228.88   33.10
   7  -5 -11  156.78   26.50
  -7  -5  11  103.49   27.30
  -5  -5  11  248.98   33.40
  -5  -5  11  221.38   31.70
   5  -5 -11  270.17   34.90
   5  -5 -11  236.68   30.20
  -3  -5  11  103.69   28.10
   3  -5 -11  182.48   27.00
   3  -5 -11  138.29   33.90
  -3  -5  11  153.28   29.00
  -1  -5  11    1.20   23.70
  -1  -5  11   -4.00   21.00
   1  -5 -11   38.00   20.90
   1  -5 -11    4.50   28.00
  -1  -5 -11    7.80   18.50
  -1  -5 -11   -1.50   30.50
   1  -5  11    5.30   25.10
  -3  -5 -11   48.90   31.50
   3  -5  11   68.69   28.80
  -3  -5 -11   54.19   19.50
   5  -5  11  175.48   35.40
  -5  -5 -11  226.98   39.10
   7  -5  11   96.69   33.20
  -7  -5 -11  125.09   35.80
  -9  -5 -11    7.00   31.80
   9  -5  11   -8.10   30.10
 -11  -5 -11   -8.40   32.20
  11  -5  11   63.09   35.00
  13  -5  11   20.80   33.50
 -13  -5 -11    5.80   32.70
 -15  -5 -11  130.09   38.70
  15  -5  11  122.49   39.80
  17  -5  11   92.79   40.20
 -17  -5 -11  130.49   38.00
  19  -5  11  -36.20   32.20
 -19  -5 -11  -21.70   30.80
 -21  -5 -11   79.89   37.00
  21  -5  11  -12.00   39.00
 -23  -5 -11  -15.20   34.10
 -25  -5 -11  149.29   45.30
 -36  -6  11  120.89   40.00
 -36  -6  11   68.09   28.30
 -34  -6  11   19.80   21.50
 -34  -6  11   -5.70   33.40
  34  -6 -11   64.79   31.40
  32  -6 -11   29.00   27.30
 -32  -6  11   22.60   23.70
 -32  -6  11  -14.90   32.60
 -30  -6  11  -23.40   30.80
  30  -6 -11   13.10   25.60
 -28  -6  11   10.40   29.00
  28  -6 -11   32.50   25.20
 -26  -6  11   36.70   30.60
  26  -6 -11   86.89   27.60
 -24  -6  11   -0.90   30.00
  24  -6 -11   35.00   24.20
 -22  -6  11    9.20   31.20
  22  -6 -11  -12.80   21.70
  20  -6 -11   78.89   27.20
 -20  -6  11  152.98   34.50
  18  -6 -11   -4.40   23.10
 -18  -6  11  -47.70   25.40
 -16  -6  11  -23.50   26.50
  16  -6 -11   32.70   23.40
  14  -6 -11  138.99   27.70
 -14  -6  11  104.59   31.10
  12  -6 -11  183.08   29.50
 -12  -6  11  199.68   33.60
  10  -6 -11  122.99   27.70
 -10  -6  11  175.48   32.50
   8  -6 -11   49.99   23.90
  -8  -6  11   30.20   25.20
   6  -6 -11  126.19   26.50
   6  -6 -11  228.18   37.30
  -6  -6  11  110.59   30.10
  -4  -6  11    6.80   24.30
   4  -6 -11   26.80   21.70
   4  -6 -11   31.70   32.30
  -4  -6  11  -13.90   25.70
   2  -6 -11    1.20   18.60
  -2  -6  11    5.60   25.60
  -2  -6  11  -14.70   23.30
   2  -6 -11   12.20   32.30
   0  -6  11   41.20   25.60
   0  -6  11   23.60   28.00
   0  -6 -11   53.49   35.60
   2  -6  11   42.10   33.00
  -2  -6 -11  -12.40   32.20
   2  -6  11   62.99   29.80
   4  -6  11   18.70   24.50
  -4  -6 -11   35.00   34.30
   4  -6  11   26.90   32.90
   6  -6  11   41.50   26.80
   6  -6  11   37.60   34.30
  -6  -6 -11  -32.30   33.20
   8  -6  11  128.69   38.40
 -10  -6 -11   22.50   37.00
  10  -6  11    2.70   36.30
  12  -6  11    2.80   34.80
 -12  -6 -11   81.89   39.50
 -14  -6 -11   68.29   39.30
  14  -6  11   21.70   36.70
  16  -6  11  -37.80   33.70
 -16  -6 -11   43.50   41.30
  18  -6  11    9.10   39.00
 -18  -6 -11   74.99   40.80
 -20  -6 -11   31.00   39.70
 -31  -7  11   60.09   38.40
 -29  -7  11    4.90   35.30
  27  -7 -11    7.20   25.40
 -27  -7  11  -22.90   33.00
  25  -7 -11   57.99   27.50
 -25  -7  11   -7.60   34.30
 -23  -7  11   42.90   36.00
  23  -7 -11   79.99   29.20
 -21  -7  11   46.90   33.70
  21  -7 -11   56.19   26.70
  19  -7 -11   -6.10   22.40
 -19  -7  11    8.90   33.60
 -17  -7  11  -21.60   28.90
  17  -7 -11    5.00   23.30
 -15  -7  11   33.40   32.40
  15  -7 -11   30.40   23.50
 -13  -7  11  152.08   36.10
  13  -7 -11  197.18   30.50
 -11  -7  11  -36.50   29.50
  11  -7 -11  -15.90   20.90
  -9  -7  11    1.40   29.50
   9  -7 -11   30.50   22.50
  -7  -7  11  -18.60   26.60
   7  -7 -11   30.50   23.20
  -5  -7  11  114.19   33.40
   5  -7 -11  133.69   30.80
   3  -7 -11   36.40   36.90
  -3  -7  11   24.30   28.80
   1  -7 -11   87.79   36.90
  -1  -7  11  106.19   32.70
  -1  -7 -11   15.10   34.70
   1  -7  11   -5.30   26.90
   1  -7  11   -9.60   31.80
   3  -7  11    9.50   33.80
  -3  -7 -11   27.00   39.60
   3  -7  11   33.80   28.30
   5  -7  11   22.00   36.00
   5  -7  11   46.50   29.30
  -5  -7 -11   94.89   42.30
   7  -7  11  141.99   34.50
  -7  -7 -11  173.88   43.90
   7  -7  11   48.40   37.20
   9  -7  11   10.30   31.30
   9  -7  11  -20.00   33.50
  -9  -7 -11   55.09   40.00
 -11  -7 -11   61.49   42.90
  11  -7  11  -70.49   33.10
  11  -7  11   36.40   30.20
 -13  -7 -11   36.80   41.70
  13  -7  11    7.10   42.70
  13  -7  11   16.60   29.50
 -15  -7 -11  -19.90   43.20
  15  -7  11   90.69   34.20
 -24  -8  11  -58.79   37.90
 -22  -8  11  -13.70   38.30
  20  -8 -11   38.90   26.30
 -20  -8  11  -25.90   36.60
  18  -8 -11   30.00   26.00
 -18  -8  11  -15.20   35.40
  16  -8 -11   39.70   27.50
 -16  -8  11   66.29   37.60
  14  -8 -11    5.90   22.90
 -14  -8  11   19.90   35.00
 -12  -8  11  -30.00   31.60
  12  -8 -11    3.60   26.30
 -10  -8  11   -4.00   32.70
  -8  -8  11   33.60   36.50
  -6  -8  11   -2.90   32.10
  -4  -8  11   42.00   34.20
  -2  -8  11  -19.80   33.40
   0  -8 -11   49.20   41.90
   0  -8  11   32.40   33.10
  -2  -8 -11  117.29   44.30
   2  -8  11   17.20   35.40
  -4  -8 -11   86.69   47.50
   4  -8  11   19.60   33.10
   6  -8  11  -13.90   34.90
  -6  -8 -11   -8.60   43.70
   6  -8  11    2.80   35.50
   8  -8  11  -14.00   37.10
  -8  -8 -11   44.30   43.80
   8  -8  11   10.20   33.10
 -46   0  12  250.87   42.50
 -44   0  12  -16.50   22.20
 -42   0  12  -13.00   20.30
 -40   0  12  682.93   54.39
 -38   0  12   77.69   28.10
 -36   0  12  123.79   28.70
 -34   0  12  136.29   26.50
 -32   0  12 1165.18   61.39
 -30   0  12   -9.20   16.30
  30   0 -12    0.20   14.00
 -28   0  12   10.60   20.30
  28   0 -12   12.30   14.30
 -26   0  12  489.65   39.10
  26   0 -12  492.55   31.80
  24   0 -12 2858.11  108.29
 -24   0  12 2906.41  112.19
  22   0 -12  281.27   23.80
 -22   0  12  286.17   29.20
  20   0 -12  818.12   39.90
 -20   0  12  851.61   43.20
  18   0 -12 2703.33  101.19
 -18   0  12 2676.43   96.99
 -18   0  12 2845.62  102.79
  16   0 -12  461.65   27.80
 -16   0  12  467.55   28.60
  14   0 -12   35.70   11.80
 -14   0  12   40.30   11.60
 -12   0  12 3529.75  123.99
  12   0 -12 3598.84  128.49
  10   0 -12 1121.09   48.50
 -10   0  12 1110.39   44.90
  -8   0  12  183.48   14.60
   8   0 -12  224.88   21.40
   6   0 -12  255.17   20.80
  -6   0  12  235.38   14.90
   4   0 -12 2940.31  109.19
  -4   0  12 2933.41   98.49
   2   0 -12    0.70    4.80
   0   0 -12  153.58   20.00
   0   0 -12  155.08   20.20
  -2   0 -12  606.04   36.40
  -2   0 -12  605.94   35.30
   4   0  12 2426.26   97.09
  -4   0 -12 2410.16   96.79
  -4   0 -12 2538.95  100.39
   6   0  12  166.18   25.40
  -6   0 -12  151.18   25.40
   8   0  12  208.18   28.40
  10   0  12  456.95   39.50
 -12   0 -12   17.90   21.60
  12   0  12   -9.30   19.90
  14   0  12   14.30   21.10
 -14   0 -12   18.20   18.90
 -16   0 -12  948.81   59.39
  16   0  12  839.52   53.19
  18   0  12   36.20   26.50
 -18   0 -12   51.19   26.90
 -20   0 -12  281.77   41.60
  20   0  12  367.86   41.80
  22   0  12  -13.90   27.80
 -22   0 -12   13.40   28.50
 -24   0 -12  899.41   65.19
  24   0  12  960.70   65.39
 -26   0 -12  109.99   35.40
 -28   0 -12   29.20   28.30
 -30   0 -12  188.08   41.00
 -47  -1  12  -22.70   29.10
 -47   1  12   20.70   27.30
 -45  -1  12    1.00   27.70
 -45   1  12   -9.40   27.40
 -43  -1  12    7.20   23.00
 -43   1  12   -9.00   26.40
 -41  -1  12   10.10   25.30
 -41   1  12   -4.40   21.10
 -39  -1  12   -0.10   22.90
 -39   1  12    5.20   25.00
 -37  -1  12   73.99   26.90
 -37   1  12   88.09   27.50
 -35  -1  12   44.10   24.10
  35  -1 -12   14.10   17.70
 -35   1  12   11.60   19.10
  33  -1 -12   71.99   20.00
 -33  -1  12   25.30   22.30
 -33   1  12   16.20   24.00
 -31  -1  12   50.69   23.20
  31  -1 -12   20.20   17.30
 -31   1  12   65.19   24.30
 -29  -1  12    1.60   17.00
  29  -1 -12  -21.30   13.60
 -29   1  12    5.60   20.90
 -27  -1  12   40.60   21.10
  27  -1 -12   28.80   17.80
 -27   1  12   21.80   18.20
  27   1 -12   16.20   12.90
 -25  -1  12   -8.70   14.20
  25  -1 -12   12.30   15.20
  25   1 -12   15.10   11.30
 -25   1  12   -4.60   19.20
 -23  -1  12  369.56   32.50
  23  -1 -12  358.56   29.70
 -23   1  12  388.16   31.40
  23   1 -12  342.17   23.90
 -21  -1  12   77.09   14.40
  21  -1 -12   79.09   17.30
 -21  -1  12  119.59   20.00
 -21   1  12   57.79   16.90
  21   1 -12   96.59   14.90
 -19  -1  12  183.48   17.80
  19  -1 -12  214.58   23.10
 -19  -1  12  197.38   22.40
 -19   1  12  183.78   23.00
  19   1 -12  176.78   18.40
  17  -1 -12  274.77   25.20
 -17  -1  12  212.58   18.70
 -17  -1  12  200.38   21.20
 -17   1  12  216.78   22.70
  17   1 -12  213.08   19.70
 -15  -1  12    2.80   10.30
  15  -1 -12   36.60   13.30
 -15   1  12    6.00   11.60
  15   1 -12    5.70    8.90
 -13  -1  12  550.14   29.90
  13  -1 -12  565.14   31.70
 -13   1  12  579.14   30.50
  13   1 -12  570.54   29.50
  11  -1 -12    8.40   11.90
 -11   1  12   28.20   10.20
  11   1 -12   15.10   10.00
   9  -1 -12   31.50   13.00
   9  -1 -12    3.50    3.70
  -9   1  12   27.30    9.50
   9   1 -12   16.40   10.50
   7  -1 -12   16.10   10.20
   7   1 -12   14.30   10.70
  -7   1  12   24.10    7.60
   5  -1 -12 1327.47   55.59
   5  -1 -12 1282.37   54.39
   5   1 -12 1300.77   55.59
   3  -1 -12 1348.37   56.79
   3  -1 -12 1315.07   56.89
   3   1 -12 1271.97   56.49
   1  -1 -12  122.09   18.30
   1  -1 -12  118.39   18.00
   1   1 -12  100.09   17.80
  -1  -1 -12  127.59   20.80
  -1  -1 -12  103.19   18.70
   3  -1  12  297.97   24.40
  -3  -1 -12  389.56   27.90
  -3  -1 -12  398.26   31.30
  -5  -1 -12   -2.70   17.50
  -5  -1 -12   27.30   15.40
   5  -1  12   -1.20   16.30
  -7  -1 -12  -21.00   17.40
   7  -1  12   20.60   19.80
  -7  -1 -12   -3.90   15.20
   9  -1  12  885.61   51.29
  -9  -1 -12  812.92   51.79
   9   1  12  916.41   48.60
  11  -1  12  272.37   33.50
 -11  -1 -12  237.08   32.00
  11   1  12  280.67   30.90
 -13  -1 -12  108.09   26.10
  13  -1  12  166.98   31.30
  13   1  12  161.88   27.40
 -15  -1 -12  295.27   36.30
  15  -1  12  250.17   35.30
  15   1  12  238.28   32.30
  17  -1  12  134.19   31.90
 -17  -1 -12  162.78   31.60
  17   1  12  136.49   27.50
 -19  -1 -12  202.58   35.70
  19  -1  12  210.98   37.40
  19   1  12  241.38   35.20
  21  -1  12   70.09   33.10
 -21  -1 -12  102.09   32.90
  21   1  12   98.29   31.80
 -23  -1 -12  249.18   42.10
  23  -1  12  243.28   41.60
  25  -1  12   24.80   31.30
 -25  -1 -12   82.29   32.30
 -27  -1 -12   38.20   32.10
  27  -1  12  -26.10   33.50
 -29  -1 -12   23.50   34.30
 -46  -2  12    1.60   26.90
 -46   2  12  -19.40   30.80
 -44  -2  12    7.50   30.30
 -44   2  12   23.40   29.50
 -42  -2  12  111.69   34.90
 -42   2  12  168.78   37.30
 -40  -2  12   26.70   23.30
 -40   2  12   40.00   27.80
  38  -2 -12    7.20   20.40
 -38  -2  12   -9.40   25.70
 -38   2  12   10.90   25.70
  36  -2 -12  255.97   32.30
 -36  -2  12  215.98   33.10
 -36   2  12  228.48   37.90
 -34  -2  12   21.40   23.10
  34  -2 -12   20.40   20.30
 -34   2  12  -11.00   20.20
 -32  -2  12   74.39   24.50
  32  -2 -12  114.99   24.80
 -32   2  12  114.39   28.50
 -30  -2  12  156.18   27.90
  30  -2 -12  146.69   25.10
 -30   2  12  169.68   28.50
  28  -2 -12   61.29   20.30
 -28  -2  12   37.30   20.40
 -28   2  12   79.19   25.00
 -26  -2  12   30.90   19.00
 -26  -2  12   31.40   16.90
  26  -2 -12   26.70   18.90
 -26   2  12   38.40   19.70
 -24  -2  12  335.57   32.00
 -24  -2  12  338.57   29.20
  24  -2 -12  313.27   31.30
 -24   2  12  263.37   30.40
 -22  -2  12  671.93   40.80
 -22  -2  12  648.84   36.90
  22  -2 -12  681.03   40.90
  22   2 -12  644.74   32.50
 -22   2  12  725.23   44.00
 -20  -2  12  -21.50   13.60
  20  -2 -12   -6.40   15.40
 -20   2  12   -8.30   13.60
  20   2 -12    5.60   10.20
  18  -2 -12  283.37   27.60
 -18  -2  12  282.77   24.90
 -18   2  12  271.57   26.40
  18   2 -12  252.37   19.70
  16  -2 -12   -1.30   14.00
 -16  -2  12    4.60   11.80
 -16   2  12    8.30   13.20
  16   2 -12    2.10    9.70
 -14  -2  12 1752.82   72.49
  14  -2 -12 1808.22   74.39
  14  -2 -12 1823.62   67.59
 -14   2  12 1829.42   69.29
  14   2 -12 1754.72   69.79
  12  -2 -12  402.56   21.70
  12   2 -12  421.16   25.50
 -12   2  12  392.86   24.50
  10  -2 -12   72.39   15.30
 -10   2  12   65.79   12.10
  10   2 -12   58.09   14.00
   8  -2 -12  253.57   20.50
   8  -2 -12  265.97   25.20
   8   2 -12  253.37   21.50
  -6  -2  12  545.75   33.20
   6  -2 -12  643.44   33.30
   6  -2 -12  572.34   34.00
  -4  -2  12  901.11   46.50
   4  -2 -12 1013.70   46.90
   4  -2 -12 1006.70   46.80
   2  -2 -12 1057.09   49.00
   2  -2 -12 1072.59   51.79
  -2  -2  12 1001.50   49.60
   0  -2 -12  578.04   38.50
   0  -2  12  602.44   37.70
   0  -2 -12  653.63   35.90
  -2  -2 -12  451.35   36.30
  -2  -2 -12  471.35   31.40
   2  -2  12  450.35   34.30
  -4  -2 -12  435.96   31.30
  -4  -2 -12  459.65   40.30
  -6  -2 -12 2029.40   88.89
  -6  -2 -12 1946.51   80.79
  -8  -2 -12  119.59   22.90
  -8  -2 -12  148.19   29.50
   8  -2  12   93.59   25.80
 -10  -2 -12  121.59   21.90
 -10  -2 -12   92.59   27.80
  10  -2  12   55.09   26.70
  12  -2  12   63.29   27.70
 -12  -2 -12   30.80   24.00
  12   2  12   33.70   19.90
  14  -2  12 1417.16   75.89
 -14  -2 -12 1498.75   76.39
  14   2  12 1503.45   68.49
  16  -2  12   20.00   26.70
 -16  -2 -12    7.00   22.10
  16   2  12  -27.00   18.00
  18  -2  12  -16.10   28.50
 -18  -2 -12    7.30   25.50
 -20  -2 -12  150.88   34.00
  20  -2  12  150.88   39.30
  22  -2  12  288.77   46.20
 -22  -2 -12  248.58   40.30
  24  -2  12  149.88   40.00
 -24  -2 -12  198.68   38.70
 -26  -2 -12   48.30   31.40
  26  -2  12   74.79   41.20
 -28  -2 -12  -18.90   29.60
  28  -2  12   20.60   38.90
 -30  -2 -12   82.09   36.00
 -45  -3  12  -17.60   26.10
 -45   3  12   28.20   35.40
 -43  -3  12   14.90   31.10
 -43   3  12   23.30   28.50
 -41  -3  12   22.20   29.90
  41  -3 -12   96.19   27.90
 -41   3  12   41.10   32.80
 -39  -3  12   -6.50   25.80
  39  -3 -12   22.00   23.00
 -39   3  12  -60.99   25.80
 -37  -3  12   31.50   26.50
  37  -3 -12   78.89   26.80
 -37   3  12   -2.80   27.80
  35  -3 -12  367.56   38.30
 -35  -3  12  277.27   37.10
 -35   3  12  310.37   41.10
  33  -3 -12   19.90   22.30
 -33  -3  12   32.50   21.50
 -33   3  12   -0.10   26.60
 -31  -3  12   18.40   17.40
  31  -3 -12   34.90   20.80
 -31   3  12    1.10   24.70
  29  -3 -12   61.59   22.90
 -29  -3  12  110.09   24.10
 -29  -3  12   94.19   24.40
 -29   3  12   95.29   28.30
 -27  -3  12   43.30   17.60
  27  -3 -12   44.90   21.70
 -27  -3  12   63.19   23.10
 -27   3  12   85.49   26.90
 -25  -3  12    1.10   19.80
  25  -3 -12   30.70   20.70
 -25  -3  12   17.80   16.00
 -25   3  12   -7.60   21.90
  23  -3 -12   26.40   20.20
 -23  -3  12   19.80   20.10
 -23   3  12  -16.50   16.60
  21  -3 -12  364.66   34.90
 -21  -3  12  332.57   31.90
 -21   3  12  404.26   35.30
 -19  -3  12   39.60   19.40
  19  -3 -12   15.40   16.70
 -19   3  12    7.40   17.50
 -17  -3  12    0.40   12.30
 -17  -3  12   36.90   18.00
  17  -3 -12    9.60    5.80
 -17   3  12   44.20   16.30
 -15  -3  12  182.78   25.60
 -15  -3  12  184.28   20.40
 -13  -3  12  227.08   26.30
 -13  -3  12  243.58   22.70
  11  -3 -12  186.58   19.20
 -11  -3  12  151.18   19.90
 -11  -3  12  199.38   24.90
  11  -3 -12  159.98   23.70
   9  -3 -12  107.59   18.80
   9  -3 -12   98.79   20.10
  -9  -3  12   62.39   17.50
   7  -3 -12  930.61   47.00
   7  -3 -12  899.31   47.40
  -7  -3  12  985.60   46.80
   5  -3 -12   85.49   22.20
   5  -3 -12   90.19   19.90
  -5  -3  12   77.89   20.40
  -3  -3  12  362.76   32.80
   3  -3 -12  401.86   35.80
   3  -3 -12  407.36   30.60
  -1  -3  12  779.32   43.50
   1  -3 -12  607.84   43.70
   1  -3 -12  639.24   38.60
   1  -3  12  162.88   27.20
  -1  -3 -12  198.08   25.50
  -1  -3 -12  172.98   29.80
  -3  -3 -12  148.19   29.40
  -3  -3 -12  166.18   24.10
   3  -3  12  130.99   27.20
  -5  -3 -12  549.45   36.30
  -5  -3 -12  535.95   45.90
   5  -3  12  544.25   43.90
  -7  -3 -12  337.57   30.70
  -7  -3 -12  342.37   39.50
   7  -3  12  337.37   39.20
  -9  -3 -12  232.18   26.10
  -9  -3 -12  226.18   35.30
   9  -3  12  235.18   36.00
 -11  -3 -12   30.50   17.50
 -11  -3 -12   17.80   25.10
  11  -3  12   45.20   26.80
  13  -3  12   74.49   30.20
 -13  -3 -12   24.10   28.10
 -15  -3 -12  107.49   30.40
  15  -3  12  137.99   35.00
 -17  -3 -12   59.39   29.10
  17  -3  12   36.50   30.80
  19  -3  12   80.29   35.50
 -19  -3 -12   64.59   29.10
 -21  -3 -12  172.48   36.30
  21  -3  12  199.28   43.90
  23  -3  12  -11.10   34.50
 -23  -3 -12   -8.00   27.90
 -25  -3 -12    0.40   29.00
  25  -3  12  -83.29   32.60
  27  -3  12   23.20   39.30
 -27  -3 -12   51.99   34.80
 -42  -4  12   71.39   33.10
  42  -4 -12  116.39   31.50
 -42   4  12   45.40   31.30
 -40  -4  12  124.39   30.80
  40  -4 -12  278.77   39.60
 -40   4  12  180.58   42.00
 -38  -4  12   97.09   30.30
  38  -4 -12  163.68   33.80
 -38   4  12   70.79   31.20
 -36  -4  12   15.80   23.80
  36  -4 -12   52.69   27.20
 -36   4  12    7.50   29.60
  34  -4 -12   22.50   24.70
 -34  -4  12   10.20   19.10
 -34   4  12   49.50   30.50
  32  -4 -12  439.66   44.10
 -32  -4  12  381.86   39.50
 -32   4  12  396.26   46.90
 -30  -4  12  -36.20   22.30
 -30  -4  12   15.80   17.20
  30  -4 -12   16.70   22.40
 -30   4  12  -17.00   20.30
 -28  -4  12   93.19   20.90
 -28  -4  12  128.59   27.30
  28  -4 -12   83.79   25.40
  26  -4 -12   14.20   21.10
 -26  -4  12   -5.30   20.90
  24  -4 -12  354.76   37.20
 -24  -4  12  412.06   37.30
 -22  -4  12   54.69   23.10
  22  -4 -12    9.00   19.70
 -20  -4  12   24.00   21.60
  20  -4 -12   34.10   20.70
 -18  -4  12  248.68   31.00
  18  -4 -12  295.97   32.60
  16  -4 -12   76.89   22.70
 -16  -4  12  103.49   25.30
 -14  -4  12   25.20   21.30
  14  -4 -12   43.40   21.40
  12  -4 -12  765.72   44.90
 -12  -4  12  725.13   41.20
 -12  -4  12  694.23   46.60
 -10  -4  12    1.90   20.10
  10  -4 -12   16.30   20.90
  10  -4 -12    4.30   19.50
 -10  -4  12    7.10   18.60
   8  -4 -12   13.90   23.70
   8  -4 -12   39.10   21.00
  -8  -4  12   51.79   23.20
  -8  -4  12   69.39   21.30
  -6  -4  12   36.10   22.40
   6  -4 -12   51.39   20.30
   6  -4 -12   71.09   25.30
   4  -4 -12   32.60   25.50
  -4  -4  12   36.10   21.50
   4  -4 -12   49.00   20.30
   2  -4 -12  160.68   31.30
   2  -4 -12  133.49   24.30
  -2  -4  12  166.88   28.60
   0  -4 -12   10.90   18.00
   0  -4  12   41.50   26.80
   0  -4 -12    3.20   27.20
  -2  -4 -12   69.09   30.30
   2  -4  12   26.50   27.30
  -2  -4 -12   62.39   20.60
  -4  -4 -12  295.57   29.90
   4  -4  12  244.78   37.90
  -4  -4 -12  285.17   40.40
  -6  -4 -12   91.39   32.70
   6  -4  12  122.59   31.00
  -6  -4 -12  138.99   22.80
  -8  -4 -12  176.18   24.70
  -8  -4 -12  201.68   37.10
   8  -4  12  172.68   34.90
  10  -4  12  -30.60   26.20
 -10  -4 -12    7.60   28.10
  12  -4  12  115.49   36.00
 -12  -4 -12  168.38   36.20
 -14  -4 -12   -8.00   27.70
  14  -4  12   28.00   33.40
 -16  -4 -12  385.06   48.20
  16  -4  12  637.54   60.39
  18  -4  12   52.09   37.00
 -18  -4 -12   14.60   30.50
  20  -4  12    7.80   36.60
 -20  -4 -12   46.30   32.80
  22  -4  12   11.40   39.20
 -22  -4 -12   41.20   34.80
  24  -4  12  219.28   49.99
 -24  -4 -12  202.38   43.90
 -26  -4 -12   18.50   32.70
 -39  -5  12   41.80   25.00
 -37  -5  12   -2.70   24.80
  37  -5 -12   40.50   26.40
  35  -5 -12   97.59   29.90
 -35  -5  12   65.29   24.10
  33  -5 -12   88.99   29.00
 -33  -5  12   51.69   28.00
 -33  -5  12   77.49   26.00
 -31  -5  12  114.49   27.60
 -31  -5  12   52.19   30.70
  31  -5 -12  123.19   31.20
 -29  -5  12  -17.10   26.40
  29  -5 -12   -6.90   22.80
 -27  -5  12   55.09   29.60
  27  -5 -12  141.29   29.60
 -25  -5  12   53.69   27.00
  25  -5 -12   72.69   24.80
 -23  -5  12    0.20   25.40
  23  -5 -12   39.30   23.30
  21  -5 -12   59.29   23.90
 -21  -5  12   69.79   26.70
  19  -5 -12  216.28   29.70
 -19  -5  12  223.98   33.30
 -17  -5  12  190.48   30.80
  17  -5 -12  118.49   27.40
 -15  -5  12  152.18   30.60
  15  -5 -12  132.29   26.30
  13  -5 -12   28.30   21.30
 -13  -5  12   -5.30   22.90
  11  -5 -12  509.45   39.00
 -11  -5  12  465.85   42.80
  -9  -5  12   94.49   24.60
  -9  -5  12  127.69   29.00
   9  -5 -12   91.59   25.60
  -7  -5  12    3.70   22.20
   7  -5 -12   26.80   26.10
  -7  -5  12    8.00   21.90
   7  -5 -12   10.30   20.50
  -5  -5  12  318.07   36.80
   5  -5 -12  428.76   36.40
  -5  -5  12  408.26   40.90
   5  -5 -12  385.96   41.40
  -3  -5  12   79.59   25.20
   3  -5 -12   56.49   30.60
  -3  -5  12   56.19   27.50
   3  -5 -12   92.29   24.00
   1  -5 -12   -5.90   17.80
  -1  -5  12  -32.60   22.70
   1  -5 -12  -51.19   28.00
   1  -5  12   -3.40   24.70
  -1  -5 -12   60.89   33.00
  -1  -5 -12   12.90   18.30
  -3  -5 -12  272.17   29.20
   3  -5  12  196.48   35.80
  -3  -5 -12  247.18   40.20
  -5  -5 -12   68.59   35.30
   5  -5  12   79.49   31.80
   7  -5  12  -19.00   29.10
  -7  -5 -12   28.90   33.90
  -9  -5 -12   80.49   34.50
   9  -5  12   51.09   33.40
 -11  -5 -12  235.58   44.80
  11  -5  12  306.77   46.70
  13  -5  12   76.59   37.00
 -13  -5 -12   21.80   33.30
  15  -5  12   14.40   35.90
 -15  -5 -12   48.40   33.70
 -17  -5 -12  154.38   39.60
  17  -5  12  162.28   44.40
 -19  -5 -12   63.09   36.00
  19  -5  12    9.60   37.40
  21  -5  12   40.80   41.60
 -21  -5 -12  -23.10   34.20
 -23  -5 -12  138.59   42.80
 -36  -6  12   26.50   22.50
 -34  -6  12   34.10   32.50
 -34  -6  12    1.00   24.10
  32  -6 -12   64.89   28.60
 -32  -6  12   53.99   25.70
 -32  -6  12   27.70   32.50
 -30  -6  12   -7.90   32.20
  30  -6 -12    5.90   24.60
 -28  -6  12  -29.50   31.10
  28  -6 -12   60.39   27.20
 -26  -6  12  -43.80   31.80
  26  -6 -12   28.40   24.60
 -24  -6  12   92.19   32.90
  24  -6 -12  119.39   29.80
 -22  -6  12  106.09   33.30
  22  -6 -12  166.28   30.50
 -20  -6  12   46.20   29.60
  20  -6 -12  -21.40   21.00
  18  -6 -12   93.59   26.30
 -18  -6  12   82.19   31.60
 -16  -6  12   56.59   28.20
  16  -6 -12   -4.10   22.50
  14  -6 -12  257.37   33.30
 -14  -6  12  403.86   45.10
 -12  -6  12    6.40   27.60
  12  -6 -12  -15.60   22.80
 -10  -6  12  -19.40   24.30
  10  -6 -12  -27.30   19.80
   8  -6 -12   41.00   23.70
  -8  -6  12   33.20   25.80
   6  -6 -12  276.67   33.30
  -6  -6  12  239.48   35.50
  -4  -6  12  158.78   31.40
   4  -6 -12  178.48   38.90
  -4  -6  12  132.09   32.70
   4  -6 -12  148.69   28.00
  -2  -6  12  280.07   38.80
   2  -6 -12  325.77   34.40
  -2  -6  12  292.97   38.50
   2  -6 -12  413.16   46.80
   0  -6  12  -15.90   23.50
   0  -6 -12   -4.30   33.80
   0  -6  12    5.60   30.60
   2  -6  12   25.00   31.10
  -2  -6 -12   19.10   33.50
   2  -6  12   39.80   26.40
   4  -6  12   66.09   28.50
   4  -6  12   69.79   36.30
  -4  -6 -12  164.18   39.40
   6  -6  12   86.19   29.90
   6  -6  12  126.29   40.50
  -6  -6 -12  257.67   44.90
  -8  -6 -12   -3.20   35.50
   8  -6  12  -14.80   31.80
 -10  -6 -12   -4.20   37.50
  10  -6  12   29.90   35.40
 -12  -6 -12  103.79   42.30
  12  -6  12   91.79   39.50
  14  -6  12  154.48   44.80
 -14  -6 -12   98.99   40.80
  16  -6  12   60.99   41.20
 -16  -6 -12   35.30   41.00
 -18  -6 -12   22.20   39.70
 -20  -6 -12   32.50   40.80
 -31  -7  12  -16.80   35.40
 -29  -7  12    0.10   34.30
 -27  -7  12  -72.29   30.40
  27  -7 -12   21.00   26.60
  25  -7 -12   26.40   26.30
 -25  -7  12  -54.49   32.50
 -23  -7  12  -62.89   30.00
  23  -7 -12   30.40   26.10
 -21  -7  12   45.20   32.90
  21  -7 -12   79.59   27.30
  19  -7 -12   33.20   24.90
 -19  -7  12    3.70   29.80
  17  -7 -12   -1.60   22.00
 -17  -7  12   -5.20   31.60
 -15  -7  12   78.59   33.80
  15  -7 -12   33.80   23.30
  13  -7 -12   12.80   23.20
 -13  -7  12   -3.10   30.30
 -11  -7  12   -5.60   28.50
  11  -7 -12   60.59   25.50
  -9  -7  12  -21.80   27.30
   9  -7 -12   10.30   25.10
   7  -7 -12  156.38   30.50
  -7  -7  12  210.58   38.10
  -5  -7  12   11.00   27.20
  -3  -7  12   -7.60   26.70
   1  -7 -12  102.49   39.80
  -1  -7  12   52.49   30.70
  -1  -7 -12   25.50   36.40
   1  -7  12   35.30   32.60
   1  -7  12   36.80   30.50
  -3  -7 -12   75.89   42.30
   3  -7  12   35.00   29.50
   3  -7  12   25.60   32.30
   5  -7  12  110.29   41.30
   5  -7  12   68.39   31.70
  -5  -7 -12  197.88   45.20
   7  -7  12    9.30   37.20
  -7  -7 -12   50.49   40.80
   7  -7  12   -1.80   28.80
   9  -7  12  -32.60   36.90
  -9  -7 -12   50.99   44.60
   9  -7  12   20.00   30.40
  11  -7  12  -24.20   40.30
 -11  -7 -12    0.00   44.70
  11  -7  12  -13.80   28.90
 -13  -7 -12   42.90   46.30
  13  -7  12   29.30   31.20
 -15  -7 -12  123.29   49.50
  15  -7  12   88.59   35.10
 -24  -8  12   41.90   41.90
 -22  -8  12  -20.20   38.10
 -20  -8  12   27.60   39.70
  20  -8 -12   65.19   30.20
  18  -8 -12   59.09   29.40
 -18  -8  12   82.89   41.30
 -16  -8  12   33.00   39.30
  16  -8 -12   -6.70   23.40
  14  -8 -12   -4.00   25.60
 -14  -8  12  -39.60   32.20
  12  -8 -12  104.59   29.20
 -12  -8  12   80.79   37.30
 -10  -8  12   -9.20   30.70
  -8  -8  12  -27.40   32.00
  -6  -8  12   -2.80   32.10
  -4  -8  12   53.59   33.90
  -2  -8  12   -3.20   35.00
   0  -8  12   25.10   34.40
  -2  -8 -12    0.80   39.30
   2  -8  12   -9.60   32.90
   4  -8  12   80.39   37.00
  -4  -8 -12  156.88   49.90
  -6  -8 -12   33.00   42.40
   6  -8  12   26.10   34.00
   6  -8  12    9.00   37.80
 -46   0  13  -19.20   22.30
 -44   0  13  -44.20   20.60
 -42   0  13    6.40   25.50
 -40   0  13    0.70   24.00
 -38   0  13    1.30   23.60
 -36   0  13  -11.10   21.00
 -34   0  13    1.80   20.20
 -32   0  13  -19.10   15.20
 -30   0  13   -7.40   16.40
  30   0 -13    9.30   14.20
  28   0 -13   16.90   15.70
 -28   0  13    6.50   16.90
  26   0 -13   -5.30   13.70
 -26   0  13    7.20   15.70
 -24   0  13  -12.80   14.00
  24   0 -13    3.70   12.20
  22   0 -13    5.30   12.60
 -22   0  13   -4.70   13.40
  20   0 -13   -1.80   10.80
 -20   0  13   11.40   13.00
  18   0 -13   -0.10   11.50
 -18   0  13   11.00   12.80
 -18   0  13    8.20    9.10
  16   0 -13   12.40   12.00
 -16   0  13   -9.60   11.50
  14   0 -13   29.50   12.00
 -14   0  13   11.80   11.60
 -12   0  13   17.10   10.40
  12   0 -13   -1.90   10.80
 -10   0  13   14.50    8.90
  10   0 -13    2.70   10.20
   8   0 -13   25.50   11.80
  -8   0  13   21.70    8.50
  -6   0  13   30.80    7.90
   6   0 -13   20.80   12.50
  -4   0  13   24.60    6.50
   4   0 -13    4.70    7.90
   2   0 -13   -6.90    6.30
   0   0 -13   -6.20   11.50
   0   0 -13    3.00   12.60
  -2   0 -13   12.40   14.30
  -2   0 -13   12.00   15.50
  -4   0 -13   15.40   16.90
  -4   0 -13    8.60   16.20
   4   0  13   10.80   17.50
   6   0  13  -13.20   17.70
  -6   0 -13   41.00   20.00
  -8   0 -13   29.70   20.90
   8   0  13   19.70   19.90
  10   0  13   -4.10   19.60
 -10   0 -13    2.20   18.70
  12   0  13  -13.20   19.70
 -12   0 -13  -17.90   18.40
  14   0  13  -10.40   19.70
 -14   0 -13  -11.10   19.50
  16   0  13   -5.50   23.40
 -16   0 -13   32.10   24.20
  18   0  13    5.20   24.20
 -18   0 -13   16.20   24.60
 -20   0 -13   26.40   26.60
  20   0  13   -8.30   26.70
 -22   0 -13  -17.40   25.60
  22   0  13   -4.70   30.30
 -24   0 -13   46.50   30.70
  24   0  13   -3.90   31.50
 -26   0 -13   50.99   33.60
 -28   0 -13   22.50   32.10
 -47  -1  13  -14.40   29.40
 -47   1  13   31.30   32.50
 -45  -1  13  -45.20   26.00
 -45   1  13   42.80   27.80
 -43  -1  13  308.37   42.70
 -43   1  13  237.18   40.60
 -41  -1  13   96.69   27.60
 -41   1  13   48.10   25.70
 -39  -1  13  147.79   32.10
 -39   1  13  190.88   34.60
 -37  -1  13   83.99   28.00
 -37   1  13   14.30   23.80
 -35  -1  13  151.78   29.60
  35  -1 -13  185.68   27.10
 -35   1  13  189.38   30.10
  33  -1 -13  244.88   28.40
 -33  -1  13  229.58   33.80
 -33   1  13  257.57   33.30
  31  -1 -13  600.24   37.80
 -31  -1  13  578.94   45.30
 -31   1  13  515.95   41.80
  29  -1 -13   52.99   19.10
 -29  -1  13   44.10   21.90
 -29   1  13   33.10   19.70
 -27  -1  13   23.90   20.50
  27  -1 -13   43.80   19.10
  27   1 -13    5.10   12.40
 -27   1  13   40.60   22.00
 -25  -1  13   53.39   18.40
  25  -1 -13   47.40   17.80
 -25   1  13   44.40   19.10
  25   1 -13   51.09   15.10
  23  -1 -13  659.73   39.30
 -23  -1  13  644.14   40.60
 -23   1  13  631.14   41.70
  23   1 -13  629.64   33.70
 -21  -1  13  170.08   23.10
  21  -1 -13  213.28   24.70
 -21  -1  13  213.38   19.90
  21   1 -13  247.48   21.90
 -21   1  13  262.77   28.10
 -19  -1  13  133.59   16.90
  19  -1 -13  182.48   22.60
 -19  -1  13  135.29   20.10
  19   1 -13  146.19   17.80
 -19   1  13  178.28   22.90
 -17  -1  13   12.30   11.80
  17  -1 -13  -17.30   11.50
 -17  -1  13   -3.00   11.10
  17   1 -13    3.20   10.50
 -17   1  13   11.20   13.70
 -15  -1  13 1188.18   49.70
  15  -1 -13 1089.19   51.19
 -15   1  13 1168.78   50.49
  15   1 -13 1123.99   49.20
 -13  -1  13  795.22   36.00
  13  -1 -13  733.33   38.70
 -13   1  13  751.12   36.00
  13   1 -13  696.03   35.80
  11  -1 -13   97.19   16.40
 -11   1  13  122.79   14.60
  11   1 -13   95.09   16.10
   9  -1 -13  400.86   26.90
   9  -1 -13  389.76   22.80
  -9   1  13  401.16   21.20
   9   1 -13  347.37   25.10
   7  -1 -13 1407.66   57.59
  -7   1  13 1383.26   50.19
   7   1 -13 1376.66   59.29
   5  -1 -13 1103.09   48.30
   5  -1 -13 1011.10   48.40
   5   1 -13 1050.79   48.90
   3  -1 -13 2712.53  102.89
   3  -1 -13 2594.14  101.19
   3   1 -13 2640.34  101.99
   1  -1 -13  275.07   26.80
  -1  -1  13  211.88   25.20
   1  -1 -13  233.78   25.60
   1   1 -13  277.87   27.90
  -1  -1 -13   77.49   18.20
  -1  -1 -13   57.69   18.50
  -3  -1 -13  155.98   25.30
  -3  -1 -13  155.68   22.10
  -5  -1 -13 1945.51   88.29
  -5  -1 -13 2002.80   83.99
   5  -1  13 2137.69   86.89
  -7  -1 -13   22.40   20.20
  -7  -1 -13   -2.20   16.70
   7  -1  13    6.20   20.00
   9  -1  13  123.59   27.60
  -9  -1 -13  114.89   28.00
   9   1  13  116.49   25.20
  11  -1  13  195.58   31.20
 -11  -1 -13  186.58   30.40
  11   1  13  176.88   28.00
  13  -1  13  633.44   47.50
 -13  -1 -13  597.24   47.20
  13   1  13  662.73   45.00
 -15  -1 -13  315.17   38.90
  15  -1  13  228.78   37.40
  15   1  13  290.67   35.30
 -17  -1 -13   37.00   25.10
  17  -1  13    9.00   26.90
  17   1  13   64.19   25.80
  19  -1  13   61.99   30.60
 -19  -1 -13   77.99   29.60
  19   1  13   54.89   25.90
 -21  -1 -13   54.39   29.40
  21  -1  13   90.59   34.50
  23  -1  13  235.88   44.60
 -23  -1 -13  368.56   47.90
  25  -1  13  167.38   42.10
 -25  -1 -13  175.18   39.60
 -27  -1 -13    9.50   33.00
  27  -1  13   21.30   38.10
 -29  -1 -13   38.80   35.80
 -46  -2  13   35.10   32.30
 -46   2  13    0.50   31.90
 -44  -2  13    2.10   29.10
 -44   2  13    5.70   25.80
 -42  -2  13  -37.20   24.00
 -42   2  13    9.60   28.70
 -40  -2  13   86.29   27.90
 -40   2  13   69.09   30.60
 -38  -2  13    8.70   26.20
  38  -2 -13   43.20   22.40
 -38   2  13    5.30   27.50
  36  -2 -13   31.90   19.90
 -36  -2  13   -6.80   19.70
 -36   2  13   21.40   26.60
 -34  -2  13   21.50   22.50
  34  -2 -13   -2.10   18.00
 -34   2  13  -13.70   19.10
  32  -2 -13   76.29   22.60
 -32  -2  13   34.40   19.50
 -32   2  13   49.70   22.50
  30  -2 -13   21.80   18.30
 -30  -2  13   41.50   18.40
 -30   2  13   37.70   20.70
  28  -2 -13    5.10   18.90
 -28  -2  13   28.40   17.30
 -28   2  13    5.20   21.70
 -26  -2  13   38.90   20.00
  26  -2 -13   98.19   21.90
 -26   2  13   38.40   22.60
 -24  -2  13  216.28   27.10
  24  -2 -13  199.38   27.20
 -24  -2  13  207.48   23.90
 -24   2  13  169.48   27.90
  22  -2 -13    2.90   16.80
 -22  -2  13   11.30   16.20
 -22  -2  13   -4.50   15.30
  22   2 -13  -11.10    9.90
 -22   2  13    1.90   18.40
 -20  -2  13   14.90   15.00
 -20  -2  13   39.00   16.50
  20  -2 -13   26.20   17.70
  20   2 -13   32.70   12.10
 -20   2  13   25.20   17.10
  18  -2 -13  107.59   21.20
 -18  -2  13   95.39   18.30
 -18   2  13   94.69   19.20
  18   2 -13  118.29   16.70
  16  -2 -13    4.60   15.60
 -16  -2  13   12.60   13.60
  16   2 -13    6.30   10.70
 -16   2  13   -6.70   12.40
 -14  -2  13  153.58   21.50
  14  -2 -13  171.68   21.60
  14   2 -13  180.38   19.40
 -14   2  13  176.58   19.10
  12  -2 -13   12.50    6.20
  12  -2 -13    0.50    3.10
  12   2 -13   13.00   11.80
 -12   2  13    5.20   10.50
  10  -2 -13  121.19   15.20
  10  -2 -13   97.79   18.70
 -10   2  13  130.19   14.60
  10   2 -13  144.49   18.90
   8  -2 -13   28.40   12.80
   8  -2 -13   13.70   15.00
   8   2 -13   41.20   14.40
   6  -2 -13    4.90   14.40
  -6  -2  13   23.10   15.10
   6  -2 -13   -8.70   12.10
  -4  -2  13  392.06   30.60
   4  -2 -13  380.96   29.20
   4  -2 -13  454.65   32.20
   2  -2 -13   34.60   18.40
  -2  -2  13    4.60   16.00
   2  -2 -13   38.20   16.30
   0  -2 -13   63.69   20.80
   0  -2  13    8.20   17.70
   0  -2 -13   30.80   16.30
  -2  -2 -13  -26.30   17.60
   2  -2  13  -18.60   12.90
  -2  -2 -13   -0.60   15.30
  -4  -2 -13   11.40   17.40
  -4  -2 -13   20.70   22.10
   4  -2  13  -12.50    7.30
   6  -2  13   96.59   25.00
  -6  -2 -13  256.67   33.60
  -6  -2 -13  168.68   25.10
  -8  -2 -13  443.36   35.80
  -8  -2 -13  497.55   43.00
   8  -2  13  497.85   44.00
  10  -2  13   13.10   23.80
 -10  -2 -13   42.50   19.10
 -10  -2 -13   21.80   24.10
  12  -2  13   62.39   27.90
 -12  -2 -13  125.09   30.00
  12   2  13  114.89   24.40
  14  -2  13   14.30   25.60
 -14  -2 -13  -10.50   22.00
  14   2  13   19.70   18.50
 -16  -2 -13   11.50   23.10
  16  -2  13    2.90   29.10
  16   2  13    9.00   21.30
 -18  -2 -13   22.80   25.20
  18  -2  13    1.50   29.00
  20  -2  13   -6.40   30.70
 -20  -2 -13    1.00   24.90
 -22  -2 -13  -25.40   25.10
  22  -2  13    3.60   33.10
  24  -2  13   -3.00   33.60
 -24  -2 -13   40.80   31.10
  26  -2  13  -30.70   37.90
 -26  -2 -13   -1.70   30.80
 -28  -2 -13   20.70   34.30
  28  -2  13  -23.50   39.80
 -45  -3  13   52.79   33.50
 -45   3  13  -33.40   30.60
 -43  -3  13   39.60   33.60
 -43   3  13   90.49   32.60
 -41  -3  13   75.09   33.10
  41  -3 -13   77.49   27.00
 -41   3  13   64.49   35.10
  39  -3 -13   88.29   27.60
 -39  -3  13   40.10   26.80
 -39   3  13   32.70   31.00
  37  -3 -13   70.09   25.10
 -37  -3  13   28.00   23.40
 -37   3  13   89.29   32.70
 -35  -3  13   77.59   24.30
  35  -3 -13   98.19   26.80
 -35   3  13   86.89   29.30
 -33  -3  13  270.97   33.80
  33  -3 -13  307.87   36.40
 -33   3  13  338.67   42.60
 -31  -3  13  443.86   41.70
  31  -3 -13  466.65   39.60
 -31   3  13  470.05   46.50
  29  -3 -13  120.99   25.60
 -29  -3  13   60.09   21.30
 -29   3  13   71.69   24.30
 -27  -3  13    1.50   17.50
  27  -3 -13   -1.30   18.50
 -27  -3  13  -25.10   18.60
 -27   3  13  -11.00   21.90
 -25  -3  13   61.39   18.70
  25  -3 -13    9.20   20.10
 -25  -3  13   42.40   20.70
 -25   3  13   34.00   22.70
 -23  -3  13  389.86   33.70
  23  -3 -13  423.56   38.10
 -23   3  13  324.27   33.20
 -21  -3  13   12.40   17.00
  21  -3 -13   15.90   19.70
 -21   3  13   19.90   20.00
  19  -3 -13    0.50   18.20
 -19  -3  13   -2.50   17.50
 -19   3  13    7.00   16.30
  17  -3 -13    4.00    5.30
 -17  -3  13    9.60   13.80
 -17  -3  13   24.40   17.40
 -17   3  13   20.20   16.00
 -15  -3  13  645.24   41.40
 -15  -3  13  625.04   35.00
 -13  -3  13 1238.08   58.99
 -13  -3  13 1190.68   53.99
 -11  -3  13   82.99   18.40
  11  -3 -13  104.49   21.80
  11  -3 -13   99.99   17.90
 -11  -3  13  120.09   23.30
   9  -3 -13   95.49   19.50
  -9  -3  13  132.69   21.30
   9  -3 -13  112.99   21.50
   7  -3 -13   18.20   18.30
  -7  -3  13    0.00   17.40
   7  -3 -13   22.80   17.10
  -5  -3  13 1242.28   59.59
   5  -3 -13 1275.27   59.49
   5  -3 -13 1308.47   61.39
   3  -3 -13  221.38   28.50
  -3  -3  13  212.58   28.50
   3  -3 -13  237.78   28.30
   1  -3 -13   43.50   20.30
   1  -3 -13   59.89   23.80
  -1  -3  13   14.40   19.30
  -1  -3 -13   68.39   28.00
  -1  -3 -13   56.99   20.40
   1  -3  13   80.89   25.30
  -3  -3 -13   54.49   27.60
  -3  -3 -13   27.30   18.00
   3  -3  13    4.20   22.90
  -5  -3 -13  118.49   31.00
  -5  -3 -13  141.29   24.80
   5  -3  13  129.19   30.30
  -7  -3 -13    9.10   16.30
   7  -3  13    7.30   24.10
  -7  -3 -13  -19.10   24.90
   9  -3  13   29.10   26.10
  -9  -3 -13   72.09   28.40
  -9  -3 -13   41.10   18.30
  11  -3  13   10.30   26.30
 -11  -3 -13  -45.20   23.40
 -11  -3 -13  -28.10   16.00
 -13  -3 -13  287.57   40.00
  13  -3  13  298.07   43.00
  15  -3  13  492.05   52.39
 -15  -3 -13  421.96   47.30
  17  -3  13   45.80   33.70
 -17  -3 -13   29.60   26.60
  19  -3  13  174.18   41.00
 -19  -3 -13   54.49   29.60
 -21  -3 -13   80.69   31.00
  21  -3  13   73.69   39.60
 -23  -3 -13   89.69   34.90
  23  -3  13   77.29   40.60
  25  -3  13   63.29   44.30
 -25  -3 -13  126.29   38.70
 -27  -3 -13   37.40   34.00
 -42  -4  13   40.70   28.40
  42  -4 -13   85.29   29.40
 -42   4  13   66.19   37.40
 -40  -4  13   -7.00   23.30
  40  -4 -13   56.39   29.00
 -40   4  13   34.40   33.70
 -38  -4  13   82.19   26.60
  38  -4 -13   92.29   30.20
 -38   4  13   93.19   32.70
 -36  -4  13  -10.40   22.20
  36  -4 -13   14.30   23.70
 -36   4  13   -1.60   23.10
  34  -4 -13  -13.40   24.00
 -34  -4  13  -18.80   20.70
 -34   4  13  -15.20   27.10
 -32  -4  13   24.90   18.20
  32  -4 -13   10.40   22.50
 -32   4  13    6.20   26.60
  30  -4 -13   66.29   25.60
 -30  -4  13   85.69   23.40
 -30  -4  13   75.29   26.80
 -30   4  13   64.69   29.30
 -28  -4  13  -25.70   23.80
  28  -4 -13   10.20   21.10
 -28  -4  13    9.00   15.80
  26  -4 -13  -33.00   19.70
 -26  -4  13  -27.30   20.50
 -24  -4  13    8.90   22.10
  24  -4 -13   -5.40   19.20
 -22  -4  13  138.49   26.00
  22  -4 -13  154.08   26.80
 -20  -4  13  173.18   29.20
  20  -4 -13  121.49   25.60
 -18  -4  13   63.39   25.10
  18  -4 -13   69.49   22.80
 -16  -4  13  295.17   33.10
  16  -4 -13  340.77   34.70
 -14  -4  13   40.70   18.90
  14  -4 -13   49.20   21.50
 -14  -4  13   16.10   21.50
  12  -4 -13   91.49   24.70
 -12  -4  13   99.69   21.90
  10  -4 -13   70.49   22.30
 -10  -4  13   61.99   21.80
 -10  -4  13   76.89   24.50
   8  -4 -13   50.69   20.70
   8  -4 -13   14.30   23.80
  -8  -4  13   -1.50   21.20
  -8  -4  13    5.40   19.30
   6  -4 -13   40.00   20.30
  -6  -4  13   13.10   22.70
   6  -4 -13   -8.00   23.00
  -4  -4  13   16.40   22.80
   4  -4 -13   17.50   20.90
   4  -4 -13  -13.90   25.20
  -2  -4  13  238.18   32.20
   2  -4 -13  229.48   27.60
   2  -4 -13  200.28   35.10
   0  -4 -13  174.08   25.60
   0  -4 -13  209.88   35.00
   0  -4  13  186.28   31.90
  -2  -4 -13   83.79   32.10
  -2  -4 -13   57.49   20.10
   2  -4  13   65.19   28.10
  -4  -4 -13    9.50   28.10
   4  -4  13  -17.30   24.10
  -4  -4 -13   22.90   18.70
  -6  -4 -13  417.56   46.20
   6  -4  13  382.26   44.50
  -6  -4 -13  466.25   36.70
  -8  -4 -13   15.90   28.90
  -8  -4 -13   -5.60   15.90
   8  -4  13   27.70   28.30
 -10  -4 -13   48.10   31.70
  10  -4  13   23.30   30.60
 -12  -4 -13   -1.10   28.00
  12  -4  13  -33.10   27.60
  14  -4  13   47.00   34.40
 -14  -4 -13   62.19   31.20
  16  -4  13   -7.70   32.30
 -16  -4 -13    7.10   30.00
  18  -4  13  -52.79   32.40
 -18  -4 -13   12.80   29.40
  20  -4  13   61.89   38.80
 -20  -4 -13   49.80   32.40
  22  -4  13   20.20   39.50
 -22  -4 -13  -29.10   28.10
 -24  -4 -13  -16.10   30.50
 -39  -5  13  -17.50   21.10
  37  -5 -13   47.30   28.30
 -37  -5  13  -22.30   22.50
  35  -5 -13   13.40   25.50
 -35  -5  13    2.10   22.10
 -33  -5  13  102.69   25.50
  33  -5 -13  152.88   32.40
 -31  -5  13   83.29   25.60
  31  -5 -13  186.08   35.10
 -31  -5  13   94.99   32.90
  29  -5 -13   47.30   26.00
 -29  -5  13    9.90   26.70
  27  -5 -13   12.90   22.80
 -27  -5  13  -31.00   24.00
 -25  -5  13   75.19   29.40
  25  -5 -13   54.19   25.20
  23  -5 -13  241.88   34.10
 -23  -5  13  312.17   37.30
  21  -5 -13   65.99   23.80
 -21  -5  13   94.09   27.30
 -19  -5  13   -8.90   25.30
  19  -5 -13   38.30   22.80
 -17  -5  13   46.50   25.30
  17  -5 -13   70.69   25.10
 -15  -5  13  200.58   31.40
  15  -5 -13  167.68   27.90
 -13  -5  13   32.40   24.00
  13  -5 -13   66.79   23.10
 -11  -5  13   41.70   26.00
  11  -5 -13   72.39   23.40
  -9  -5  13   28.90   23.70
   9  -5 -13   49.10   23.90
  -9  -5  13   -5.70   22.40
  -7  -5  13   86.09   26.30
   7  -5 -13   83.39   23.50
   7  -5 -13  106.19   30.60
  -7  -5  13   93.79   27.30
   5  -5 -13  165.98   28.40
  -5  -5  13  155.88   28.80
   5  -5 -13  239.78   36.50
  -5  -5  13  167.38   29.20
   3  -5 -13  317.87   40.60
  -3  -5  13  194.18   30.70
  -3  -5  13  251.77   35.30
   3  -5 -13  268.37   31.20
   1  -5 -13   28.70   31.90
  -1  -5  13  -29.00   23.90
   1  -5 -13   16.20   21.10
  -1  -5 -13   81.99   33.00
  -1  -5 -13   74.79   21.10
   1  -5  13   71.69   29.60
  -3  -5 -13  111.99   35.60
  -3  -5 -13   63.69   21.90
   3  -5  13   88.89   32.30
  -5  -5 -13  365.66   47.20
   5  -5  13  300.07   42.50
  -7  -5 -13  148.69   39.80
   7  -5  13  176.58   38.50
  -9  -5 -13   49.40   33.70
   9  -5  13  -35.20   31.60
  11  -5  13  -28.20   32.10
 -11  -5 -13   34.80   33.30
 -13  -5 -13  169.58   42.60
  13  -5  13  175.48   43.50
  15  -5  13   18.30   36.90
 -15  -5 -13  -13.00   31.90
  17  -5  13   38.20   40.10
 -17  -5 -13   46.50   34.60
 -19  -5 -13   13.80   35.30
  19  -5  13  -17.40   38.10
 -21  -5 -13   24.90   37.80
 -36  -6  13    3.40   24.80
 -34  -6  13    3.40   19.90
 -34  -6  13  -48.20   29.90
 -32  -6  13   29.30   23.70
  32  -6 -13   47.80   27.70
 -32  -6  13    9.20   31.90
  30  -6 -13   42.70   26.90
 -30  -6  13   77.39   33.40
 -28  -6  13    6.00   30.50
  28  -6 -13  -12.60   22.40
 -26  -6  13   26.30   33.10
  26  -6 -13   16.60   24.10
 -24  -6  13   43.60   29.60
  24  -6 -13   31.90   26.20
 -22  -6  13  -13.50   27.30
  22  -6 -13   48.60   25.50
 -20  -6  13   82.49   34.10
  20  -6 -13   47.50   24.70
 -18  -6  13   85.89   31.00
  18  -6 -13   46.70   23.90
 -16  -6  13   -1.10   26.50
  16  -6 -13  -11.20   20.70
 -14  -6  13   -4.40   25.40
  14  -6 -13    1.10   21.50
 -12  -6  13  -28.00   24.80
  12  -6 -13    2.40   22.30
  10  -6 -13   19.10   24.80
 -10  -6  13    3.40   25.60
  -8  -6  13   23.90   25.00
   8  -6 -13   19.40   24.00
  -6  -6  13  -11.90   23.10
   6  -6 -13    1.00   20.30
  -4  -6  13   57.89   30.60
   4  -6 -13   89.19   33.50
  -4  -6  13  113.39   29.90
   4  -6 -13   96.39   25.50
   2  -6 -13   56.49   25.20
  -2  -6  13   29.60   30.90
   2  -6 -13   79.39   34.10
  -2  -6  13   68.49   27.00
   0  -6  13   -6.20   29.30
   0  -6 -13   27.30   32.80
   0  -6  13   31.80   26.60
   2  -6  13   14.90   24.50
  -2  -6 -13   22.40   33.40
   2  -6  13   -8.80   29.90
   4  -6  13   27.70   26.30
  -4  -6 -13   90.29   40.30
   4  -6  13  -24.70   33.40
  -6  -6 -13   13.70   35.90
   6  -6  13  -19.80   31.20
  -8  -6 -13  107.49   40.30
   8  -6  13   87.19   38.60
 -10  -6 -13   86.29   40.10
  10  -6  13    5.60   38.70
 -12  -6 -13   83.49   40.80
  12  -6  13  100.09   40.00
 -14  -6 -13    6.30   39.70
  14  -6  13   11.60   39.10
 -16  -6 -13   18.50   38.20
 -18  -6 -13   54.29   40.80
 -31  -7  13   24.50   39.70
 -29  -7  13   -8.20   36.70
 -27  -7  13  -33.70   36.40
  27  -7 -13   35.90   27.80
 -25  -7  13  -56.19   34.90
  25  -7 -13  -13.90   24.60
 -23  -7  13   17.40   36.10
  23  -7 -13   82.19   30.10
 -21  -7  13    3.80   31.60
  21  -7 -13   -3.60   24.20
 -19  -7  13  -10.50   31.30
  19  -7 -13  -14.80   22.00
 -17  -7  13  -13.20   29.80
  17  -7 -13   30.30   24.70
  15  -7 -13   95.69   27.60
 -15  -7  13   83.69   33.90
  13  -7 -13   57.19   24.90
 -13  -7  13   52.29   30.00
  11  -7 -13   89.19   26.70
 -11  -7  13   88.99   31.60
  -9  -7  13   12.90   28.30
   9  -7 -13   12.70   26.00
  -7  -7  13   19.10   29.10
   7  -7 -13   -2.40   24.40
  -5  -7  13   55.59   30.60
  -3  -7  13   38.70   31.50
  -1  -7  13    1.30   27.40
   1  -7 -13   30.70   34.70
   1  -7  13   64.29   31.90
  -1  -7 -13   47.50   39.40
   1  -7  13   47.30   36.10
   3  -7  13   36.10   34.20
  -3  -7 -13   77.59   42.00
   3  -7  13   38.60   29.50
   5  -7  13   81.09   33.10
  -5  -7 -13  118.89   44.50
   5  -7  13  138.99   40.00
   7  -7  13   -4.60   34.50
   7  -7  13   39.20   31.70
  -7  -7 -13   50.29   44.30
   9  -7  13  -25.50   28.10
   9  -7  13  -17.50   35.90
  -9  -7 -13   26.70   42.70
 -11  -7 -13    1.30   42.70
  11  -7  13  -38.80   43.80
  11  -7  13   42.60   32.90
 -13  -7 -13   32.40   47.00
  13  -7  13   79.99   35.20
 -22  -8  13  -49.20   38.00
 -20  -8  13   49.90   38.50
 -18  -8  13   25.30   37.10
  18  -8 -13   15.80   27.70
  16  -8 -13  119.99   31.00
 -16  -8  13  135.69   41.80
  14  -8 -13   36.10   25.70
 -14  -8  13   -1.60   36.20
  12  -8 -13  -11.20   25.50
 -12  -8  13   19.20   34.30
 -10  -8  13   71.49   38.00
  -8  -8  13   33.10   33.20
  -6  -8  13   77.69   36.70
  -4  -8  13   -4.20   35.10
  -2  -8  13   53.89   35.40
   0  -8  13   42.10   37.20
  -2  -8 -13   55.29   45.30
   2  -8  13   83.19   38.60
  -4  -8 -13   33.80   42.80
   4  -8  13   10.20   35.90
 -46   0  14    8.80   25.20
 -44   0  14  -19.90   23.60
 -42   0  14  113.79   32.40
 -40   0  14   33.90   26.90
 -38   0  14   58.29   26.80
 -36   0  14   -5.20   21.50
 -34   0  14   95.99   26.70
 -32   0  14  376.16   39.30
 -30   0  14   60.29   23.00
  30   0 -14   31.90   16.00
  28   0 -14  140.49   22.00
 -28   0  14  108.09   25.20
  26   0 -14   18.20   14.60
 -26   0  14   31.60   19.60
  24   0 -14 1121.09   51.99
 -24   0  14 1076.59   54.69
 -22   0  14  387.86   33.40
  22   0 -14  379.76   28.70
  20   0 -14   69.69   16.50
 -20   0  14   55.69   18.40
  18   0 -14    1.60   12.00
 -18   0  14   14.40   14.30
  16   0 -14 1073.19   49.80
 -16   0  14 1122.79   50.19
 -14   0  14  327.77   23.10
  14   0 -14  309.07   24.40
  12   0 -14  639.14   35.30
 -12   0  14  675.33   32.80
  10   0 -14   31.40   12.50
 -10   0  14   11.70   10.00
  -8   0  14   60.09   10.80
   8   0 -14   78.99   16.70
   6   0 -14 1029.60   48.10
  -6   0  14  977.80   38.90
   4   0 -14  153.08   17.50
   2   0 -14   -0.60    4.70
   0   0 -14    3.90    9.30
  -2   0 -14   54.59   18.70
  -2   0 -14   11.40   15.80
   4   0  14 1712.83   74.39
  -4   0 -14 1553.54   74.89
  -6   0 -14 1339.87   66.39
   6   0  14 1203.88   62.59
  -8   0 -14 4363.06  170.68
   8   0  14 4390.96  165.28
 -10   0 -14  115.79   26.60
  10   0  14   94.19   25.30
 -12   0 -14  938.91   58.79
  12   0  14  976.40   56.99
 -14   0 -14  531.45   49.70
  14   0  14  521.75   43.90
 -16   0 -14  423.16   46.90
  16   0  14  379.26   43.00
 -18   0 -14   72.79   29.60
  18   0  14   18.50   28.40
 -20   0 -14  101.59   33.20
  20   0  14   87.89   32.00
  22   0  14  127.09   37.10
 -22   0 -14  194.38   39.10
 -24   0 -14  347.77   48.30
 -26   0 -14   62.69   32.60
 -47  -1  14   35.30   32.30
 -47   1  14   -8.40   30.00
 -45  -1  14  121.79   35.90
 -45   1  14   90.39   30.70
 -43  -1  14  -16.50   24.60
 -43   1  14   38.40   29.20
 -41  -1  14   -6.30   19.60
 -41   1  14    9.50   21.80
 -39  -1  14   62.49   27.00
 -39   1  14   27.00   26.10
 -37  -1  14   63.69   26.90
 -37   1  14   67.19   28.00
  35  -1 -14   -4.20   17.40
 -35  -1  14   22.70   21.00
 -35   1  14    9.80   24.30
  33  -1 -14   22.20   18.10
 -33  -1  14   20.30   20.40
 -33   1  14    0.30   21.10
  31  -1 -14  515.35   36.40
 -31  -1  14  559.04   42.20
 -31   1  14  557.14   47.10
  29  -1 -14   90.29   20.70
 -29  -1  14   91.09   22.50
 -29   1  14   69.69   24.30
  27  -1 -14   57.69   18.70
 -27  -1  14   48.40   19.00
  27   1 -14   54.29   15.90
 -27   1  14   52.49   20.00
  25  -1 -14   72.39   20.20
 -25  -1  14   71.49   19.60
 -25   1  14   48.70   21.80
  25   1 -14   63.59   15.50
  23  -1 -14  529.95   36.20
 -23  -1  14  589.44   38.90
 -23   1  14  547.25   39.40
  23   1 -14  578.64   32.80
 -21  -1  14   32.30   14.30
  21  -1 -14   29.40   16.20
 -21  -1  14   21.60   13.20
 -21   1  14   27.00   16.80
  21   1 -14    7.90   12.30
 -19  -1  14  466.05   27.80
 -19  -1  14  452.25   31.30
  19  -1 -14  415.96   30.70
 -19   1  14  427.46   32.10
  19   1 -14  467.45   28.90
 -17  -1  14  122.49   18.70
  17  -1 -14  161.88   21.80
 -17   1  14  116.69   20.10
  17   1 -14  140.29   18.40
 -15  -1  14    3.80   12.10
  15  -1 -14   35.80   14.90
  15   1 -14   12.60   12.30
 -15   1  14   25.40   14.00
  13  -1 -14  165.98   21.70
 -13  -1  14  152.98   17.60
 -13   1  14  171.78   18.50
  13   1 -14  193.78   20.80
 -11  -1  14  258.17   20.10
  11  -1 -14  246.78   25.20
 -11   1  14  229.88   18.50
  11   1 -14  269.17   25.60
   9  -1 -14  280.07   26.00
  -9   1  14  293.37   18.60
   9   1 -14  314.27   27.30
   7  -1 -14  488.65   29.10
   7   1 -14  476.45   30.90
   5  -1 -14  277.77   26.60
   5  -1 -14  321.97   26.50
   5   1 -14  336.77   26.70
   3  -1 -14 1416.86   63.19
   3  -1 -14 1411.16   62.19
   3   1 -14 1381.96   62.59
   1  -1 -14  352.36   31.90
  -1  -1 -14   82.49   20.10
  -1  -1 -14  103.89   20.30
   3  -1  14    8.30    8.50
  -3  -1 -14   27.50   17.40
  -3  -1 -14   25.70   19.80
  -5  -1 -14  152.28   25.20
  -5  -1 -14  161.58   28.30
   5  -1  14  135.99   26.80
   7  -1  14  523.55   41.90
  -7  -1 -14  505.35   38.70
  -7  -1 -14  577.84   43.50
   7   1  14  480.35   37.90
  -9  -1 -14   37.40   22.70
   9  -1  14   22.70   22.70
   9   1  14   19.80   20.00
 -11  -1 -14  350.56   39.80
  11  -1  14  417.86   40.80
  11   1  14  301.67   34.20
 -13  -1 -14   30.30   23.00
  13  -1  14   24.50   25.50
  13   1  14   -6.50   20.00
  15  -1  14  123.89   32.00
 -15  -1 -14  110.49   30.10
  15   1  14  101.49   27.90
 -17  -1 -14  307.87   42.90
  17  -1  14  337.97   44.20
  17   1  14  417.66   42.10
 -19  -1 -14  138.19   33.60
  19  -1  14  103.49   35.10
  19   1  14   74.49   28.20
  21  -1  14   60.29   36.10
 -21  -1 -14  153.58   36.70
  23  -1  14    9.00   32.30
 -23  -1 -14   20.60   30.50
 -25  -1 -14   22.40   31.70
  25  -1  14  -45.90   34.00
 -27  -1 -14  122.79   40.50
  27  -1  14   21.10   40.40
 -46  -2  14   -2.00   29.50
 -46   2  14   23.80   32.00
 -44  -2  14   24.80   30.40
 -44   2  14   -2.50   28.70
 -42  -2  14  334.07   44.50
 -42   2  14  392.56   48.80
 -40  -2  14    7.70   21.40
 -40   2  14   -3.20   27.30
 -38  -2  14  -10.20   23.40
  38  -2 -14   36.20   22.70
 -38   2  14   24.50   24.60
  36  -2 -14  195.88   29.20
 -36  -2  14  215.08   35.60
 -36   2  14   98.79   31.90
 -34  -2  14  314.77   37.40
  34  -2 -14  352.06   37.40
 -34   2  14  364.76   42.60
  32  -2 -14  -19.60   16.80
 -32  -2  14    8.80   20.40
 -32   2  14    6.30   23.50
  30  -2 -14   71.09   21.40
 -30  -2  14   40.30   21.60
 -30   2  14   46.60   23.90
 -28  -2  14  135.69   23.80
  28  -2 -14  154.38   26.10
 -28   2  14  131.49   28.20
  26  -2 -14  213.98   29.50
 -26  -2  14  204.08   26.70
 -26   2  14  151.68   27.80
  24  -2 -14  131.69   24.40
 -24  -2  14   78.49   18.90
 -24  -2  14   76.79   21.10
 -24   2  14  102.79   24.30
  22  -2 -14 1036.90   54.59
 -22  -2  14 1121.09   54.69
 -22  -2  14 1127.89   51.59
 -22   2  14 1074.19   55.39
  22   2 -14 1058.49   48.10
  20  -2 -14   98.69   22.30
 -20  -2  14  101.59   19.30
 -20  -2  14   98.39   20.00
  20   2 -14  101.49   16.70
 -20   2  14  137.09   22.40
  18  -2 -14   21.70   18.00
 -18  -2  14   38.10   16.70
 -18   2  14   35.40   16.50
  18   2 -14   42.30   13.50
 -16  -2  14    7.50   15.10
  16  -2 -14   -1.20   13.90
  16   2 -14   13.70   12.40
 -16   2  14    0.00   12.70
  14   2 -14 3049.69  115.29
 -14   2  14 3173.98  111.09
  12  -2 -14   72.39   12.50
 -12   2  14   60.69   13.00
  12   2 -14   55.09   15.60
  10  -2 -14    6.20   11.10
  10  -2 -14    6.70    5.90
  10   2 -14   -0.10   12.90
 -10   2  14    6.40   10.50
   8  -2 -14  129.99   18.00
   8  -2 -14   92.59   19.60
   8   2 -14  116.49   20.50
   6  -2 -14 1235.58   54.99
   6  -2 -14 1208.18   56.09
  -6  -2  14 1132.79   55.89
   4  -2 -14  184.38   23.60
  -4  -2  14  201.88   25.70
   4  -2 -14  144.29   22.90
  -2  -2  14  711.53   42.20
   2  -2 -14  661.93   39.60
   2  -2 -14  655.83   41.40
   0  -2  14  924.31   50.89
   0  -2 -14  917.31   51.19
   0  -2 -14  894.71   47.90
   2  -2  14 1228.88   64.39
  -2  -2 -14 1404.66   63.29
  -2  -2 -14 1371.76   67.19
   4  -2  14    5.00   20.90
  -4  -2 -14   -3.70   21.80
  -4  -2 -14   27.60   17.90
  -6  -2 -14 1324.17   63.09
   6  -2  14 1326.07   66.39
  -6  -2 -14 1309.27   69.49
  -8  -2 -14  602.24   39.80
   8  -2  14  621.24   47.10
  -8  -2 -14  586.94   46.80
 -10  -2 -14  548.05   47.00
  10  -2  14  615.84   49.90
  10   2  14  664.93   42.70
 -12  -2 -14   44.60   25.70
  12  -2  14   64.69   28.90
  12   2  14   86.19   23.80
  14  -2  14 1367.76   77.59
 -14  -2 -14 1439.66   76.89
  14   2  14 1358.56   67.29
  16  -2  14   24.30   32.70
 -16  -2 -14    5.90   24.10
  16   2  14    6.30   21.80
 -18  -2 -14    1.30   22.80
  18  -2  14  -55.49   27.70
 -20  -2 -14   50.89   29.70
  20  -2  14   12.80   32.30
  22  -2  14  855.01   72.69
 -22  -2 -14  754.82   61.79
 -24  -2 -14  196.08   42.00
  24  -2  14  219.08   47.50
  26  -2  14   49.90   42.00
 -26  -2 -14   87.39   35.30
 -45  -3  14   39.00   32.10
 -45   3  14  -17.90   32.20
 -43  -3  14   -1.60   30.60
 -43   3  14   41.70   29.60
  41  -3 -14   25.80   23.80
 -41  -3  14   11.30   27.30
 -41   3  14   87.79   34.90
 -39  -3  14   26.20   22.50
  39  -3 -14   55.69   25.00
 -39   3  14   -7.20   29.00
  37  -3 -14   77.59   26.90
 -37  -3  14   56.39   27.20
 -37   3  14   87.09   29.00
 -35  -3  14   75.69   26.80
  35  -3 -14   24.40   24.50
 -35   3  14   13.90   28.60
 -33  -3  14   -8.20   19.30
  33  -3 -14   16.70   22.60
 -33   3  14  -12.20   25.10
 -31  -3  14   97.29   25.50
  31  -3 -14  123.39   26.80
 -31   3  14   77.69   29.20
 -29  -3  14    5.60   15.70
  29  -3 -14   18.60   21.10
 -29   3  14  -16.30   21.70
  27  -3 -14   93.89   25.20
 -27  -3  14   51.59   19.60
 -27  -3  14   74.09   21.50
 -27   3  14   60.69   25.20
 -25  -3  14   -2.00   19.00
  25  -3 -14  -15.90   17.50
 -25  -3  14   -2.40   14.70
 -25   3  14  -19.40   18.70
 -23  -3  14   47.70   21.30
  23  -3 -14   83.29   23.60
 -23   3  14   86.19   23.50
  21  -3 -14   28.40   20.40
 -21  -3  14   46.30   20.00
 -21   3  14   31.40   19.80
 -19  -3  14  713.83   44.10
  19  -3 -14  691.13   44.90
 -19   3  14  760.32   43.00
 -17  -3  14    7.70   14.40
 -17  -3  14   16.00   17.60
  17  -3 -14    7.50    8.90
 -17   3  14   32.30   15.90
 -15  -3  14   54.79   21.40
 -15  -3  14   28.70   16.20
 -13  -3  14   49.60   20.10
  13  -3 -14   15.20   13.40
 -13  -3  14   62.59   18.10
 -11  -3  14    6.80   16.10
  11  -3 -14   40.10   16.60
  11  -3 -14   -0.10   17.10
  -9  -3  14   62.39   19.10
   9  -3 -14   48.80   19.40
   9  -3 -14   60.79   19.80
   7  -3 -14   -7.10   18.50
   7  -3 -14    3.30   17.40
  -7  -3  14   -0.80   17.10
   5  -3 -14  191.58   28.30
  -5  -3  14  164.58   27.60
   5  -3 -14  223.78   27.50
  -3  -3  14  -11.30   18.40
   3  -3 -14  -29.10   21.40
   3  -3 -14   -7.20   17.10
  -1  -3  14   91.59   25.20
   1  -3 -14  124.69   29.10
   1  -3 -14   99.39   22.00
   1  -3  14  258.57   34.00
  -1  -3 -14  228.88   28.90
  -1  -3 -14  265.37   35.50
   3  -3  14  123.29   29.20
  -3  -3 -14   92.59   29.20
  -3  -3 -14   90.89   21.90
   5  -3  14   10.40   24.20
  -5  -3 -14   49.20   20.60
  -5  -3 -14   65.59   28.10
  -7  -3 -14  402.26   43.20
  -7  -3 -14  359.96   34.80
   7  -3  14  458.15   45.70
  -9  -3 -14   59.89   21.50
  -9  -3 -14   74.69   29.30
   9  -3  14  100.99   30.40
 -11  -3 -14   16.10   25.50
  11  -3  14   -8.30   28.10
 -11  -3 -14  -19.60   17.90
  13  -3  14  183.68   39.40
 -13  -3 -14  125.29   31.90
 -15  -3 -14  144.39   33.30
  15  -3  14   89.69   38.00
 -17  -3 -14   57.39   29.00
  17  -3  14   45.30   35.10
  19  -3  14   43.90   36.80
 -19  -3 -14   61.99   31.00
 -21  -3 -14   35.90   33.20
  21  -3  14   59.79   38.90
  23  -3  14  -35.70   35.90
 -23  -3 -14  -19.40   28.90
 -25  -3 -14   53.29   32.80
 -42  -4  14    1.30   30.00
  42  -4 -14   76.49   31.50
 -42   4  14  -10.40   33.00
  40  -4 -14   66.89   31.30
 -40  -4  14   48.40   30.50
 -40   4  14   44.30   34.40
 -38  -4  14   82.89   28.80
  38  -4 -14   74.99   29.10
 -38   4  14   48.90   32.60
  36  -4 -14   49.90   25.80
 -36  -4  14  -10.60   21.40
 -36   4  14   45.70   30.90
  34  -4 -14   70.69   26.10
 -34  -4  14   68.59   23.60
 -34   4  14   24.20   29.40
 -32  -4  14  267.17   32.80
  32  -4 -14  348.27   39.70
 -32   4  14  355.36   44.60
 -30  -4  14   10.70   20.10
  30  -4 -14  -20.50   20.00
 -30   4  14    5.00   25.20
 -28  -4  14    0.50   21.30
  28  -4 -14   35.00   23.80
 -28  -4  14  -11.00   14.10
 -26  -4  14   29.30   21.60
  26  -4 -14   14.60   21.80
 -24  -4  14 1016.30   56.29
  24  -4 -14 1022.40   57.99
 -22  -4  14  143.39   26.30
  22  -4 -14  124.69   26.20
 -20  -4  14  115.49   25.00
  20  -4 -14   98.39   24.20
 -18  -4  14    0.90   21.30
  18  -4 -14    4.40   19.20
 -16  -4  14  332.97   35.60
  16  -4 -14  401.56   37.30
 -14  -4  14   -1.70   20.30
  14  -4 -14  -15.80   19.10
 -14  -4  14   -9.60   16.40
  12  -4 -14  175.78   28.20
 -12  -4  14  155.48   28.40
 -12  -4  14  187.28   26.40
  10  -4 -14   42.20   20.30
 -10  -4  14    0.30   20.20
 -10  -4  14  -16.50   18.30
   8  -4 -14  200.78   30.30
  -8  -4  14  209.18   29.50
   8  -4 -14  227.58   29.20
   6  -4 -14  409.76   39.20
  -6  -4  14  431.96   39.10
   6  -4 -14  338.97   34.50
   4  -4 -14  539.65   43.50
  -4  -4  14  530.25   44.80
   4  -4 -14  552.04   38.80
   2  -4 -14   16.90   18.90
  -2  -4  14   35.40   24.20
   2  -4 -14   51.39   29.10
   0  -4 -14  -16.40   27.30
   0  -4 -14   -4.60   18.60
   0  -4  14  -10.00   23.10
   2  -4  14   29.60   26.80
  -2  -4 -14   35.10   29.30
  -2  -4 -14   25.30   20.60
  -4  -4 -14  798.02   47.30
   4  -4  14  779.62   57.29
  -4  -4 -14  883.71   58.29
  -6  -4 -14   77.59   31.40
   6  -4  14   60.19   30.30
  -6  -4 -14   57.69   21.90
   8  -4  14    2.30   28.50
  -8  -4 -14   -5.90   16.90
  -8  -4 -14  -26.70   27.50
 -10  -4 -14  104.49   34.20
  10  -4  14   41.50   31.50
  12  -4  14  611.94   60.09
 -12  -4 -14  634.24   58.59
  14  -4  14  105.69   37.70
 -14  -4 -14   97.79   35.10
 -16  -4 -14  110.69   34.30
  16  -4  14   69.09   37.40
  18  -4  14   79.69   40.60
 -18  -4 -14   64.09   34.10
 -20  -4 -14    0.80   29.10
  20  -4  14   20.50   39.10
 -22  -4 -14   61.29   36.90
 -39  -5  14   -3.00   26.00
  37  -5 -14   50.99   28.80
 -37  -5  14  -12.70   23.90
  35  -5 -14   39.10   27.50
 -35  -5  14   25.90   20.60
  33  -5 -14   17.10   25.00
 -33  -5  14   13.50   20.70
 -31  -5  14    9.80   28.80
  31  -5 -14   48.80   27.30
 -31  -5  14   70.79   25.10
  29  -5 -14  131.59   31.10
 -29  -5  14   89.19   33.00
 -27  -5  14   21.70   27.70
  27  -5 -14   29.60   23.50
  25  -5 -14  178.58   32.00
 -25  -5  14  149.79   31.50
  23  -5 -14   19.20   22.00
 -23  -5  14   26.60   25.60
  21  -5 -14   10.10   21.60
 -21  -5  14   -0.40   25.50
 -19  -5  14   76.99   27.10
  19  -5 -14  106.39   26.40
 -17  -5  14  172.28   30.90
  17  -5 -14  164.78   29.50
  15  -5 -14   34.50   22.50
 -15  -5  14   34.20   24.40
 -13  -5  14   41.00   24.80
  13  -5 -14   54.79   24.10
 -11  -5  14  102.39   27.90
  11  -5 -14  101.19   25.70
   9  -5 -14   24.10   21.40
  -9  -5  14   21.90   23.50
  -9  -5  14   37.20   24.40
  -7  -5  14   17.10   22.70
   7  -5 -14  -31.30   19.80
  -7  -5  14   -6.30   23.20
   5  -5 -14   75.99   25.30
  -5  -5  14  113.99   27.40
   5  -5 -14  154.08   34.00
  -5  -5  14  100.99   27.80
   3  -5 -14  110.89   25.30
   3  -5 -14  145.09   35.40
  -3  -5  14  150.68   32.30
  -1  -5  14  103.79   32.30
   1  -5 -14  131.69   34.40
   1  -5 -14  102.29   24.80
   1  -5  14   -7.80   29.00
  -1  -5 -14   -7.00   19.90
  -1  -5 -14   13.50   31.70
  -3  -5 -14   48.50   34.60
   3  -5  14   39.90   30.00
  -3  -5 -14   69.19   22.50
   5  -5  14   24.30   31.40
  -5  -5 -14   36.40   36.40
   7  -5  14    7.20   31.40
  -7  -5 -14   -5.40   35.20
   9  -5  14    0.80   33.10
  -9  -5 -14  -48.50   30.60
 -11  -5 -14  -15.60   31.90
  11  -5  14   17.10   36.20
  13  -5  14  -28.80   33.90
 -13  -5 -14   11.00   32.00
 -15  -5 -14   -1.50   33.40
  15  -5  14  -41.70   35.00
  17  -5  14   24.20   41.60
 -17  -5 -14   34.00   36.10
 -19  -5 -14   -8.40   33.30
 -36  -6  14  -17.10   19.70
 -34  -6  14  134.49   40.80
 -34  -6  14  195.58   33.80
 -32  -6  14  -11.30   30.20
  32  -6 -14   58.09   29.10
 -32  -6  14   40.00   24.30
 -30  -6  14   21.20   31.20
  30  -6 -14   57.79   28.90
  28  -6 -14   -5.60   23.30
 -28  -6  14  -26.90   29.10
 -26  -6  14   72.89   34.20
  26  -6 -14   97.39   28.80
 -24  -6  14    3.20   30.80
  24  -6 -14   24.80   25.00
 -22  -6  14  134.99   35.20
  22  -6 -14  182.38   32.60
  20  -6 -14   75.49   26.60
 -20  -6  14   66.39   32.20
 -18  -6  14   12.70   29.60
  18  -6 -14   -5.00   21.60
  16  -6 -14    4.30   22.10
 -16  -6  14    2.00   27.60
 -14  -6  14  700.33   55.69
  12  -6 -14   28.70   24.60
 -12  -6  14    7.10   26.30
 -10  -6  14    1.30   26.20
  10  -6 -14  -17.70   20.50
   8  -6 -14  112.69   27.50
  -8  -6  14   83.99   28.90
   6  -6 -14  181.58   30.70
  -6  -6  14  141.89   32.10
   4  -6 -14   26.30   24.40
  -4  -6  14   27.60   25.90
  -4  -6  14    2.00   29.70
   2  -6 -14  229.98   33.10
  -2  -6  14  239.98   41.00
  -2  -6  14  270.57   38.40
   2  -6 -14  310.77   45.90
   0  -6  14   19.90   25.20
   0  -6 -14   14.20   35.30
   0  -6  14    4.60   32.00
   2  -6  14  201.28   34.70
   2  -6  14  163.18   40.10
  -2  -6 -14  236.78   44.40
  -4  -6 -14   58.59   37.40
   4  -6  14   10.10   33.20
  -6  -6 -14  311.87   51.59
   6  -6  14  226.48   44.70
  -8  -6 -14   52.49   38.70
   8  -6  14  -14.20   37.40
  10  -6  14   98.49   42.40
 -10  -6 -14  106.09   41.90
  12  -6  14  -39.70   36.00
 -12  -6 -14  -11.50   35.60
 -14  -6 -14  108.29   45.80
 -16  -6 -14  -19.20   37.50
 -29  -7  14  -10.80   34.30
 -27  -7  14  -50.39   31.90
  25  -7 -14   43.00   28.10
 -25  -7  14  -14.90   32.90
  23  -7 -14   64.09   28.20
 -23  -7  14   15.40   34.70
  21  -7 -14   15.30   26.80
 -21  -7  14   16.10   33.70
 -19  -7  14  -35.60   32.20
  19  -7 -14   20.00   25.10
 -17  -7  14   26.60   32.50
  17  -7 -14   33.80   26.60
  15  -7 -14    9.10   26.00
 -15  -7  14   25.60   30.90
 -13  -7  14    7.50   29.10
  13  -7 -14   31.00   24.10
 -11  -7  14  -36.20   29.70
  11  -7 -14   11.10   24.70
  -9  -7  14   19.80   29.50
   9  -7 -14   29.00   25.80
   7  -7 -14  133.09   29.90
  -7  -7  14  116.39   34.20
  -5  -7  14  -22.00   26.60
  -3  -7  14   26.20   29.50
  -1  -7  14   56.39   31.20
   1  -7  14   68.99   40.00
  -1  -7 -14  210.98   46.50
   1  -7  14   87.99   34.00
   3  -7  14   -5.80   31.10
   3  -7  14  -19.70   37.00
  -3  -7 -14   60.59   42.10
   5  -7  14    2.70   28.70
   5  -7  14   10.60   40.70
  -5  -7 -14   32.70   43.90
   7  -7  14   81.39   44.80
  -7  -7 -14   66.29   44.20
   7  -7  14   82.69   34.00
  -9  -7 -14   46.10   42.90
   9  -7  14   36.80   40.80
   9  -7  14   50.59   33.10
  11  -7  14   38.50   35.70
 -11  -7 -14   66.99   45.40
 -20  -8  14    8.90   37.70
 -18  -8  14   46.70   37.80
  18  -8 -14   32.30   27.30
 -16  -8  14  -36.90   32.70
  16  -8 -14   52.39   30.70
 -14  -8  14   16.10   36.90
  14  -8 -14   14.80   27.50
 -12  -8  14   15.10   33.60
  12  -8 -14  -27.70   24.40
 -10  -8  14   30.90   35.30
  -8  -8  14   18.00   32.80
  -6  -8  14   39.10   34.50
  -4  -8  14   53.69   37.90
  -2  -8  14   -8.50   35.80
   0  -8  14  -18.00   32.10
 -46   0  15  -20.50   24.10
 -44   0  15    8.70   24.10
 -42   0  15    1.70   21.30
 -40   0  15   -0.40   21.60
 -38   0  15    5.80   20.50
 -36   0  15    8.40   19.50
 -34   0  15    0.10   18.00
  32   0 -15    5.10   15.40
 -32   0  15   32.10   21.40
  30   0 -15   18.70   14.70
 -30   0  15   -6.90   19.50
 -28   0  15    0.60   18.70
  28   0 -15   -5.90   13.30
 -26   0  15  -10.70   14.90
  26   0 -15   25.00   15.30
  24   0 -15   13.70   14.30
 -24   0  15   -0.40   18.20
  22   0 -15   10.90   14.40
 -22   0  15    7.20   17.20
 -20   0  15  -22.30   13.60
  20   0 -15   17.80   14.90
 -18   0  15   22.80   15.20
  18   0 -15   13.70   13.50
 -16   0  15   -4.60   11.90
  16   0 -15  -13.80   12.60
  14   0 -15  -10.20   11.80
 -14   0  15   -3.70   12.00
  12   0 -15    4.30   12.70
 -12   0  15   -1.70   10.40
  10   0 -15    6.50   13.30
 -10   0  15   12.60   10.30
   8   0 -15    7.90   13.60
   6   0 -15    0.70   12.80
   4   0 -15   -2.90    3.80
   2   0 -15    1.20    4.30
   0   0 -15   -2.20    8.20
  -2   0 -15    6.80   17.00
  -4   0 -15   -2.20   17.50
   4   0  15   -6.20   18.60
  -6   0 -15   31.40   20.40
   6   0  15   21.40   22.50
   8   0  15   26.60   21.20
  -8   0 -15   -2.20   16.40
 -10   0 -15   10.30   20.70
  10   0  15  -26.10   19.90
 -12   0 -15   -9.60   20.60
  12   0  15   -4.30   23.60
  14   0  15   11.60   24.70
 -14   0 -15   -6.00   22.40
  16   0  15  -12.40   23.90
 -16   0 -15   25.70   24.90
 -18   0 -15  -11.60   24.40
  18   0  15   -5.80   28.10
  20   0  15  -42.20   28.20
 -20   0 -15    5.00   27.20
  22   0  15  -77.89   29.40
 -22   0 -15  -12.50   26.20
 -47  -1  15   69.59   34.90
 -47   1  15   57.79   34.90
 -45  -1  15   58.19   32.50
 -45   1  15   46.40   33.20
 -43  -1  15   17.30   24.00
 -43   1  15   49.10   31.10
 -41  -1  15  198.68   36.50
 -41   1  15  295.57   41.70
 -39  -1  15   11.80   24.70
 -39   1  15  -36.40   17.80
 -37  -1  15    4.80   20.60
 -37   1  15   -0.60   20.40
 -35  -1  15   28.10   25.20
  35  -1 -15   29.20   19.20
 -35   1  15   22.30   24.20
  33  -1 -15  437.56   38.80
 -33  -1  15  403.66   42.70
 -33   1  15  394.66   40.20
 -31  -1  15    7.00   18.10
  31  -1 -15   11.70   18.00
 -31   1  15   30.10   19.80
 -29  -1  15   63.69   20.80
  29  -1 -15   89.29   21.70
 -29   1  15   74.49   24.80
  27  -1 -15  211.18   27.50
 -27  -1  15  152.28   25.50
  27   1 -15  172.78   21.70
 -27   1  15  185.88   27.10
 -25  -1  15  584.44   42.00
  25  -1 -15  599.64   38.90
  25   1 -15  614.84   35.30
 -25   1  15  639.74   43.30
  23  -1 -15  161.18   24.20
 -23  -1  15  168.88   23.20
  23   1 -15  164.58   21.20
 -23   1  15  153.98   25.30
  21  -1 -15  161.48   23.40
 -21  -1  15  156.68   22.70
 -21   1  15  138.19   23.40
  21   1 -15  194.18   22.30
 -19  -1  15  142.99   20.90
  19  -1 -15  177.98   24.10
 -19  -1  15  179.58   20.10
  19   1 -15  201.18   22.20
 -19   1  15  161.28   22.90
 -17  -1  15  256.47   24.80
  17  -1 -15  339.07   30.30
 -17   1  15  254.87   25.70
  17   1 -15  252.67   25.00
  15  -1 -15  444.36   32.20
 -15  -1  15  473.55   28.80
  15   1 -15  469.35   30.70
 -15   1  15  447.56   28.60
  13  -1 -15 1153.78   54.49
 -13  -1  15 1190.68   49.90
 -13   1  15 1154.98   49.10
  13   1 -15 1155.08   52.79
 -11  -1  15  196.58   19.10
  11  -1 -15  202.88   24.40
  11   1 -15  194.28   23.30
 -11   1  15  212.28   18.50
   9  -1 -15    1.50    4.90
   9   1 -15   31.70   14.50
   7  -1 -15   22.10   13.70
   7  -1 -15   -2.80    3.90
   7   1 -15    6.10   14.20
   5  -1 -15 1396.86   62.39
   5   1 -15 1412.96   63.49
   3  -1 -15    6.20   14.50
   3  -1 -15   18.70   15.20
   3   1 -15    7.10   15.50
   1  -1 -15   16.30   17.00
  -1  -1  15   18.90    6.40
   1  -1 -15   -0.60   15.10
  -1  -1 -15    0.60   16.50
   1  -1  15    8.80    9.50
  -1  -1 -15   17.80   18.90
  -3  -1 -15 1060.19   56.09
   3  -1  15 1113.49   58.69
  -3  -1 -15 1135.39   59.99
   5  -1  15  256.57   33.30
  -5  -1 -15  261.67   34.80
  -5  -1 -15  280.77   33.40
   7  -1  15   32.80   22.70
  -7  -1 -15   16.40   20.50
   7   1  15   16.40   20.00
  -9  -1 -15  702.63   49.20
   9  -1  15  586.54   46.90
   9   1  15  577.84   44.50
  11  -1  15   69.19   26.50
 -11  -1 -15   44.30   25.10
  11   1  15   56.89   22.50
 -13  -1 -15  383.46   44.10
  13  -1  15  511.45   50.09
  13   1  15  486.95   44.60
  15  -1  15  275.97   42.20
 -15  -1 -15  315.47   42.50
  15   1  15  297.27   38.10
 -17  -1 -15   66.29   28.50
  17  -1  15   -2.30   29.40
  17   1  15   38.80   25.80
 -19  -1 -15   22.30   28.90
  19  -1  15  -13.50   31.50
  19   1  15   -4.30   24.50
 -21  -1 -15   28.70   32.90
  21  -1  15   -0.50   32.50
 -23  -1 -15  309.07   49.30
  23  -1  15  274.57   49.80
 -25  -1 -15  -46.70   28.10
  25  -1  15  -15.20   37.20
 -46  -2  15   25.20   31.40
 -46   2  15   -6.40   31.60
 -44  -2  15    2.90   28.00
 -44   2  15   38.00   32.20
 -42  -2  15    8.90   27.30
 -42   2  15  -17.70   27.40
 -40  -2  15   16.60   26.70
 -40   2  15    2.20   24.10
  38  -2 -15  113.79   27.40
 -38  -2  15  111.69   32.20
 -38   2  15  124.29   33.50
  36  -2 -15   91.89   25.90
 -36  -2  15   43.40   23.30
 -36   2  15   55.69   25.70
 -34  -2  15  -46.00   19.50
  34  -2 -15   84.59   24.90
 -34   2  15  -12.70   19.60
  32  -2 -15   20.00   20.60
 -32  -2  15   28.60   23.00
 -32   2  15    7.00   20.20
  30  -2 -15   44.10   21.10
 -30  -2  15    2.80   19.50
 -30   2  15   53.49   24.60
 -28  -2  15   95.09   21.50
  28  -2 -15  100.49   22.50
 -28   2  15   99.19   26.40
 -26  -2  15    3.80   15.30
  26  -2 -15    6.40   17.90
 -26   2  15   25.50   21.20
 -24  -2  15   42.40   17.10
  24  -2 -15   49.70   21.30
 -24   2  15   26.80   20.30
 -22  -2  15   38.80   16.20
 -22  -2  15   45.00   17.90
  22  -2 -15   20.60   19.60
 -22   2  15   49.10   20.10
  22   2 -15   38.00   14.30
 -20  -2  15    5.40   15.40
  20  -2 -15  -12.00   16.30
 -20  -2  15    8.70   16.00
  20   2 -15   -1.60   12.10
 -20   2  15    5.00   17.90
 -18  -2  15  187.28   23.80
  18  -2 -15  235.88   28.60
 -18  -2  15  162.28   22.40
  18   2 -15  194.98   22.30
 -18   2  15  192.88   23.10
 -16  -2  15  231.88   26.50
  16  -2 -15  226.48   26.30
  16   2 -15  276.87   25.40
 -16   2  15  177.18   21.90
  14  -2 -15    5.60    5.50
 -14   2  15    5.40   12.60
  14   2 -15   32.70   14.40
  12  -2 -15  191.58   19.40
  12   2 -15  206.78   24.10
 -12   2  15  184.28   18.60
  10  -2 -15  131.29   18.60
  10   2 -15  177.08   22.60
  -8  -2  15   68.09   19.70
   8  -2 -15   96.39   17.80
   8  -2 -15   55.79   18.00
   8   2 -15   77.49   19.90
   6  -2 -15  244.08   25.60
   6  -2 -15  225.48   26.60
  -6  -2  15  226.68   27.70
   4  -2 -15  193.28   25.40
  -4  -2  15  236.68   29.60
   4  -2 -15  237.18   27.30
   2  -2 -15   17.40   16.90
  -2  -2  15   33.70   20.20
   2  -2 -15   30.40   18.60
   0  -2 -15   46.90   20.30
   0  -2  15   44.70   22.40
   0  -2 -15   26.80   20.20
   2  -2  15  -15.50   20.70
  -2  -2 -15   -7.90   20.40
  -2  -2 -15   10.60   17.30
   4  -2  15   -9.20   21.50
  -4  -2 -15    0.50   21.90
  -4  -2 -15    1.20   17.40
  -6  -2 -15  295.67   36.30
   6  -2  15  267.17   36.00
  -6  -2 -15  342.47   34.30
  -8  -2 -15  224.28   29.90
  -8  -2 -15  259.07   35.90
   8  -2  15  217.68   35.20
  10  -2  15   85.39   30.90
 -10  -2 -15   63.59   26.30
  10   2  15   89.29   24.30
  12  -2  15   63.19   30.60
 -12  -2 -15   78.69   27.30
  12   2  15   41.30   22.90
 -14  -2 -15   13.70   25.00
  14  -2  15   21.30   30.10
  14   2  15    5.80   20.70
  16  -2  15   16.60   32.80
 -16  -2 -15   35.10   26.10
  18  -2  15   -0.90   31.70
 -18  -2 -15   34.20   26.10
 -20  -2 -15   37.00   29.70
  20  -2  15  -13.00   35.90
  22  -2  15  -23.00   34.40
 -22  -2 -15   38.90   31.40
 -24  -2 -15   59.69   35.80
  24  -2  15  -98.79   33.70
 -45  -3  15  -16.10   25.30
 -45   3  15  -20.80   32.90
 -43  -3  15   72.89   34.40
  43  -3 -15  144.09   33.30
 -43   3  15  122.49   39.80
  41  -3 -15   89.09   29.90
 -41  -3  15   53.19   27.50
 -41   3  15  123.39   39.10
  39  -3 -15   74.79   27.30
 -39  -3  15   -4.40   23.90
 -39   3  15  -11.00   28.80
  37  -3 -15   83.69   26.20
 -37  -3  15   71.69   25.10
 -37   3  15  110.29   34.80
  35  -3 -15   45.90   23.80
 -35  -3  15   11.90   19.20
 -35   3  15   36.60   29.00
  33  -3 -15  412.66   42.30
 -33  -3  15  390.16   41.40
 -33   3  15  295.27   39.00
  31  -3 -15  116.99   27.20
 -31  -3  15   96.39   25.80
 -31   3  15  118.59   30.60
  29  -3 -15   19.50   21.90
 -29  -3  15   -2.10   18.50
 -29   3  15    6.60   23.20
 -27  -3  15   93.39   21.20
  27  -3 -15  112.49   26.60
 -27   3  15  154.68   29.10
 -25  -3  15  127.59   23.90
  25  -3 -15  159.88   27.60
 -25  -3  15  118.39   23.40
 -25   3  15  106.49   25.70
  23  -3 -15   64.49   21.70
 -23  -3  15   48.40   20.10
 -23  -3  15   62.19   17.90
 -23   3  15   36.10   21.10
  21  -3 -15   36.40   19.90
 -21  -3  15   16.70   18.60
 -21   3  15    5.20   17.80
  19  -3 -15  506.45   39.10
 -19  -3  15  446.86   35.30
 -19   3  15  521.85   35.60
  17  -3 -15   10.40   19.40
 -17  -3  15    7.30   15.60
 -17  -3  15   18.80   18.40
 -17   3  15   40.40   16.40
  15  -3 -15   53.49   20.30
 -15  -3  15   65.69   21.30
 -15  -3  15   66.29   18.60
 -13  -3  15  144.49   25.70
 -13  -3  15  116.89   22.30
  13  -3 -15  150.38   25.20
 -11  -3  15   43.30   19.30
  11  -3 -15   19.90   18.60
   9  -3 -15   28.90   19.90
   9  -3 -15   10.20   17.20
  -9  -3  15   11.10   19.10
   7  -3 -15  369.36   33.10
   7  -3 -15  391.86   34.80
  -7  -3  15  357.66   34.60
   5  -3 -15  623.84   40.40
  -5  -3  15  569.24   41.40
   5  -3 -15  608.04   42.40
   3  -3 -15   15.70   23.40
  -3  -3  15   43.80   22.30
   3  -3 -15   38.30   19.30
  -1  -3  15   96.89   26.40
   1  -3 -15   53.29   26.60
   1  -3 -15   59.89   21.20
  -1  -3 -15   35.60   19.00
  -1  -3 -15   71.79   28.00
   1  -3  15   14.00   22.70
  -3  -3 -15  348.87   39.60
   3  -3  15  321.37   38.10
  -3  -3 -15  333.87   34.10
  -5  -3 -15  420.76   37.20
  -5  -3 -15  392.66   42.80
   5  -3  15  416.46   44.10
   7  -3  15  168.08   34.70
  -7  -3 -15  158.68   26.60
  -7  -3 -15  120.59   31.30
  -9  -3 -15   26.80   26.00
  -9  -3 -15   -8.30   18.80
   9  -3  15    2.90   28.10
 -11  -3 -15    4.70   27.30
  11  -3  15  -59.19   27.30
 -11  -3 -15    9.20   21.00
 -13  -3 -15  102.29   31.90
  13  -3  15  154.18   39.40
 -15  -3 -15  117.89   33.50
  15  -3  15   59.69   37.80
  17  -3  15  -44.30   31.40
 -17  -3 -15   42.90   30.20
 -19  -3 -15   41.30   30.70
  19  -3  15   39.00   38.00
 -21  -3 -15  177.38   40.10
  21  -3  15  181.18   47.70
 -23  -3 -15  168.08   40.40
 -42  -4  15    8.10   28.40
  42  -4 -15   63.19   30.40
 -42   4  15   -9.50   31.20
  40  -4 -15   44.90   29.80
 -40  -4  15   -7.20   24.50
 -40   4  15   10.20   32.30
 -38  -4  15   -7.10   18.50
  38  -4 -15   22.50   26.40
 -38   4  15   47.40   30.10
 -36  -4  15    4.50   18.60
  36  -4 -15   40.20   27.30
 -36   4  15   19.50   29.20
 -34  -4  15   20.20   20.30
  34  -4 -15   26.60   26.10
 -34   4  15   22.90   28.60
  32  -4 -15   19.90   24.20
 -32  -4  15  -22.90   15.30
 -32   4  15   -7.80   26.20
  30  -4 -15  187.58   31.60
 -30  -4  15  199.28   31.10
 -30   4  15  128.59   32.50
  28  -4 -15   62.29   26.10
 -28  -4  15   81.79   23.40
 -28  -4  15   65.89   23.80
 -26  -4  15   30.20   22.10
  26  -4 -15   87.49   25.70
 -24  -4  15   -8.60   19.30
  24  -4 -15   -5.10   20.80
  22  -4 -15   80.69   24.10
 -22  -4  15   55.79   22.40
 -20  -4  15    9.30   21.60
  20  -4 -15   24.70   19.70
  18  -4 -15   14.50   20.40
 -18  -4  15   15.20   20.40
 -16  -4  15   81.79   24.10
  16  -4 -15   70.09   23.20
  14  -4 -15   84.99   23.80
 -14  -4  15   44.20   22.60
 -14  -4  15   49.10   20.70
 -12  -4  15   58.89   23.30
 -12  -4  15   41.50   20.10
  12  -4 -15   38.90   20.20
 -10  -4  15  179.88   29.20
  10  -4 -15  182.38   27.40
 -10  -4  15  184.98   27.90
   8  -4 -15  178.38   28.10
  -8  -4  15   24.60   22.40
   8  -4 -15   31.10   21.10
   6  -4 -15   90.09   24.30
   6  -4 -15  105.59   27.20
  -6  -4  15  102.09   27.50
   4  -4 -15   24.40   19.70
  -4  -4  15  -19.10   22.10
   4  -4 -15   29.70   26.00
  -2  -4  15   22.90   24.00
   2  -4 -15   29.80   21.40
   2  -4 -15   24.80   25.10
   0  -4  15   -2.10   26.40
   0  -4 -15  -29.60   18.70
   0  -4 -15   23.40   28.50
  -2  -4 -15   10.80   18.30
  -2  -4 -15   18.80   27.80
   2  -4  15   16.90   25.80
  -4  -4 -15  194.68   36.90
   4  -4  15  179.98   36.00
  -4  -4 -15  181.58   27.30
  -6  -4 -15   13.20   31.30
   6  -4  15   17.80   29.70
  -6  -4 -15   -1.10   19.70
   8  -4  15    1.50   28.80
  -8  -4 -15   15.50   29.60
  10  -4  15  173.28   40.70
 -10  -4 -15  199.98   39.90
 -12  -4 -15   19.40   30.80
  12  -4  15   12.60   32.90
 -14  -4 -15   20.70   29.50
  14  -4  15   26.00   35.40
  16  -4  15  -20.30   33.10
 -16  -4 -15   44.80   31.00
  18  -4  15  -58.99   34.30
 -18  -4 -15   21.00   30.30
 -20  -4 -15   72.49   34.20
 -39  -5  15   -0.70   21.70
 -37  -5  15  -34.50   16.90
  37  -5 -15    7.10   27.60
 -35  -5  15   30.40   20.20
  35  -5 -15   54.89   29.20
 -33  -5  15  157.28   30.70
  33  -5 -15  223.18   37.90
 -31  -5  15   18.00   29.40
  31  -5 -15   74.09   28.20
 -31  -5  15   59.69   23.70
 -29  -5  15    4.00   26.30
  29  -5 -15   -2.60   23.90
 -27  -5  15    7.20   24.40
  27  -5 -15   49.50   25.10
 -25  -5  15  354.36   41.70
  25  -5 -15  285.07   36.00
  23  -5 -15  273.87   35.40
 -23  -5  15  301.27   37.20
  21  -5 -15  -19.00   20.90
 -21  -5  15   27.10   27.20
 -19  -5  15    0.60   23.20
  19  -5 -15  -11.40   20.40
  17  -5 -15  137.19   28.20
 -17  -5  15  155.48   31.40
  15  -5 -15  109.69   28.90
 -15  -5  15  106.29   28.50
  13  -5 -15  275.17   34.60
 -13  -5  15  301.57   37.20
 -11  -5  15   -6.20   21.60
  11  -5 -15   33.10   21.70
  -9  -5  15   15.40   23.50
   9  -5 -15    0.60   21.40
  -9  -5  15    9.70   24.10
   7  -5 -15   17.10   23.20
  -7  -5  15   34.80   24.10
  -7  -5  15   -0.50   25.10
   5  -5 -15  120.69   27.80
   5  -5 -15  170.28   34.60
  -5  -5  15  134.49   28.90
  -5  -5  15  159.18   33.50
   3  -5 -15   51.29   31.80
   3  -5 -15   -8.00   18.90
  -3  -5  15   18.90   27.30
  -1  -5  15   48.50   29.70
   1  -5 -15   56.39   24.50
   1  -5 -15  103.69   35.00
   1  -5  15   -3.90   30.20
  -1  -5 -15   29.10   22.60
  -1  -5 -15   76.19   33.00
   3  -5  15  213.98   39.90
  -3  -5 -15  258.37   45.20
  -3  -5 -15  285.97   33.10
  -5  -5 -15  221.98   41.80
   5  -5  15  109.19   37.10
   7  -5  15  -22.60   31.10
  -7  -5 -15  -24.20   31.40
  -9  -5 -15   10.90   32.60
   9  -5  15   22.00   34.90
 -11  -5 -15   74.49   36.00
  11  -5  15    1.30   38.30
  13  -5  15   48.60   39.90
 -13  -5 -15   49.70   37.70
 -15  -5 -15  -30.40   32.70
  15  -5  15  -55.79   36.30
 -17  -5 -15   48.40   38.60
 -34  -6  15    9.30   23.40
  32  -6 -15  134.59   35.30
 -32  -6  15  168.98   41.30
 -32  -6  15  155.78   31.50
 -30  -6  15  -41.70   32.50
  30  -6 -15   84.69   29.30
 -28  -6  15  -74.29   29.50
  28  -6 -15   51.79   26.90
 -26  -6  15   21.40   32.00
  26  -6 -15   77.49   28.70
 -24  -6  15  -27.10   26.50
  24  -6 -15    4.70   23.50
 -22  -6  15    4.50   28.90
  22  -6 -15   -4.10   25.40
 -20  -6  15  121.39   33.80
  20  -6 -15   93.89   27.70
  18  -6 -15   40.00   27.00
 -18  -6  15   -5.50   26.60
 -16  -6  15   61.79   31.80
  16  -6 -15   20.00   23.60
 -14  -6  15   21.70   28.00
  14  -6 -15   30.30   25.00
 -12  -6  15  361.36   43.50
 -10  -6  15    7.60   27.00
  10  -6 -15   -3.30   21.60
  -8  -6  15   89.09   30.40
   8  -6 -15   76.59   27.20
  -6  -6  15  135.89   32.20
   6  -6 -15  102.29   27.10
  -4  -6  15    5.90   31.90
  -4  -6  15   49.40   27.10
   4  -6 -15   46.80   24.20
   2  -6 -15   42.60   24.10
  -2  -6  15   80.49   28.40
  -2  -6  15   82.09   36.00
   2  -6 -15   67.79   34.40
   0  -6  15   41.70   27.20
   0  -6 -15   42.20   37.30
   0  -6  15   24.90   31.30
   2  -6  15  153.28   41.10
   2  -6  15  172.48   34.80
  -2  -6 -15  290.47   46.50
  -4  -6 -15   87.29   37.50
   4  -6  15    1.20   33.00
   6  -6  15  -14.20   33.80
  -6  -6 -15   41.40   36.90
  -8  -6 -15   15.70   37.50
   8  -6  15   36.30   38.80
  10  -6  15   35.10   41.00
 -10  -6 -15   74.69   43.90
 -12  -6 -15   -0.80   38.50
 -14  -6 -15    8.50   37.80
 -29  -7  15  -18.20   38.70
 -27  -7  15  -11.60   37.90
 -25  -7  15   42.10   39.40
  25  -7 -15   59.79   32.10
  23  -7 -15   -8.00   25.30
 -23  -7  15   -9.70   35.30
  21  -7 -15   19.80   26.00
 -21  -7  15  -41.40   30.10
 -19  -7  15   -1.10   31.00
  19  -7 -15    7.90   23.90
  17  -7 -15   46.60   26.20
 -17  -7  15   -0.20   31.50
 -15  -7  15   34.40   34.90
  15  -7 -15   77.99   28.60
  13  -7 -15   41.10   25.70
 -13  -7  15   46.00   33.30
 -11  -7  15   44.20   30.80
  11  -7 -15   78.09   27.90
  -9  -7  15   12.50   30.10
   9  -7 -15   32.20   23.70
  -7  -7  15   38.20   29.50
   7  -7 -15   22.20   22.80
  -5  -7  15  183.18   38.90
  -3  -7  15   45.30   28.60
  -1  -7  15   -5.60   28.40
   1  -7  15   22.00   29.30
   1  -7  15   10.90   33.70
  -1  -7 -15   30.30   38.30
   3  -7  15   50.89   39.50
   3  -7  15   36.60   32.00
  -3  -7 -15   46.50   40.50
   5  -7  15    1.30   38.40
   5  -7  15   47.50   33.50
  -5  -7 -15    4.70   40.50
   7  -7  15    7.30   33.60
  -7  -7 -15   20.60   42.60
   7  -7  15   -0.70   43.00
 -18  -8  15  -57.59   33.30
  16  -8 -15   16.50   26.70
 -16  -8  15  -11.90   33.40
 -14  -8  15  -15.90   33.20
  14  -8 -15  -27.60   23.50
 -12  -8  15  -25.50   32.90
  12  -8 -15   41.90   29.60
 -10  -8  15  -31.90   31.90
  -8  -8  15   22.60   34.20
  -6  -8  15  -46.90   29.50
  -4  -8  15   28.80   33.90
 -46   0  16   23.00   31.20
 -44   0  16  448.56   51.99
 -42   0  16    4.50   26.30
 -40   0  16  423.56   47.10
 -38   0  16  115.99   30.50
 -36   0  16  535.85   49.10
 -34   0  16   -7.30   17.90
  32   0 -16  399.26   32.00
 -32   0  16  427.76   41.50
  30   0 -16   65.49   18.20
 -30   0  16   45.60   22.70
  28   0 -16   46.30   17.20
 -28   0  16   23.40   19.50
  26   0 -16  185.68   24.30
 -26   0  16  101.19   24.00
 -24   0  16 2920.11  113.39
  24   0 -16 2853.11  111.79
 -22   0  16   58.39   20.00
  22   0 -16   87.99   19.10
  20   0 -16   56.39   18.00
 -20   0  16   55.49   18.20
  18   0 -16  161.88   22.60
 -18   0  16  124.69   21.90
  16   0 -16 2635.84  102.79
 -16   0  16 2648.44   99.69
 -14   0  16  183.08   21.10
  14   0 -16  239.88   26.20
  12   0 -16 1194.58   56.19
 -12   0  16 1222.78   50.89
  10   0 -16  537.85   34.90
   8   0 -16 1392.36   63.29
   6   0 -16   -4.40    5.90
   4   0 -16   -5.20    3.70
   2   0 -16   -2.20    5.80
   0   0 -16  245.08   30.70
  -2   0 -16  -11.50   16.70
   4   0  16  496.55   40.90
   6   0  16  189.38   29.90
  -6   0 -16  125.99   26.90
   8   0  16  442.66   42.80
  -8   0 -16  486.55   45.50
 -10   0 -16  387.06   42.60
  10   0  16  370.76   40.80
  12   0  16 1449.26   76.79
 -12   0 -16 1500.05   79.89
  14   0  16   96.59   30.70
 -14   0 -16   54.09   26.60
  16   0  16   35.70   30.50
 -16   0 -16  115.79   31.30
  18   0  16   33.10   32.20
 -18   0 -16  112.09   33.20
  20   0  16   75.39   36.60
  22   0  16  374.16   53.79
 -47  -1  16  -11.20   30.90
 -47   1  16   10.80   27.80
 -45  -1  16   -4.80   23.60
 -45   1  16  -30.70   26.90
 -43  -1  16  -28.20   24.80
 -43   1  16  -11.60   23.00
 -41  -1  16  -14.00   19.30
 -41   1  16    1.90   25.20
 -39  -1  16   66.59   28.10
 -39   1  16    2.10   25.40
 -37  -1  16    3.10   23.60
 -37   1  16   25.40   25.90
 -35  -1  16   28.50   24.70
  35  -1 -16    2.70   17.20
 -35   1  16   -8.10   22.90
 -33  -1  16  169.38   31.60
  33  -1 -16  192.88   28.50
 -33   1  16  146.59   31.10
  31  -1 -16    0.10   17.90
 -31  -1  16    2.70   18.10
 -31   1  16   19.30   18.60
  29  -1 -16   11.50   16.70
 -29  -1  16    6.20   19.30
 -29   1  16  -16.50   19.10
  27  -1 -16   65.99   20.70
 -27  -1  16   66.99   22.70
  27   1 -16   45.80   15.90
 -27   1  16   41.00   21.90
 -25  -1  16  318.77   33.00
  25  -1 -16  241.18   28.70
  25   1 -16  236.78   26.10
 -25   1  16  245.28   30.40
  23  -1 -16   11.80   16.20
 -23  -1  16    4.40   17.20
 -23   1  16    9.70   17.90
  23   1 -16   30.60   15.40
 -21  -1  16  441.56   32.70
  21  -1 -16  417.16   32.60
 -21   1  16  418.66   34.80
  21   1 -16  407.36   30.40
  19  -1 -16  586.84   38.80
 -19  -1  16  616.74   37.40
 -19  -1  16  682.63   36.10
 -19   1  16  587.14   37.30
  19   1 -16  615.34   35.90
 -17  -1  16  348.07   27.50
  17  -1 -16  395.36   31.30
  17   1 -16  386.06   29.30
 -17   1  16  357.16   28.00
 -15  -1  16   34.30   14.40
  15  -1 -16   43.80   17.60
 -15   1  16   21.20   14.20
  15   1 -16    8.10   13.40
  13  -1 -16   -6.90   13.80
 -13  -1  16   14.10   12.70
 -13   1  16   11.00   12.70
  13   1 -16    9.50   13.70
  11  -1 -16  108.29   19.10
  11   1 -16  132.79   21.20
  -9  -1  16  153.38   16.60
   9   1 -16  153.58   22.40
   7  -1 -16  468.05   31.80
   7   1 -16  472.85   33.70
   5  -1 -16   72.39   18.10
   5   1 -16   72.99   18.90
   3  -1 -16  410.66   33.00
   3  -1 -16  420.26   36.80
   3   1 -16  393.16   35.80
   1  -1 -16  131.49   25.60
  -1  -1  16   78.99   22.40
   1  -1 -16  183.38   25.80
  -1  -1 -16   -2.20   17.10
  -1  -1 -16   17.60   19.00
   1  -1  16   -3.10   19.00
   3  -1  16    1.80   20.50
  -3  -1 -16    8.90   20.10
  -3  -1 -16   36.40   20.20
   5  -1  16  126.79   28.40
  -5  -1 -16   99.19   26.00
  -5  -1 -16  142.09   27.40
  -7  -1 -16   13.80   22.10
   7  -1  16   14.60   23.60
   7   1  16    3.20   19.90
   9  -1  16    2.40   22.30
  -9  -1 -16   -8.50   22.10
   9   1  16   17.30   21.30
  11  -1  16  123.99   30.90
 -11  -1 -16  124.99   31.30
  11   1  16  146.19   29.60
 -13  -1 -16   16.40   26.10
  13  -1  16   57.19   29.90
  13   1  16   64.99   26.20
 -15  -1 -16   45.50   28.00
  15  -1  16  -35.30   29.20
  15   1  16   45.00   26.30
 -17  -1 -16  139.49   36.20
  17  -1  16   94.69   35.00
  17   1  16   73.99   31.30
  19  -1  16   26.40   32.30
 -19  -1 -16   12.30   29.40
  19   1  16   25.40   30.50
  21  -1  16  -26.40   34.90
 -21  -1 -16   33.40   31.00
 -23  -1 -16   12.70   31.60
  23  -1  16   -3.90   34.10
 -46  -2  16   -0.80   26.10
 -46   2  16   13.90   32.00
 -44  -2  16   26.90   26.10
 -44   2  16   73.99   35.10
 -42  -2  16  235.48   38.60
 -42   2  16  175.48   36.90
 -40  -2  16   23.20   24.20
 -40   2  16   -7.70   28.00
  38  -2 -16  -16.60   19.20
 -38  -2  16   28.20   23.90
 -38   2  16   37.90   25.00
  36  -2 -16   32.10   21.60
 -36  -2  16   -7.10   22.90
 -36   2  16  -42.10   23.40
 -34  -2  16  348.37   40.70
  34  -2 -16  309.27   36.90
 -34   2  16  258.77   38.40
  32  -2 -16  231.18   32.20
 -32  -2  16  203.78   32.90
 -32   2  16  168.88   29.90
 -30  -2  16   27.70   20.30
  30  -2 -16   28.10   19.90
 -30   2  16    2.50   22.00
  28  -2 -16   28.30   19.80
 -28  -2  16   24.00   19.30
 -28   2  16   43.00   23.20
 -26  -2  16  246.98   30.80
  26  -2 -16  302.27   33.30
 -26   2  16  225.88   31.10
  24  -2 -16  -21.60   16.70
 -24  -2  16    0.70   14.60
 -24   2  16   41.60   20.80
 -22  -2  16  157.98   22.70
  22  -2 -16  181.48   27.70
 -22  -2  16  173.38   23.00
 -22   2  16  144.29   24.90
  22   2 -16  218.08   23.80
  20  -2 -16  263.47   30.00
 -20  -2  16  297.97   27.40
 -20  -2  16  230.78   26.80
 -20   2  16  176.28   25.90
  20   2 -16  269.37   26.30
 -18  -2  16  312.07   29.40
  18  -2 -16  386.66   34.60
 -18  -2  16  376.36   32.00
  18   2 -16  363.16   28.00
 -18   2  16  405.96   31.60
  16  -2 -16  402.66   35.50
 -16   2  16  392.16   28.30
  16   2 -16  338.27   28.50
  14  -2 -16  382.16   27.60
  12  -2 -16   34.20   14.00
  12   2 -16   49.70   16.50
  10  -2 -16   79.99   16.50
  10  -2 -16    7.40    8.10
  10   2 -16   26.50   16.80
  -8  -2  16   -3.60   17.30
   8  -2 -16   10.00   16.70
   8  -2 -16   14.00   14.90
   6  -2 -16  969.00   49.80
  -6  -2  16  915.91   51.09
   6  -2 -16  921.71   50.39
  -4  -2  16  113.89   24.90
   4  -2 -16  136.59   24.60
   4  -2 -16  168.38   25.70
   2  -2 -16   31.20   19.60
  -2  -2  16   51.39   22.30
   2  -2 -16   73.09   20.70
   0  -2 -16  431.06   37.70
   0  -2  16  322.37   37.10
   0  -2 -16  370.56   37.40
  -2  -2 -16  279.17   35.20
   2  -2  16  323.27   37.00
  -2  -2 -16  292.37   32.40
  -4  -2 -16  541.15   45.40
  -4  -2 -16  529.75   38.80
   4  -2  16  540.05   44.50
   6  -2  16  -18.70   21.70
  -6  -2 -16    2.20   21.30
  -6  -2 -16    4.00   20.20
   8  -2  16  415.36   46.00
  -8  -2 -16  469.15   46.50
  -8  -2 -16  519.15   44.80
 -10  -2 -16  423.66   46.50
  10  -2  16  478.85   50.99
  10   2  16  510.95   40.30
  12  -2  16  100.99   35.50
 -12  -2 -16  108.49   30.40
  12   2  16  135.69   28.30
 -14  -2 -16 1202.68   73.19
  14  -2  16 1302.07   79.59
  14   2  16 1143.29   66.59
  16  -2  16   50.09   33.90
 -16  -2 -16    5.70   27.70
  18  -2  16  -42.10   32.50
 -18  -2 -16  -18.50   26.70
 -20  -2 -16   47.00   32.80
  20  -2  16   25.30   37.00
  22  -2  16  176.38   47.00
 -22  -2 -16  185.68   42.80
  43  -3 -16   62.39   29.70
 -43  -3  16   30.80   28.10
 -43   3  16   48.40   33.80
  41  -3 -16  120.39   31.30
 -41  -3  16  112.69   34.60
 -41   3  16  119.39   38.60
  39  -3 -16   37.70   24.90
 -39  -3  16  -10.30   24.80
 -39   3  16   31.60   27.40
  37  -3 -16  107.29   28.50
 -37  -3  16   63.99   28.70
 -37   3  16   54.29   32.00
 -35  -3  16   30.00   21.60
  35  -3 -16   74.59   26.20
 -35   3  16   51.79   26.50
  33  -3 -16  161.78   31.30
 -33  -3  16   83.89   27.10
 -33   3  16  124.79   30.00
  31  -3 -16    2.00   21.10
 -31  -3  16    9.70   21.00
 -31   3  16   35.10   26.00
 -29  -3  16   90.89   24.30
  29  -3 -16  144.19   27.90
 -29   3  16   91.79   26.40
 -27  -3  16  226.58   30.20
  27  -3 -16  231.08   31.00
 -27   3  16  185.08   30.60
 -25  -3  16   -3.80   18.90
 -25  -3  16   -3.50   16.40
  25  -3 -16    4.60   19.40
 -25   3  16    8.50   19.80
 -23  -3  16   33.20   18.70
 -23  -3  16   22.60   15.00
  23  -3 -16   19.60   21.10
 -23   3  16   39.20   20.80
  21  -3 -16  335.77   36.00
 -21  -3  16  343.17   32.40
 -21   3  16  306.87   31.20
  19  -3 -16  755.22   47.50
 -19  -3  16  797.42   46.00
 -19   3  16  758.02   43.30
  19   3 -16  816.62   46.50
 -17  -3  16   52.19   18.10
  17  -3 -16   31.20   19.00
 -17  -3  16   28.60   19.00
 -15  -3  16   36.90   20.30
  15  -3 -16   12.80   17.90
 -15  -3  16    4.50   17.10
 -13  -3  16   93.09   21.00
  13  -3 -16   80.09   21.50
  11  -3 -16  -11.80   17.90
 -11  -3  16   -4.70   16.80
  -9  -3  16   10.70   18.30
   9  -3 -16   14.70   19.60
   9  -3 -16   19.80   17.70
   7  -3 -16  147.99   26.40
   7  -3 -16  199.68   28.30
  -7  -3  16  176.78   27.40
  -5  -3  16  177.18   29.20
   5  -3 -16  166.48   28.40
   5  -3 -16  137.09   25.50
   3  -3 -16  153.28   25.40
  -3  -3  16   69.99   25.10
   3  -3 -16  105.59   27.30
  -1  -3  16   23.90   24.50
   1  -3 -16   26.40   23.20
   1  -3 -16   22.70   20.80
  -1  -3 -16  118.99   29.10
   1  -3  16  118.69   28.30
  -1  -3 -16  105.99   24.70
   3  -3  16  110.29   30.60
  -3  -3 -16  108.09   25.70
  -3  -3 -16  117.49   30.10
  -5  -3 -16   99.79   25.10
  -5  -3 -16  125.79   30.80
   5  -3  16  128.09   33.50
   7  -3  16   97.69   32.70
  -7  -3 -16   43.30   29.70
  -7  -3 -16   35.60   22.40
   9  -3  16  442.16   50.39
  -9  -3 -16  465.75   48.40
  -9  -3 -16  441.86   37.80
  11  -3  16   17.50   33.00
 -11  -3 -16   91.29   31.80
  11   3  16  114.09   25.30
  13  -3  16   72.19   36.60
 -13  -3 -16  -14.50   25.10
 -15  -3 -16  219.08   39.00
  15  -3  16  226.88   46.20
 -17  -3 -16   15.60   28.70
  17  -3  16  131.89   42.20
  19  -3  16   83.89   42.40
 -19  -3 -16   75.59   33.30
 -21  -3 -16    8.50   31.50
 -42  -4  16   25.50   30.00
 -42   4  16   34.90   35.70
 -40  -4  16   44.00   30.60
  40  -4 -16   67.09   30.40
 -40   4  16   53.09   30.40
 -38  -4  16   28.50   26.10
  38  -4 -16   43.80   28.10
 -38   4  16   44.00   32.20
  36  -4 -16  174.88   34.80
 -36  -4  16  170.88   31.10
 -36   4  16  173.68   35.10
  34  -4 -16  249.78   36.70
 -34  -4  16  193.88   31.70
 -34   4  16  208.28   39.00
 -32  -4  16  308.57   35.90
  32  -4 -16  421.46   45.20
 -32   4  16  417.16   46.70
  30  -4 -16   16.20   24.10
 -30  -4  16    4.70   17.10
 -30   4  16   33.60   26.60
 -28  -4  16   -1.10   22.50
 -28  -4  16    7.50   19.50
  28  -4 -16   47.60   25.50
  26  -4 -16    1.80   21.70
 -26  -4  16   41.30   22.20
  24  -4 -16 1462.65   72.19
 -24  -4  16 1338.77   70.09
  22  -4 -16   31.20   22.90
 -22  -4  16   20.90   21.90
  20  -4 -16   13.10   20.30
 -20  -4  16   11.90   21.10
  18  -4 -16  278.17   34.50
 -18  -4  16  263.77   32.50
  16  -4 -16  672.83   46.50
 -16  -4  16  698.03   46.90
  14  -4 -16  209.08   29.70
 -14  -4  16  232.68   31.20
 -14  -4  16  190.38   27.00
  12  -4 -16  137.89   26.10
 -12  -4  16  131.39   25.10
 -12  -4  16  154.38   28.10
 -10  -4  16   78.79   23.80
  10  -4 -16   46.60   22.00
  -8  -4  16  362.66   36.10
   8  -4 -16  296.87   33.90
  -6  -4  16  285.57   35.50
   6  -4 -16  300.87   33.40
   6  -4 -16  368.56   37.90
  -4  -4  16  633.74   47.90
   4  -4 -16  636.04   49.40
   4  -4 -16  696.13   44.60
   2  -4 -16  102.69   31.40
  -2  -4  16   66.29   28.30
   2  -4 -16   75.49   23.00
   0  -4  16  124.49   32.50
   0  -4 -16  121.89   33.10
   0  -4 -16  125.99   26.90
  -2  -4 -16   10.80   21.30
   2  -4  16   17.10   29.80
  -2  -4 -16   10.50   30.40
  -4  -4 -16  178.28   29.80
   4  -4  16  211.98   38.20
  -4  -4 -16  243.78   41.20
  -6  -4 -16  284.07   34.00
  -6  -4 -16  325.67   44.30
   6  -4  16  298.27   44.30
  -8  -4 -16   -5.00   29.90
   8  -4  16   46.70   33.20
  10  -4  16    7.30   32.10
 -10  -4 -16   64.69   33.00
  12  -4  16  183.98   44.00
 -12  -4 -16  215.18   39.60
 -14  -4 -16   37.30   30.90
  14  -4  16  -19.70   33.50
  16  -4  16   25.20   38.60
 -16  -4 -16   73.99   33.70
 -18  -4 -16   54.29   34.80
 -20  -4 -16   59.69   35.90
 -39  -5  16   19.90   26.50
 -37  -5  16    7.50   21.40
  35  -5 -16   37.60   28.10
 -35  -5  16   -9.40   18.20
  33  -5 -16   24.30   26.50
 -33  -5  16    0.30   19.00
  31  -5 -16   98.29   31.20
 -31  -5  16   55.89   23.70
  29  -5 -16   27.80   27.00
 -29  -5  16  -21.20   26.30
 -27  -5  16    8.50   25.40
  27  -5 -16   21.40   23.90
 -25  -5  16  134.89   33.30
  25  -5 -16  135.09   29.80
  23  -5 -16   54.99   25.60
 -23  -5  16   55.59   26.90
  21  -5 -16    5.50   23.00
 -21  -5  16   25.90   26.70
 -19  -5  16  272.77   37.30
  19  -5 -16  201.98   32.50
  17  -5 -16   33.10   24.60
 -17  -5  16   11.90   26.40
 -15  -5  16   85.69   26.10
  15  -5 -16   45.90   24.00
  13  -5 -16  -14.00   20.30
 -13  -5  16   16.60   24.00
 -11  -5  16  305.77   37.40
  11  -5 -16  260.27   33.70
  -9  -5  16   62.09   25.90
   9  -5 -16   54.29   23.80
  -9  -5  16   79.69   28.60
  -7  -5  16  246.38   35.40
  -7  -5  16  245.98   37.90
   7  -5 -16  259.67   34.60
  -5  -5  16   39.20   27.60
   5  -5 -16  -43.30   20.10
  -3  -5  16  588.14   53.19
   3  -5 -16  639.44   46.70
   3  -5 -16  581.14   50.79
   1  -5 -16   31.60   22.20
   1  -5 -16   70.19   34.00
  -1  -5  16  -29.40   29.70
  -1  -5 -16   84.89   33.10
   1  -5  16  120.99   35.30
  -1  -5 -16   51.09   24.30
   3  -5  16   57.89   33.60
  -3  -5 -16  108.89   35.30
  -5  -5 -16  237.78   43.90
   5  -5  16  206.08   44.30
   7  -5  16  -15.60   34.80
  -7  -5 -16   27.30   35.10
  -9  -5 -16   83.79   36.20
   9  -5  16   54.59   38.00
  11  -5  16  140.69   43.40
 -11  -5 -16  151.58   42.20
 -13  -5 -16    7.50   34.00
  13  -5  16    5.40   38.50
 -15  -5 -16   20.40   35.00
 -17  -5 -16   36.00   36.50
 -34  -6  16   60.99   28.90
 -32  -6  16   27.50   24.40
 -32  -6  16  -19.50   34.30
 -30  -6  16   27.20   36.20
  30  -6 -16   38.90   28.40
  28  -6 -16   32.60   27.10
 -28  -6  16  -16.40   31.40
 -26  -6  16   20.00   29.40
  26  -6 -16    0.30   26.00
  24  -6 -16   98.99   30.40
 -24  -6  16   83.99   33.40
  22  -6 -16   18.90   24.50
 -22  -6  16    6.60   28.30
 -20  -6  16  -48.30   28.00
  20  -6 -16  -14.10   25.20
  18  -6 -16   28.00   24.60
 -16  -6  16  104.79   32.30
  16  -6 -16  103.59   30.40
  14  -6 -16  124.69   29.50
 -14  -6  16   76.79   31.50
 -12  -6  16   -3.60   26.30
  12  -6 -16   18.30   22.60
  10  -6 -16   -1.40   24.00
 -10  -6  16   18.10   27.10
   8  -6 -16   57.49   26.40
  -8  -6  16   55.39   28.90
   6  -6 -16  234.58   34.30
  -6  -6  16  328.37   41.00
   4  -6 -16   57.89   26.50
  -4  -6  16   25.90   26.50
  -4  -6  16   11.10   28.60
  -2  -6  16   41.00   34.80
   2  -6 -16   15.90   24.60
  -2  -6  16   60.79   27.60
   0  -6  16   40.70   35.40
   0  -6  16   30.40   26.10
   0  -6 -16   18.00   36.00
  -2  -6 -16  287.97   47.50
   2  -6  16  295.17   48.20
  -4  -6 -16  118.69   43.20
   4  -6  16   74.39   38.90
  -6  -6 -16   47.00   41.10
   6  -6  16   -8.90   35.80
  -8  -6 -16  122.89   44.90
   8  -6  16  -23.30   36.60
 -10  -6 -16   94.99   43.80
 -12  -6 -16   35.70   40.60
 -27  -7  16    6.10   34.80
 -25  -7  16   -4.60   33.10
  23  -7 -16   44.80   29.00
 -23  -7  16   22.10   35.10
  21  -7 -16   53.29   28.60
 -21  -7  16   17.50   36.10
 -19  -7  16   18.30   32.90
  19  -7 -16  -17.40   24.30
  17  -7 -16   16.70   27.90
 -17  -7  16   69.49   33.60
 -15  -7  16   66.39   33.10
  15  -7 -16   89.49   29.40
  13  -7 -16   55.59   27.80
 -13  -7  16   35.20   31.00
 -11  -7  16    4.80   29.90
  11  -7 -16  -18.40   24.20
  -9  -7  16    9.20   32.00
   9  -7 -16   13.10   25.70
  -7  -7  16   97.79   33.60
   7  -7 -16   67.59   29.80
  -5  -7  16  -23.40   26.70
  -3  -7  16   24.90   29.00
  -1  -7  16   23.80   30.80
   1  -7  16    7.20   36.40
   1  -7  16   -3.80   30.20
   3  -7  16  -18.10   29.40
  -3  -7 -16   12.50   42.20
   3  -7  16  116.69   46.90
   5  -7  16   18.60   34.00
   5  -7  16   18.70   43.00
  -5  -7 -16   24.40   43.60
 -12  -8  16   67.29   37.30
 -10  -8  16   22.20   33.70
 -46   0  17  -35.40   27.10
 -44   0  17  -22.70   25.40
 -42   0  17    4.30   23.70
 -40   0  17  -20.10   20.30
 -38   0  17  -17.90   23.00
 -36   0  17  -34.50   21.10
 -34   0  17   43.90   21.80
  32   0 -17    5.00   15.90
 -32   0  17  -11.50   20.00
  30   0 -17    7.20   15.20
 -30   0  17  -19.20   18.20
  28   0 -17    4.20   15.70
 -28   0  17    2.30   18.80
 -26   0  17    0.40   17.60
  26   0 -17   19.60   15.10
 -24   0  17   15.10   18.50
  24   0 -17   17.40   16.20
  22   0 -17   11.40   15.10
 -22   0  17  -11.70   16.60
  20   0 -17   -4.80   14.00
 -20   0  17   -6.80   15.60
 -18   0  17  -16.70   15.60
  18   0 -17   12.90   14.60
 -16   0  17    1.90   15.30
  16   0 -17  -14.10   13.50
 -14   0  17  -28.20   12.60
  14   0 -17    4.60   14.20
  12   0 -17    2.70   14.70
  10   0 -17    6.40   15.50
   8   0 -17   11.10   15.90
   6   0 -17   10.30   14.40
   4   0 -17   15.80   13.70
   2   0 -17    8.80   15.00
   0   0 -17   11.00   18.50
   2   0  17   -5.30   20.30
  -2   0 -17   10.70   18.60
   4   0  17   -8.00   19.30
   6   0  17   13.20   22.50
   8   0  17   18.10   22.80
  10   0  17   28.40   26.20
  12   0  17    7.90   25.30
  14   0  17  -22.20   24.40
  16   0  17  -42.00   25.50
  18   0  17   -8.70   31.70
  20   0  17  -43.00   32.20
  22   0  17   -2.30   36.90
 -45  -1  17   52.69   33.60
 -45   1  17  -53.79   20.50
 -43  -1  17  295.57   41.30
 -43   1  17  273.97   44.00
 -41  -1  17    7.40   25.70
 -41   1  17   15.00   27.20
 -39  -1  17   14.30   21.60
 -39   1  17  -10.40   24.40
 -37  -1  17   73.99   29.50
 -37   1  17   73.49   28.60
  35  -1 -17  292.07   34.70
 -35  -1  17  235.38   36.10
 -35   1  17  258.07   37.80
 -33  -1  17  -11.30   22.40
  33  -1 -17   76.99   21.90
 -33   1  17   14.40   23.30
  31  -1 -17  157.48   26.40
 -31  -1  17  106.39   27.40
 -31   1  17  129.49   28.30
 -29  -1  17  295.07   34.40
  29  -1 -17  227.48   29.70
 -29   1  17  212.08   30.70
 -27  -1  17  280.37   32.30
  27  -1 -17  295.17   32.10
  27   1 -17  297.17   29.00
 -27   1  17  275.37   32.70
 -25  -1  17   13.70   19.00
  25  -1 -17   31.00   17.70
 -25   1  17    0.00   19.80
  25   1 -17   14.90   14.50
 -23  -1  17  885.61   49.99
  23  -1 -17  894.51   48.70
 -23   1  17  884.91   49.60
  23   1 -17  916.61   47.00
  21  -1 -17  -11.70   17.00
 -21  -1  17   23.10   15.80
 -21   1  17    2.20   16.20
  21   1 -17   22.50   14.40
  19  -1 -17   11.70   16.90
 -19  -1  17    9.00   14.70
  19   1 -17   39.70   15.40
 -19   1  17   14.70   17.30
  17  -1 -17  407.16   35.00
 -17  -1  17  313.37   28.40
 -17   1  17  348.67   29.20
  17   1 -17  350.66   31.50
 -15  -1  17  344.67   27.80
  15  -1 -17  383.46   34.10
  15   1 -17  387.66   33.20
  13  -1 -17   79.39   19.60
 -13  -1  17   72.59   15.30
  13   1 -17   81.29   19.00
  11  -1 -17   26.10   16.00
 -11  -1  17   40.30   14.30
  11   1 -17    7.40   15.10
   9  -1 -17   -4.00    5.00
   9   1 -17  -13.10   14.30
   7  -1 -17  124.19   19.90
   7   1 -17  221.68   27.30
   5  -1 -17  193.78   27.90
   5  -1 -17  191.98   25.10
   5   1 -17  182.28   26.30
   3  -1 -17    5.10   17.30
   3  -1 -17    6.20   18.20
   3   1 -17  -18.90   17.20
   1  -1 -17   88.29   22.90
   1  -1 -17  139.49   24.80
  -1  -1  17   78.39   24.20
   1  -1  17  173.58   28.80
  -1  -1 -17  174.98   27.70
  -1  -1 -17  127.79   27.50
  -3  -1 -17  425.06   40.50
  -3  -1 -17  427.76   42.00
   3  -1  17  443.16   41.90
  -5  -1 -17  792.62   53.89
  -5  -1 -17  839.22   51.89
   5  -1  17  792.92   53.89
  -7  -1 -17   -9.60   22.50
   7  -1  17   12.90   23.60
   7   1  17   34.30   24.00
  -9  -1 -17   19.60   23.80
   9  -1  17   64.19   29.10
   9   1  17   40.60   24.60
 -11  -1 -17   58.09   28.90
  11  -1  17   56.19   29.80
  11   1  17   43.50   25.00
  13  -1  17  569.94   55.99
 -13  -1 -17  558.84   56.39
  13   1  17  514.65   49.50
  15  -1  17   78.29   36.20
 -15  -1 -17   72.89   32.10
  15   1  17   69.09   30.30
  17  -1  17    8.20   31.10
 -17  -1 -17   20.30   28.70
  17   1  17   -6.20   27.30
  19  -1  17    6.20   33.10
 -19  -1 -17    5.70   29.70
  21  -1  17  337.47   55.59
 -21  -1 -17  405.06   54.99
 -23  -1 -17   49.00   36.10
 -46  -2  17   -6.00   29.50
 -46   2  17   60.29   34.60
 -44  -2  17   10.60   30.60
 -44   2  17   -3.20   31.30
 -42  -2  17   25.00   28.20
 -42   2  17   -3.70   29.40
  40  -2 -17  112.49   32.90
 -40  -2  17  113.79   33.30
 -40   2  17  117.89   36.10
 -38  -2  17  -24.00   24.70
  38  -2 -17   13.10   22.30
 -38   2  17    8.30   26.70
  36  -2 -17   -1.50   20.10
 -36  -2  17   24.30   27.00
 -36   2  17    4.40   26.20
  34  -2 -17   93.89   26.50
 -34  -2  17  120.89   30.30
 -34   2  17  120.39   31.60
  32  -2 -17   75.79   25.30
 -32  -2  17   57.09   25.70
 -32   2  17   19.60   24.50
  30  -2 -17  -14.80   18.90
 -30  -2  17  -27.10   18.20
 -30   2  17   -4.90   21.30
  28  -2 -17   -9.30   18.60
 -28  -2  17    2.40   15.50
 -28   2  17   14.90   20.50
 -26  -2  17  139.49   25.30
  26  -2 -17  107.09   23.70
 -26   2  17  128.69   25.90
 -24  -2  17   38.10   18.40
  24  -2 -17   74.09   22.30
 -24   2  17    5.40   18.90
 -22  -2  17    9.40   15.70
 -22  -2  17   17.20   16.50
  22  -2 -17   -1.50   16.10
 -22   2  17   -5.40   18.40
  22   2 -17    6.40   13.60
 -20  -2  17   20.90   16.70
 -20  -2  17    2.90   15.40
  20  -2 -17    5.00   18.00
  20   2 -17   11.90   14.00
 -20   2  17    5.40   16.10
 -18  -2  17    1.10   16.80
  18  -2 -17    0.10   17.30
 -18  -2  17   27.80   15.70
  18   2 -17   20.80   15.60
 -18   2  17   12.80   15.90
  16  -2 -17   49.80   21.50
  16   2 -17   58.19   17.60
  14  -2 -17  -12.70   16.30
  12  -2 -17  145.59   24.90
  12   2 -17  153.58   23.40
  10  -2 -17  214.08   28.30
  10  -2 -17  183.48   22.90
  10   2 -17  147.69   25.40
  -8  -2  17   14.80   18.40
   8  -2 -17   12.80   16.30
   8  -2 -17   -8.10   15.90
   6  -2 -17  -17.70   16.00
   6  -2 -17   -5.50   15.40
  -6  -2  17    0.10   19.00
  -4  -2  17   51.29   22.70
   4  -2 -17   41.60   20.90
   4  -2 -17   65.69   20.20
   2  -2 -17   -9.00   17.90
   2  -2 -17    6.70   18.20
  -2  -2  17   19.20   20.10
   0  -2 -17    2.80   20.20
   0  -2  17   -9.00   20.90
   0  -2 -17   14.90   19.40
  -2  -2 -17    2.00   19.00
  -2  -2 -17   -8.10   21.60
   2  -2  17   25.00   23.80
  -4  -2 -17  130.69   29.90
   4  -2  17  202.08   33.20
  -4  -2 -17  261.07   32.40
   6  -2  17  109.29   30.70
  -6  -2 -17  140.59   31.40
  -6  -2 -17  143.79   27.90
   8  -2  17   11.00   27.10
  -8  -2 -17   40.60   25.00
  -8  -2 -17   87.09   28.10
  10  -2  17  182.88   38.20
 -10  -2 -17  155.08   34.20
  10   2  17  135.29   28.70
 -12  -2 -17  155.18   34.40
  12  -2  17  144.79   37.70
  12   2  17  132.49   30.20
  14  -2  17   33.70   32.30
 -14  -2 -17   14.40   26.50
  14   2  17   33.70   26.10
  16  -2  17   47.10   36.70
 -16  -2 -17   63.49   30.90
 -18  -2 -17   14.20   29.10
  18  -2  17    7.50   36.00
  20  -2  17  -43.60   35.50
 -20  -2 -17    8.70   33.50
 -22  -2 -17   16.30   31.70
  43  -3 -17  135.99   33.60
 -43  -3  17   89.19   35.20
 -43   3  17  110.09   39.10
 -41  -3  17  -29.00   25.70
  41  -3 -17   25.30   26.80
 -41   3  17   -6.60   30.70
  39  -3 -17   31.40   26.80
 -39  -3  17   30.10   24.10
 -39   3  17   37.10   31.10
 -37  -3  17   37.00   27.30
  37  -3 -17   59.59   25.80
 -37   3  17   59.69   32.00
  35  -3 -17  233.08   35.90
 -35  -3  17  130.79   28.90
 -35   3  17  186.58   34.80
  33  -3 -17   31.80   23.70
 -33  -3  17   30.70   23.20
 -33   3  17   28.20   27.90
 -31  -3  17   52.89   21.20
  31  -3 -17   13.80   21.90
 -31   3  17    7.20   24.90
  29  -3 -17   62.29   24.80
 -29  -3  17   49.70   22.10
 -29   3  17   52.89   25.90
 -27  -3  17   39.90   20.20
  27  -3 -17   42.30   23.30
 -27   3  17   54.39   24.40
  25  -3 -17 1061.69   59.59
 -25  -3  17  987.80   56.19
 -25  -3  17 1014.10   55.29
 -25   3  17 1143.69   59.39
 -23  -3  17  239.28   28.90
  23  -3 -17  255.07   33.20
 -23  -3  17  253.27   29.50
 -23   3  17  234.28   29.80
  21  -3 -17   40.90   21.70
 -21  -3  17   17.70   19.00
 -21   3  17   52.49   20.50
  19  -3 -17   -4.10   18.50
 -19  -3  17   43.30   17.20
 -19  -3  17   19.80   18.10
  19   3 -17   23.00   17.10
 -17  -3  17   91.39   21.20
 -17  -3  17  155.98   25.90
  17  -3 -17   60.09   21.20
 -15  -3  17  374.56   36.50
 -15  -3  17  384.06   35.00
  15  -3 -17  416.86   37.70
  13  -3 -17  314.57   33.60
 -13  -3  17  319.47   32.70
  11  -3 -17   26.60   19.40
 -11  -3  17   14.20   18.70
  -9  -3  17    3.40   18.80
   9  -3 -17   47.00   19.60
   9  -3 -17   20.10   19.80
   7  -3 -17  300.27   33.20
  -7  -3  17  381.66   36.70
   7  -3 -17  333.67   32.60
   5  -3 -17  414.06   38.00
   5  -3 -17  406.46   37.90
  -5  -3  17  489.05   43.00
   3  -3 -17    6.60   20.10
  -3  -3  17    3.80   21.80
   3  -3 -17    1.90   19.80
   1  -3 -17   13.80   23.90
   1  -3 -17   37.80   21.10
  -1  -3  17   23.70   24.30
  -1  -3 -17  284.97   37.80
   1  -3  17  292.57   38.60
  -1  -3 -17  365.06   37.20
   3  -3  17  551.64   51.69
  -3  -3 -17  556.04   47.60
  -3  -3 -17  558.54   41.40
   5  -3  17  162.48   35.80
  -5  -3 -17  176.58   28.40
  -5  -3 -17  195.38   36.20
  -7  -3 -17   -4.40   23.40
  -7  -3 -17    6.20   21.20
   7  -3  17   26.80   29.90
   9  -3  17   23.80   31.60
  -9  -3 -17  -27.30   21.20
  -9  -3 -17   18.70   27.20
 -11  -3 -17  173.88   36.70
  11  -3  17  159.88   40.70
 -13  -3 -17  299.27   43.20
  13  -3  17  325.57   51.39
 -15  -3 -17   46.30   31.10
  15  -3  17   -2.50   34.50
  17  -3  17  -15.50   37.00
 -17  -3 -17   22.30   29.20
 -19  -3 -17   75.19   34.20
 -42  -4  17   16.30   24.80
 -42   4  17   59.79   34.20
 -40  -4  17   17.60   27.30
  40  -4 -17   37.70   29.30
 -40   4  17   -9.40   31.10
 -38  -4  17    0.40   23.50
  38  -4 -17    2.00   24.50
 -38   4  17   25.30   31.60
  36  -4 -17   56.09   29.00
 -36  -4  17   53.39   24.10
 -36   4  17   24.10   30.80
 -34  -4  17    8.70   22.50
  34  -4 -17   -2.20   26.20
 -34   4  17   32.80   27.60
  32  -4 -17   -9.40   23.40
 -32  -4  17  -21.40   18.60
 -32   4  17   29.70   27.30
 -30  -4  17   -5.40   19.30
  30  -4 -17   15.20   24.00
 -28  -4  17   -2.10   19.30
  28  -4 -17   25.60   26.00
 -26  -4  17   -6.30   22.70
  26  -4 -17    7.20   22.70
 -24  -4  17   60.19   23.50
  24  -4 -17   66.59   25.10
  22  -4 -17  116.19   28.80
 -22  -4  17  124.69   27.60
 -20  -4  17    7.10   21.20
  20  -4 -17   13.60   21.20
  18  -4 -17  184.68   31.00
 -18  -4  17  267.97   34.20
 -16  -4  17  109.19   25.70
  16  -4 -17  109.49   26.40
  14  -4 -17  152.98   28.60
 -14  -4  17  134.19   27.60
 -14  -4  17  185.88   28.10
  12  -4 -17  123.49   26.80
 -12  -4  17  166.08   28.90
 -12  -4  17  172.08   28.90
 -10  -4  17   15.80   20.20
  10  -4 -17  -26.20   20.30
  -8  -4  17  163.88   29.10
   8  -4 -17  153.58   28.20
   6  -4 -17   69.29   24.60
  -6  -4  17   62.49   25.40
   6  -4 -17   80.09   26.70
   4  -4 -17   43.60   27.10
   4  -4 -17   29.30   22.90
  -4  -4  17   15.20   24.90
   2  -4 -17   -1.00   24.60
   2  -4 -17  -13.90   21.50
  -2  -4  17   38.00   27.30
   0  -4 -17  261.87   38.70
   0  -4  17  162.18   36.30
   0  -4 -17  255.37   32.00
  -2  -4 -17   32.90   21.90
  -2  -4 -17   16.10   28.60
   2  -4  17    3.50   30.60
   4  -4  17  381.16   48.60
  -4  -4 -17  334.57   38.20
  -4  -4 -17  371.36   44.90
  -6  -4 -17  101.29   26.50
   6  -4  17  148.29   39.70
  -6  -4 -17   76.29   33.80
  -8  -4 -17   36.10   30.30
   8  -4  17   16.30   33.40
 -10  -4 -17   69.09   34.60
  10  -4  17  -29.80   31.90
 -12  -4 -17   21.50   29.90
  12  -4  17   28.10   37.50
  14  -4  17  -15.10   39.70
 -14  -4 -17   81.49   35.50
 -16  -4 -17   33.80   33.80
 -18  -4 -17    4.40   31.10
 -37  -5  17   -5.70   20.80
  35  -5 -17   47.70   28.90
 -35  -5  17   34.60   21.40
  33  -5 -17  153.88   35.50
 -33  -5  17   44.60   25.30
  31  -5 -17   -3.80   25.00
 -31  -5  17   20.40   22.50
 -29  -5  17  -12.60   26.00
  29  -5 -17  -11.90   24.40
  27  -5 -17   35.40   25.50
 -27  -5  17   34.10   26.90
 -25  -5  17  106.79   31.70
  25  -5 -17  141.89   30.90
 -23  -5  17  162.38   32.80
  23  -5 -17  188.88   33.70
  21  -5 -17    4.10   24.20
 -21  -5  17  -29.10   22.70
 -19  -5  17   33.10   26.70
  19  -5 -17   83.89   28.80
 -17  -5  17  230.98   35.70
  17  -5 -17  227.28   34.00
 -15  -5  17  355.26   40.50
  15  -5 -17  324.17   38.60
  13  -5 -17    2.00   23.30
 -13  -5  17   22.20   24.00
 -11  -5  17   -3.90   25.00
  11  -5 -17   28.80   23.00
  -9  -5  17   12.50   26.60
  -9  -5  17    1.70   24.10
   9  -5 -17   59.09   25.60
   7  -5 -17  302.67   35.60
  -7  -5  17  369.66   41.00
  -7  -5  17  344.57   42.10
   5  -5 -17  187.78   31.70
  -5  -5  17  242.28   40.00
   3  -5 -17   22.80   30.80
  -3  -5  17    1.70   30.70
   3  -5 -17   -1.60   23.30
   1  -5 -17    4.10   30.80
  -1  -5  17  -13.80   29.50
   1  -5 -17  -13.30   20.00
  -1  -5 -17   -1.90   23.20
  -1  -5 -17   31.60   33.40
   1  -5  17   -9.60   32.10
   3  -5  17  261.97   43.70
  -3  -5 -17  268.67   45.50
  -5  -5 -17  203.58   42.60
   5  -5  17  146.99   40.00
  -7  -5 -17   48.00   37.30
   7  -5  17   -0.60   37.90
  -9  -5 -17   53.29   36.90
   9  -5  17   -5.50   37.60
  11  -5  17  -29.30   37.70
 -11  -5 -17   49.60   37.10
 -13  -5 -17   69.59   40.00
 -15  -5 -17  105.99   39.80
 -34  -6  17    8.20   20.70
 -32  -6  17   16.30   20.60
 -30  -6  17   20.00   32.50
  30  -6 -17   66.19   30.70
  28  -6 -17   46.10   29.10
 -28  -6  17   22.10   31.40
 -26  -6  17    0.20   32.30
  26  -6 -17   47.20   27.60
  24  -6 -17   13.80   27.80
 -24  -6  17  -34.80   27.50
  22  -6 -17   47.70   29.50
 -22  -6  17    0.20   31.00
  20  -6 -17  -13.90   24.50
 -20  -6  17   29.40   29.20
  18  -6 -17   26.00   25.60
 -18  -6  17  -28.70   26.40
 -16  -6  17  -17.10   29.40
  16  -6 -17   -5.10   23.20
  14  -6 -17   33.70   23.80
 -14  -6  17  -13.90   26.80
  12  -6 -17   11.40   23.40
 -12  -6  17   -7.50   25.90
 -10  -6  17    1.10   26.10
  10  -6 -17    0.60   22.40
   8  -6 -17  102.89   28.90
  -8  -6  17   43.70   28.70
   6  -6 -17    8.60   24.60
  -6  -6  17   23.20   27.50
  -4  -6  17   26.10   26.70
   4  -6 -17  -20.70   21.30
  -4  -6  17   -8.60   29.80
  -2  -6  17  -19.40   33.10
  -2  -6  17    8.20   25.20
   0  -6  17  -38.80   31.40
   0  -6  17   29.40   26.20
   0  -6 -17   64.29   37.70
  -2  -6 -17   48.30   38.40
   2  -6  17  163.08   45.40
  -4  -6 -17  155.38   42.10
   4  -6  17   95.09   44.00
  -6  -6 -17   66.99   41.30
   6  -6  17   -3.20   37.60
  -8  -6 -17   28.50   41.80
   8  -6  17  -31.10   41.30
 -10  -6 -17  114.79   46.10
 -27  -7  17   28.20   36.60
 -25  -7  17   22.30   35.60
 -23  -7  17   47.10   36.40
  21  -7 -17   13.50   30.30
 -21  -7  17   -5.90   31.20
 -19  -7  17   -5.50   32.20
  19  -7 -17   -5.20   26.10
 -17  -7  17  -38.30   29.60
  17  -7 -17   24.20   27.20
 -15  -7  17  137.39   37.30
  15  -7 -17   89.79   29.10
  13  -7 -17   20.00   25.50
 -13  -7  17   28.90   32.80
 -11  -7  17  -38.60   27.50
  11  -7 -17   43.10   28.60
  -9  -7  17   10.90   30.60
   9  -7 -17   20.20   27.10
  -7  -7  17   17.40   30.20
  -5  -7  17   25.70   30.50
  -3  -7  17   -4.20   28.00
  -1  -7  17    3.20   31.90
   1  -7  17   82.09   42.00
   1  -7  17   61.79   36.30
  -3  -7 -17   27.90   41.80
   3  -7  17   57.09   33.90
   3  -7  17   75.59   43.50
 -46   0  18  -39.50   28.40
 -44   0  18  132.59   36.80
 -42   0  18   51.49   30.40
 -40   0  18    3.40   23.20
 -38   0  18    8.40   26.80
 -36   0  18  105.79   30.20
 -34   0  18  844.22   56.49
  32   0 -18   84.69   21.80
 -32   0  18   85.09   26.10
 -30   0  18   96.79   25.10
  30   0 -18  100.29   22.00
 -28   0  18   17.30   19.00
  28   0 -18    8.10   15.00
  26   0 -18  126.59   22.70
 -26   0  18   76.29   22.80
 -24   0  18   79.29   21.20
  24   0 -18   37.20   17.30
 -22   0  18  381.96   35.70
  22   0 -18  391.26   35.20
 -20   0  18 1181.58   57.79
  20   0 -18 1302.47   59.99
 -18   0  18  462.75   34.00
  18   0 -18  445.46   33.70
 -16   0  18  501.05   36.20
  16   0 -18  475.35   36.20
  14   0 -18   16.00   16.50
  12   0 -18   63.29   19.70
  10   0 -18   99.89   22.40
   8   0 -18  110.69   23.20
   6   0 -18  432.96   38.00
   4   0 -18  735.43   45.60
   2   0 -18   87.79   23.80
   0   0 -18  167.28   29.00
   2   0  18   69.59   24.50
   4   0  18  339.37   39.00
   6   0  18  161.38   33.50
   8   0  18   68.39   29.10
  10   0  18   26.70   27.30
  12   0  18  122.29   34.70
  14   0  18  204.38   40.70
  16   0  18   -2.50   32.10
  18   0  18  -22.70   29.10
  20   0  18    2.20   32.70
 -45  -1  18   28.40   26.10
 -45   1  18   12.60   31.90
 -43  -1  18   91.79   33.70
 -43   1  18  125.99   36.40
 -41  -1  18   13.80   26.60
 -41   1  18   -8.50   27.10
 -39  -1  18   77.39   26.60
 -39   1  18   11.90   27.30
 -37  -1  18  114.99   31.40
 -37   1  18  166.08   34.90
 -35  -1  18    3.40   24.00
  35  -1 -18    3.30   17.30
 -35   1  18    1.90   25.00
  33  -1 -18   63.29   22.40
 -33  -1  18   46.20   22.50
 -33   1  18   80.59   26.80
 -31  -1  18  208.78   33.10
  31  -1 -18  177.28   28.20
 -31   1  18   77.09   26.20
 -29  -1  18   51.39   23.20
  29  -1 -18   92.19   23.40
 -29   1  18   49.50   23.00
  27  -1 -18   17.00   16.90
 -27  -1  18   27.50   17.60
  27   1 -18   30.00   15.90
 -27   1  18   26.40   20.20
  25  -1 -18  342.47   34.50
 -25  -1  18  386.76   36.50
 -25   1  18  339.07   35.40
  25   1 -18  362.76   30.10
 -23  -1  18  580.84   40.60
  23  -1 -18  618.84   40.80
 -23   1  18  580.24   41.50
  23   1 -18  594.64   37.70
  21  -1 -18  377.86   35.20
 -21  -1  18  318.37   31.60
  21   1 -18  368.56   32.50
 -21   1  18  309.17   31.20
 -19  -1  18   29.40   15.80
  19  -1 -18   10.70   17.40
 -19   1  18   34.80   18.30
  19   1 -18   14.60   15.50
  17  -1 -18   51.09   19.20
 -17  -1  18   12.60   15.00
  17   1 -18   64.09   18.30
 -15  -1  18   41.90   16.00
  15  -1 -18   14.00   17.50
  15   1 -18   33.50   17.10
  13  -1 -18   39.00   18.00
  13   1 -18   45.60   18.90
  11  -1 -18   94.99   21.90
  11   1 -18   89.09   21.40
   9  -1 -18  459.05   35.00
   9   1 -18  389.66   33.20
   7  -1 -18  401.56   33.80
   7   1 -18  419.46   34.90
   5  -1 -18  126.79   24.80
   5   1 -18  138.69   25.80
  -3  -1  18  363.36   37.20
   3  -1 -18  336.87   35.70
   3  -1 -18  365.96   36.10
   3   1 -18  377.26   38.60
   1  -1 -18   16.80   19.20
  -1  -1  18    2.60   20.20
   1  -1 -18   -4.50   17.50
  -1  -1 -18   82.39   24.80
   1  -1  18   43.90   23.50
  -1  -1 -18   45.80   23.30
  -3  -1 -18   44.30   23.70
   3  -1  18   52.69   24.50
  -3  -1 -18   30.20   22.70
  -5  -1 -18  269.57   37.30
  -5  -1 -18  264.27   36.50
   5  -1  18  211.18   35.30
   5   1  18  221.08   32.40
  -7  -1 -18  132.59   31.10
   7  -1  18  123.49   32.00
   7   1  18   93.69   28.40
  -9  -1 -18  428.46   48.40
   9  -1  18  468.85   50.09
   9   1  18  386.86   44.00
  11  -1  18  -24.60   26.90
 -11  -1 -18    9.70   26.30
  11   1  18   43.40   27.90
 -13  -1 -18  183.88   37.60
  13  -1  18  218.98   42.50
  13   1  18  242.88   38.60
  15  -1  18   21.00   32.30
 -15  -1 -18   56.69   30.30
  15   1  18   40.50   30.00
  17  -1  18  -48.90   31.20
 -17  -1 -18   30.90   29.70
  17   1  18   -5.90   28.30
 -19  -1 -18  -14.10   31.70
  19  -1  18   79.19   42.50
 -21  -1 -18  140.39   41.20
 -44  -2  18   44.20   32.00
 -44   2  18   18.10   28.40
 -42  -2  18  315.27   46.00
 -42   2  18  351.86   49.20
 -40  -2  18   20.30   29.50
  40  -2 -18   22.30   26.00
 -40   2  18   22.40   29.70
 -38  -2  18    9.60   25.20
  38  -2 -18   53.29   25.80
 -38   2  18   39.20   28.70
  36  -2 -18    5.80   22.60
 -36  -2  18  -21.40   20.50
 -36   2  18  -13.00   24.90
  34  -2 -18  345.17   39.30
 -34  -2  18  345.97   40.60
 -34   2  18  291.37   40.30
  32  -2 -18  -12.20   21.70
 -32  -2  18    3.80   19.30
 -32   2  18    5.10   23.20
 -30  -2  18  -14.40   16.50
  30  -2 -18   14.30   20.40
 -30   2  18    2.50   22.10
  28  -2 -18  257.47   33.60
 -28  -2  18  241.48   31.20
 -28   2  18  215.68   32.10
  26  -2 -18  796.92   47.70
 -26  -2  18  727.03   46.90
 -26   2  18  640.14   46.30
 -24  -2  18  144.79   24.70
  24  -2 -18  123.29   25.30
 -24   2  18  152.78   25.80
 -22  -2  18   24.10   16.30
  22  -2 -18    5.80   18.70
  22   2 -18   12.30   14.60
 -22   2  18   15.70   17.60
  20  -2 -18 1638.74   75.19
 -20  -2  18 1693.13   73.09
 -20  -2  18 1542.75   70.59
  20   2 -18 1648.73   71.49
 -18  -2  18   41.10   16.20
  18  -2 -18   39.10   20.20
  18   2 -18   45.00   17.40
 -16  -2  18  371.66   29.40
  16  -2 -18  452.25   39.00
  16   2 -18  372.86   30.70
  14  -2 -18  990.00   54.09
  14   2 -18 1032.30   52.59
  12  -2 -18   24.50   18.70
  12   2 -18   62.79   20.40
  10  -2 -18   -9.30   15.80
  10  -2 -18   41.00   16.60
  10   2 -18   -5.00   16.60
   8  -2 -18   -2.50   16.30
  -8  -2  18   -1.70   19.10
   8  -2 -18  -28.70   15.20
  -6  -2  18  777.82   48.90
   6  -2 -18  771.02   45.40
   6  -2 -18  747.73   46.40
   4  -2 -18  -23.10   16.50
   4  -2 -18   12.80   19.20
  -4  -2  18   10.10   21.50
   2  -2 -18   45.80   22.40
  -2  -2  18   46.90   24.20
   2  -2 -18   43.80   23.10
   0  -2 -18  105.09   25.90
   0  -2  18  112.89   28.60
   0  -2 -18  128.79   27.60
  -2  -2 -18  387.96   40.60
   2  -2  18  366.16   41.90
  -2  -2 -18  368.66   40.70
  -4  -2 -18   15.40   21.40
  -4  -2 -18    6.50   22.00
   4  -2  18   19.80   25.50
  -6  -2 -18  347.77   40.70
  -6  -2 -18  329.07   41.40
   6  -2  18  361.96   44.90
   8  -2  18  266.67   42.90
  -8  -2 -18  298.57   41.50
   8   2  18  297.57   36.90
 -10  -2 -18  335.57   44.30
  10  -2  18  324.77   47.40
  10   2  18  361.46   41.10
 -12  -2 -18   34.20   28.50
  12  -2  18   10.20   32.70
  12   2  18   61.69   26.20
 -14  -2 -18  417.56   51.39
  14  -2  18  338.47   51.09
  14   2  18  356.36   44.00
  16  -2  18  182.18   45.50
 -16  -2 -18  185.88   42.00
  18  -2  18    8.80   39.30
 -18  -2 -18   42.80   32.70
 -20  -2 -18   12.70   34.10
 -43  -3  18   53.79   34.20
  43  -3 -18   34.20   28.20
 -43   3  18  -52.09   30.70
  41  -3 -18   46.60   28.40
 -41  -3  18   19.70   29.20
 -41   3  18    3.90   31.90
  39  -3 -18   64.89   27.70
 -39  -3  18   52.19   26.30
 -39   3  18   14.30   30.40
  37  -3 -18   -8.80   23.20
 -37  -3  18   11.30   25.50
 -37   3  18  -28.80   27.40
  35  -3 -18   37.40   24.80
 -35  -3  18   31.70   24.20
 -35   3  18   37.40   29.20
  33  -3 -18   10.70   22.70
 -33  -3  18   20.80   19.70
 -33   3  18   17.80   27.30
 -31  -3  18    8.80   21.50
  31  -3 -18   10.90   22.50
 -31   3  18  -14.10   23.20
  29  -3 -18   39.10   25.50
 -29  -3  18   35.60   19.20
 -29   3  18   30.20   24.30
 -27  -3  18   13.90   18.80
  27  -3 -18   15.60   21.90
 -27   3  18   -7.70   20.60
 -25  -3  18   36.20   19.50
  25  -3 -18    1.90   21.10
 -25   3  18   22.40   20.80
 -23  -3  18   52.89   18.90
 -23  -3  18   41.60   21.90
  23  -3 -18   36.00   22.80
 -23   3  18   41.00   20.10
  21  -3 -18  454.05   39.00
 -21  -3  18  447.86   39.20
 -19  -3  18   24.60   17.00
  19  -3 -18   -1.10   18.40
 -19  -3  18   -0.90   17.20
 -17  -3  18   46.20   19.10
  17  -3 -18    1.80   18.10
 -17  -3  18   37.70   21.80
 -15  -3  18   60.59   20.10
  15  -3 -18   42.20   21.40
  13  -3 -18  126.59   26.40
 -13  -3  18  113.49   24.60
  11  -3 -18   11.30   20.30
 -11  -3  18   39.30   21.10
   9  -3 -18   60.09   23.00
  -9  -3  18   74.79   23.40
  -7  -3  18   50.39   23.50
   7  -3 -18   70.99   23.80
   7  -3 -18   50.19   21.20
  -5  -3  18  338.57   38.80
   5  -3 -18  278.27   33.50
   5  -3 -18  355.26   37.10
   3  -3 -18   27.80   21.00
   3  -3 -18   -1.20   20.10
  -3  -3  18   -4.50   22.10
   1  -3 -18   15.00   22.10
   1  -3 -18   50.99   23.60
  -1  -3  18   66.49   28.10
  -1  -3 -18   69.19   25.40
  -1  -3 -18   82.69   27.50
   1  -3  18  103.89   30.30
   3  -3  18   -2.30   26.20
  -3  -3 -18  -17.80   22.70
  -3  -3 -18    8.30   21.70
   5  -3  18  -14.20   28.40
  -5  -3 -18    3.90   24.80
  -5  -3 -18   -4.30   20.50
  -7  -3 -18   19.10   26.20
   7  -3  18  -29.60   30.90
  -7  -3 -18   31.60   24.60
   9  -3  18  424.96   52.89
  -9  -3 -18  344.87   44.90
  -9  -3 -18  344.27   40.40
  11  -3  18    5.70   33.20
 -11  -3 -18   15.20   26.60
  13  -3  18   15.20   37.40
 -13  -3 -18  -16.40   25.90
 -15  -3 -18  179.88   40.40
  15  -3  18  163.48   48.20
 -17  -3 -18   26.30   32.00
  40  -4 -18   44.60   30.70
 -40  -4  18  -23.30   26.40
 -40   4  18   14.90   32.90
  38  -4 -18   43.00   28.30
 -38  -4  18   49.99   28.60
 -38   4  18   42.30   29.30
 -36  -4  18   57.59   27.60
  36  -4 -18   41.00   27.90
 -36   4  18   65.89   32.20
 -34  -4  18  152.88   32.40
  34  -4 -18  179.88   34.00
 -34   4  18  213.88   38.00
  32  -4 -18  152.78   34.10
 -32  -4  18  125.79   26.70
 -32   4  18  211.78   36.00
 -30  -4  18    2.90   20.80
  30  -4 -18    0.00   23.70
 -28  -4  18  181.78   30.40
  28  -4 -18  191.88   35.30
  26  -4 -18   34.10   26.30
 -26  -4  18   48.40   25.70
 -26  -4  18   24.90   20.40
 -24  -4  18  314.87   37.00
  24  -4 -18  316.47   38.90
 -22  -4  18    1.70   23.60
  22  -4 -18  -18.00   19.80
  20  -4 -18    6.90   20.60
 -20  -4  18    7.00   22.70
  18  -4 -18   -5.20   20.40
 -18  -4  18   -1.80   20.90
 -16  -4  18  303.77   36.10
  16  -4 -18  328.37   37.00
  14  -4 -18   27.00   22.40
 -14  -4  18   19.00   21.50
 -14  -4  18   19.90   19.80
 -12  -4  18   53.49   23.70
  12  -4 -18   58.99   24.50
 -12  -4  18   42.60   24.60
  10  -4 -18   82.89   25.20
 -10  -4  18  117.39   28.10
  -8  -4  18  476.55   45.20
   8  -4 -18  512.85   41.60
   6  -4 -18  185.18   30.60
  -6  -4  18  243.98   35.20
   4  -4 -18  119.79   29.90
  -4  -4  18  148.99   33.50
   4  -4 -18  114.29   29.10
   2  -4 -18  208.68   35.50
   2  -4 -18  143.59   29.30
  -2  -4  18  154.18   37.00
   0  -4 -18   27.80   29.90
   0  -4 -18    4.90   22.30
   0  -4  18   -0.40   27.70
  -2  -4 -18  291.77   41.20
  -2  -4 -18  277.37   34.80
  -4  -4 -18  342.37   44.70
  -4  -4 -18  322.37   38.60
   4  -4  18  247.18   44.20
  -6  -4 -18  206.08   40.60
   6  -4  18   76.39   37.00
  -6  -4 -18  108.99   27.90
  -8  -4 -18   35.80   32.30
   8  -4  18   -0.60   34.70
 -10  -4 -18   75.09   36.20
  10  -4  18   64.89   39.00
  12  -4  18  312.57   54.59
 -12  -4 -18  224.28   43.20
 -14  -4 -18   23.00   33.60
 -16  -4 -18   77.69   36.80
 -37  -5  18   18.60   26.40
 -35  -5  18   -1.60   23.50
  33  -5 -18   39.90   28.40
 -33  -5  18   48.90   25.90
  31  -5 -18  229.08   38.40
 -31  -5  18  210.58   32.50
  29  -5 -18   25.60   26.40
 -29  -5  18   -2.90   17.40
  27  -5 -18  203.88   35.00
 -27  -5  18  134.79   33.80
  25  -5 -18    7.00   27.40
 -25  -5  18   -1.40   23.90
  23  -5 -18  136.99   31.00
 -23  -5  18  107.59   31.70
  21  -5 -18   48.00   26.50
 -21  -5  18    0.40   26.80
 -19  -5  18   13.00   25.00
  19  -5 -18    9.70   22.60
  17  -5 -18   56.69   27.10
 -17  -5  18  132.99   31.20
 -15  -5  18   -9.50   25.00
  15  -5 -18   35.60   24.80
  13  -5 -18   24.20   24.20
 -13  -5  18   -8.90   24.10
 -11  -5  18   12.70   24.70
  11  -5 -18  -19.80   24.60
  -9  -5  18  129.69   30.50
  -9  -5  18  198.38   35.80
   9  -5 -18  117.09   30.10
  -7  -5  18    6.20   24.80
  -7  -5  18  -11.30   25.10
   7  -5 -18    7.20   24.50
  -5  -5  18    8.00   28.60
   5  -5 -18  -13.70   22.30
  -3  -5  18   87.39   35.30
   3  -5 -18   96.89   29.00
   3  -5 -18   94.19   34.60
   1  -5 -18   75.59   35.10
   1  -5 -18   24.60   25.50
  -1  -5  18   49.30   33.10
  -1  -5 -18    0.40   21.90
   1  -5  18  -39.50   33.10
  -1  -5 -18   43.40   31.80
  -3  -5 -18    5.40   31.90
   3  -5  18   -3.90   33.30
  -5  -5 -18  185.38   42.40
   5  -5  18  243.68   46.70
   7  -5  18   15.70   40.30
  -7  -5 -18   19.60   36.50
  -9  -5 -18   41.30   36.70
   9  -5  18   57.29   44.70
 -11  -5 -18   84.09   39.40
 -32  -6  18   20.40   23.80
 -30  -6  18  -55.49   31.60
  28  -6 -18   61.19   33.30
 -28  -6  18   38.20   32.70
  26  -6 -18  157.18   35.10
 -26  -6  18  103.09   36.10
 -24  -6  18   23.30   34.00
  24  -6 -18   41.80   29.40
  22  -6 -18    2.20   27.00
 -22  -6  18  -29.60   29.60
 -20  -6  18   19.10   29.80
  20  -6 -18   48.10   29.50
 -18  -6  18   44.60   32.30
  18  -6 -18   76.89   30.10
 -16  -6  18  190.48   38.20
  16  -6 -18   71.39   27.50
  14  -6 -18  137.99   30.20
 -14  -6  18  168.58   37.40
  12  -6 -18   97.79   29.70
 -12  -6  18   90.79   34.30
 -10  -6  18   15.00   27.20
  10  -6 -18   55.99   28.70
   8  -6 -18   12.90   25.20
  -8  -6  18   54.79   29.60
  -6  -6  18  343.47   43.20
   6  -6 -18  279.67   37.60
  -4  -6  18   49.70   36.30
   4  -6 -18  -11.00   22.90
  -4  -6  18  -25.20   24.30
  -2  -6  18  145.29   32.10
  -2  -6  18   23.80   37.00
   0  -6  18  190.68   45.20
  -2  -6 -18  137.39   41.20
   2  -6  18   62.79   42.20
  -4  -6 -18   40.00   40.40
   4  -6  18  -23.00   39.60
  -6  -6 -18   41.50   39.80
  -8  -6 -18  127.49   47.10
 -25  -7  18  -16.90   33.20
 -23  -7  18   34.90   38.40
 -21  -7  18   53.79   35.40
 -19  -7  18    6.30   35.40
  19  -7 -18   56.29   29.70
  17  -7 -18  -27.40   22.90
 -17  -7  18   19.10   35.10
  15  -7 -18   42.30   29.50
 -15  -7  18    4.20   31.00
 -13  -7  18   -4.30   30.90
  13  -7 -18   -8.90   23.10
  11  -7 -18    9.50   25.40
 -11  -7  18   18.50   33.20
   9  -7 -18   -3.90   26.20
  -9  -7  18   22.90   31.30
  -7  -7  18    3.80   29.60
  -5  -7  18  171.18   38.40
  -3  -7  18   48.60   31.20
  -1  -7  18  -30.30   28.40
 -46   0  19    4.70   30.60
 -44   0  19  -41.70   27.70
 -42   0  19    1.60   27.20
 -40   0  19  -29.20   25.30
 -38   0  19   -2.20   24.90
 -36   0  19  -11.70   19.60
 -34   0  19   23.40   23.70
  32   0 -19   21.80   18.60
 -32   0  19   25.60   22.20
  30   0 -19   -1.40   15.30
 -30   0  19   -3.00   19.30
  28   0 -19    6.90   17.30
 -28   0  19   31.20   19.30
  26   0 -19   -9.50   14.60
 -26   0  19   15.80   19.90
 -24   0  19   -8.20   16.80
  24   0 -19  -10.70   14.20
  22   0 -19   23.50   16.20
 -22   0  19   -2.00   16.70
  20   0 -19   19.50   16.80
 -20   0  19   14.90   16.10
  18   0 -19    9.80   16.20
  16   0 -19    5.50   15.60
  14   0 -19    7.50   16.00
  12   0 -19    1.20   15.70
  10   0 -19    4.30   17.50
   8   0 -19   27.80   18.30
   6   0 -19    2.60   16.10
   4   0 -19   30.00   18.20
   2   0 -19   -9.10   17.60
   0   0 -19    4.30   20.40
   2   0  19    7.30   21.80
   4   0  19   -2.80   22.40
   6   0  19   30.30   25.00
   8   0  19   -7.30   24.90
  10   0  19    2.00   26.90
  12   0  19   10.00   31.20
  14   0  19    3.50   29.10
  16   0  19  -70.49   26.90
  18   0  19   10.80   35.90
 -45  -1  19  205.98   39.50
 -45   1  19  268.07   46.40
 -43  -1  19   20.90   29.50
 -43   1  19   61.99   33.80
 -41  -1  19   32.50   29.20
 -41   1  19   45.80   29.30
 -39  -1  19   71.89   29.50
 -39   1  19   70.99   30.70
 -37  -1  19   62.69   25.40
 -37   1  19   91.69   29.80
  35  -1 -19  139.99   28.20
 -35  -1  19  127.69   30.30
 -35   1  19  183.58   33.10
 -33  -1  19  242.18   35.90
  33  -1 -19  225.38   32.40
 -33   1  19  151.58   32.00
  31  -1 -19  108.49   25.40
 -31  -1  19   81.49   27.10
 -31   1  19   67.49   25.60
 -29  -1  19   10.60   21.10
  29  -1 -19    3.20   18.50
 -29   1  19    6.00   20.70
  27  -1 -19   -0.10   19.60
 -27  -1  19   11.20   19.10
 -27   1  19    9.50   20.20
  27   1 -19   18.50   16.20
  25  -1 -19  960.10   52.89
 -25  -1  19  897.91   53.99
  25   1 -19  928.51   49.10
 -25   1  19  920.61   52.19
 -23  -1  19   87.49   21.90
  23  -1 -19   67.79   22.30
  23   1 -19   62.49   18.10
 -23   1  19   55.59   20.10
 -21  -1  19  294.67   30.70
  21  -1 -19  291.27   32.70
 -21   1  19  259.07   29.20
  21   1 -19  271.57   29.40
  19  -1 -19   28.00   18.50
 -19  -1  19   19.90   15.50
  19   1 -19   11.70   14.70
 -17  -1  19  423.16   30.40
  17  -1 -19  441.36   38.90
  17   1 -19  390.56   33.90
  15  -1 -19  221.88   29.20
  15   1 -19  201.88   27.50
  13  -1 -19  177.38   27.00
  13   1 -19  171.88   25.50
  11  -1 -19  158.08   25.90
  11   1 -19  126.59   23.50
   9  -1 -19  302.17   33.40
   9   1 -19  288.17   32.70
   7  -1 -19  282.07   33.40
   7   1 -19  213.18   30.40
   5  -1 -19  488.45   42.90
   5   1 -19  447.26   42.20
   3  -1 -19   70.09   22.30
  -3  -1  19   43.90   21.50
   1  -1 -19    0.40   20.50
  -1  -1  19   29.20   22.70
   1  -1 -19   55.19   23.20
  -1  -1 -19  126.79   29.00
  -1  -1 -19   84.39   25.30
   1  -1  19  128.49   30.10
  -3  -1 -19  600.64   50.89
  -3  -1 -19  628.64   49.90
   3  -1  19  690.23   51.09
   5  -1  19   77.99   30.30
  -5  -1 -19   71.99   27.10
   5   1  19   76.09   27.10
  -7  -1 -19  171.58   34.90
   7  -1  19  132.69   34.90
   7   1  19  136.59   31.70
  -9  -1 -19   67.49   28.70
   9  -1  19   12.80   30.50
   9   1  19   44.80   26.10
 -11  -1 -19  511.25   53.99
  11  -1  19  484.45   53.99
  11   1  19  468.25   49.50
 -13  -1 -19  165.68   39.20
  13  -1  19  171.98   41.70
  13   1  19  132.79   35.50
  15  -1  19  -30.00   33.10
 -15  -1 -19    8.10   28.80
  15   1  19   32.30   32.50
  17  -1  19   23.90   38.30
 -17  -1 -19   26.10   33.80
  17   1  19    0.00   30.90
 -19  -1 -19  -14.30   29.30
 -44  -2  19  -44.20   26.60
 -44   2  19    5.60   27.60
 -42  -2  19   52.19   32.30
 -42   2  19   20.80   30.70
 -40  -2  19   30.80   30.20
  40  -2 -19   36.40   27.20
 -40   2  19   34.70   30.10
 -38  -2  19  -42.60   20.10
  38  -2 -19   22.80   24.90
 -38   2  19  -35.80   26.40
  36  -2 -19  118.89   30.60
 -36  -2  19  115.29   31.60
 -36   2  19  129.89   32.80
  34  -2 -19  -14.90   19.90
 -34  -2  19  -10.30   23.10
 -34   2  19  -12.80   23.70
  32  -2 -19   37.00   24.20
 -32  -2  19   12.10   23.40
 -32   2  19   77.09   27.40
 -30  -2  19  131.19   28.50
  30  -2 -19  140.99   27.90
 -30   2  19  155.88   30.20
 -28  -2  19   68.39   23.00
  28  -2 -19   79.69   24.10
 -28   2  19   42.40   23.70
  26  -2 -19   18.50   20.50
 -26  -2  19    8.30   19.30
 -26   2  19   23.90   20.10
  24  -2 -19  258.47   32.70
 -24  -2  19  269.07   30.80
  24   2 -19  225.18   28.90
 -24   2  19  236.88   30.30
  22  -2 -19   29.50   21.30
 -22  -2  19   80.69   20.60
  22   2 -19   18.50   16.00
 -20  -2  19   10.60   16.60
 -20  -2  19   14.00   15.20
  20  -2 -19   -1.90   18.00
  20   2 -19   -8.60   13.20
 -18  -2  19  124.19   21.30
  18  -2 -19  106.09   25.30
  18   2 -19  172.18   24.60
  16  -2 -19   10.50   18.20
 -16  -2  19    8.90   13.80
  16   2 -19    8.50   16.20
  14  -2 -19   38.00   18.80
  14   2 -19   66.99   19.80
  12  -2 -19   -5.80   16.40
  12   2 -19  -25.10   14.70
  10  -2 -19   28.90   19.80
  10  -2 -19    2.20   15.20
 -10  -2  19    4.60   20.20
  10   2 -19   -3.50   17.00
   8  -2 -19  104.39   25.00
  -8  -2  19   90.29   24.50
   8  -2 -19   83.59   21.40
  -6  -2  19   54.79   23.40
   6  -2 -19  -26.40   17.40
   6  -2 -19   -8.60   16.60
  -4  -2  19   61.99   24.50
   4  -2 -19   69.89   23.80
   4  -2 -19   74.99   23.80
   2  -2 -19   -3.50   21.50
   2  -2 -19  -20.20   18.90
  -2  -2  19    3.70   23.00
   0  -2 -19   92.39   25.90
   0  -2  19  111.89   29.20
   0  -2 -19   84.89   26.70
   2  -2  19   97.79   29.30
  -2  -2 -19   57.29   27.70
  -2  -2 -19   75.19   26.00
   4  -2  19   41.30   27.70
  -4  -2 -19   23.20   24.70
  -4  -2 -19   23.70   25.20
   6  -2  19   12.90   26.90
  -6  -2 -19   34.80   26.80
  -6  -2 -19  -27.40   24.20
   8  -2  19   17.80   32.40
  -8  -2 -19   56.49   29.10
   8   2  19   75.79   25.90
  10  -2  19   13.60   32.80
 -10  -2 -19   17.60   26.30
  10   2  19    7.40   22.60
 -12  -2 -19   -9.30   27.40
  12  -2  19   42.00   37.00
  12   2  19   29.20   25.50
  14  -2  19  189.28   44.30
 -14  -2 -19  148.59   38.60
  16  -2  19  -37.90   36.00
 -16  -2 -19   45.70   36.20
 -18  -2 -19   26.20   35.60
  43  -3 -19   98.69   32.20
 -43  -3  19   78.79   36.20
 -43   3  19   70.29   37.30
  41  -3 -19   34.90   27.90
 -41  -3  19   27.20   30.00
 -41   3  19   30.10   34.40
  39  -3 -19   30.90   27.00
 -39  -3  19   57.29   29.30
 -39   3  19  -33.20   23.50
 -37  -3  19   25.20   27.30
  37  -3 -19   10.50   25.50
 -37   3  19   -4.40   28.50
  35  -3 -19  149.19   33.50
 -35  -3  19  139.19   29.40
 -35   3  19  104.49   33.40
 -33  -3  19  137.89   30.70
  33  -3 -19  149.88   34.90
 -33   3  19  171.18   34.40
 -31  -3  19  -33.80   19.10
  31  -3 -19    8.60   22.90
 -31   3  19  -26.20   23.20
  29  -3 -19   23.00   23.10
 -29  -3  19   23.90   19.10
 -29   3  19   -3.40   24.60
 -27  -3  19  188.98   30.10
  27  -3 -19  215.08   33.70
 -27   3  19  188.88   30.90
 -25  -3  19  419.56   38.90
  25  -3 -19  490.15   44.50
 -23  -3  19  407.46   37.50
 -23  -3  19  357.16   35.10
  23  -3 -19  419.26   41.90
  21  -3 -19  139.79   28.40
 -21  -3  19  163.88   28.10
 -21  -3  19  129.79   23.50
 -19  -3  19   29.70   21.50
  19  -3 -19   29.40   20.40
 -19  -3  19   27.40   18.40
 -17  -3  19  547.75   42.70
 -17  -3  19  590.04   41.10
  17  -3 -19  557.64   43.20
 -15  -3  19  183.38   28.90
  15  -3 -19  237.18   32.60
  13  -3 -19  -25.60   19.50
 -13  -3  19   25.80   21.70
 -11  -3  19   10.30   19.80
  11  -3 -19   -8.80   19.40
   9  -3 -19   63.99   23.60
  -9  -3  19   94.39   25.80
   7  -3 -19  342.97   37.10
   7  -3 -19  362.76   36.40
  -7  -3  19  329.17   39.20
  -5  -3  19  343.77   41.00
   5  -3 -19  277.77   35.20
   5  -3 -19  341.27   36.70
   3  -3 -19   18.20   24.20
   3  -3 -19   14.80   21.40
  -3  -3  19   20.50   25.30
  -1  -3  19    0.00   25.10
   1  -3 -19  -14.50   21.40
   1  -3 -19  -17.30   21.00
  -1  -3 -19   16.90   22.50
  -1  -3 -19    5.00   25.70
   1  -3  19  -38.90   24.60
  -3  -3 -19  468.55   44.30
  -3  -3 -19  430.06   45.60
   3  -3  19  428.86   49.90
  -5  -3 -19   40.80   24.30
  -5  -3 -19   32.60   29.50
   5  -3  19   38.50   32.70
  -7  -3 -19   54.39   27.70
   7  -3  19   29.50   35.70
  -7  -3 -19   47.10   28.20
  -9  -3 -19    2.00   24.10
   9  -3  19   23.00   33.60
  -9  -3 -19   16.70   27.60
   9   3  19   13.30   21.80
  11  -3  19  121.89   41.20
 -11  -3 -19  124.79   35.30
  13  -3  19   76.69   43.40
 -13  -3 -19  175.78   41.20
 -15  -3 -19   32.10   34.40
 -40  -4  19    9.50   28.40
 -40   4  19   30.60   34.50
  38  -4 -19   76.69   31.90
 -38  -4  19   45.10   28.10
 -38   4  19   36.60   33.30
  36  -4 -19   37.80   30.00
 -36  -4  19   22.10   26.20
 -36   4  19   33.00   30.80
  34  -4 -19   -0.50   24.60
 -34  -4  19   -8.70   22.90
 -34   4  19    1.70   27.10
 -32  -4  19   30.30   23.40
  32  -4 -19   14.00   25.90
 -30  -4  19   11.10   17.60
  30  -4 -19   16.90   26.10
  28  -4 -19  159.48   32.00
 -28  -4  19  113.89   26.30
 -26  -4  19    9.40   20.30
  26  -4 -19   13.90   24.40
  24  -4 -19   63.99   26.50
 -24  -4  19    7.60   23.80
 -22  -4  19  164.88   29.90
  22  -4 -19  207.68   32.00
  20  -4 -19   19.60   22.80
 -20  -4  19   13.50   23.30
 -18  -4  19   52.09   24.00
  18  -4 -19   14.20   22.80
 -16  -4  19   21.70   22.60
  16  -4 -19   -0.30   22.50
  14  -4 -19   67.49   26.30
 -14  -4  19   52.29   23.30
 -14  -4  19   62.79   25.10
  12  -4 -19  193.98   31.60
 -12  -4  19  189.88   31.30
 -10  -4  19   61.59   24.90
  10  -4 -19   11.60   22.90
   8  -4 -19   -2.00   22.10
  -8  -4  19   37.90   24.60
   6  -4 -19   20.10   22.50
  -6  -4  19    0.80   24.50
  -4  -4  19  -20.50   24.80
   4  -4 -19   -9.80   21.80
   4  -4 -19   36.80   27.90
   2  -4 -19    6.00   26.40
   2  -4 -19   -8.10   20.60
  -2  -4  19  -26.00   27.90
   0  -4 -19    4.10   27.40
   0  -4  19  -12.30   28.80
   0  -4 -19   -6.90   20.50
   2  -4  19  -34.40   31.20
  -2  -4 -19   50.49   25.50
  -2  -4 -19   44.20   30.30
  -4  -4 -19   25.10   32.10
   4  -4  19  -14.40   31.00
  -4  -4 -19   16.50   23.50
   6  -4  19   18.10   34.80
  -6  -4 -19   46.70   28.30
  -6  -4 -19   46.20   33.40
  -8  -4 -19   -9.70   30.70
   8  -4  19   -8.70   35.70
  10  -4  19 -107.69   35.80
 -10  -4 -19   -4.40   30.00
 -12  -4 -19   71.09   34.20
 -14  -4 -19   17.10   32.40
 -37  -5  19   45.30   29.20
 -35  -5  19   78.69   25.90
 -33  -5  19  133.89   31.70
  33  -5 -19  162.78   36.90
 -31  -5  19   43.40   23.80
  31  -5 -19   -4.80   27.40
  29  -5 -19   14.90   29.30
 -29  -5  19   11.10   18.30
 -27  -5  19   77.39   29.00
  27  -5 -19   74.09   30.20
 -25  -5  19  111.29   33.10
  25  -5 -19  107.99   32.40
 -23  -5  19   15.70   28.00
  23  -5 -19   16.70   23.70
 -21  -5  19   25.40   29.30
  21  -5 -19   58.09   26.80
 -19  -5  19   12.10   26.40
  19  -5 -19   -3.90   23.40
 -17  -5  19   82.69   28.80
  17  -5 -19  100.29   28.30
  15  -5 -19  358.96   40.50
 -15  -5  19  435.66   45.00
 -13  -5  19   94.69   29.70
  13  -5 -19  106.99   28.90
 -11  -5  19   -2.50   24.30
  11  -5 -19   25.90   25.00
  -9  -5  19  175.88   33.90
  -9  -5  19  180.38   34.70
   9  -5 -19  129.69   30.80
   7  -5 -19  282.77   38.20
  -7  -5  19  225.18   39.20
   5  -5 -19  195.18   32.90
  -5  -5  19  169.28   37.50
  -3  -5  19   -9.80   32.70
   3  -5 -19   36.90   26.90
   1  -5 -19   57.79   31.30
   1  -5 -19    8.20   24.40
  -1  -5  19   17.70   32.70
   1  -5  19  135.79   42.20
  -1  -5 -19  239.38   42.90
  -1  -5 -19  151.88   31.80
  -3  -5 -19  307.47   45.70
   3  -5  19  215.18   45.50
  -5  -5 -19   30.10   33.00
   5  -5  19   33.00   38.00
   7  -5  19    5.70   39.30
  -7  -5 -19    6.00   35.80
  -9  -5 -19   27.70   37.40
 -28  -6  19  -20.00   33.90
 -26  -6  19   63.89   34.10
  26  -6 -19   40.30   31.50
  24  -6 -19   38.50   30.40
 -24  -6  19   -4.70   32.40
  22  -6 -19  -17.20   24.90
 -22  -6  19  -11.90   30.70
 -20  -6  19    6.90   32.30
  20  -6 -19   67.79   28.20
 -18  -6  19  220.78   40.70
  18  -6 -19  238.28   37.20
  16  -6 -19   -3.40   23.80
 -16  -6  19   -2.00   30.30
  14  -6 -19   63.19   27.40
 -14  -6  19   19.20   29.00
  12  -6 -19   63.29   30.30
 -12  -6  19   66.09   30.50
  10  -6 -19   19.00   24.50
 -10  -6  19    9.70   27.20
  -8  -6  19   34.20   30.70
   8  -6 -19  -23.90   24.70
   6  -6 -19   15.70   27.20
  -6  -6  19   18.60   29.70
  -4  -6  19  137.29   33.10
  -4  -6  19   47.80   38.50
   4  -6 -19  101.59   30.50
  -2  -6  19    1.20   38.00
  -2  -6  19    9.00   26.70
   0  -6  19   27.50   39.60
   2  -6  19  -56.49   34.50
  -2  -6 -19   45.40   39.90
  -4  -6 -19   99.59   43.70
 -21  -7  19   -5.80   36.50
 -19  -7  19    0.50   33.30
 -17  -7  19   63.39   35.30
  15  -7 -19   38.90   30.70
 -15  -7  19  -34.90   32.90
  13  -7 -19   18.30   28.30
 -13  -7  19   -0.90   31.60
 -11  -7  19  -25.20   31.30
  11  -7 -19   20.40   29.20
  -9  -7  19    0.40   32.50
   9  -7 -19   37.70   29.00
  -7  -7  19   68.69   32.20
  -5  -7  19   88.59   33.70
 -44   0  20  462.85   55.29
 -42   0  20    3.10   23.60
 -40   0  20   -2.10   27.20
 -38   0  20   57.29   26.70
 -36   0  20  359.76   42.80
 -34   0  20   25.80   25.00
 -32   0  20  189.08   31.70
  32   0 -20  155.88   28.10
 -30   0  20  723.83   49.80
  30   0 -20  690.73   46.20
 -28   0  20  709.93   48.00
  28   0 -20  724.23   46.40
  26   0 -20   86.79   22.30
 -26   0  20   47.40   20.80
  24   0 -20 1582.14   74.69
 -24   0  20 1721.33   76.29
  22   0 -20  448.26   39.60
 -22   0  20  391.26   35.40
  20   0 -20   41.10   19.60
  18   0 -20    6.60   16.20
  16   0 -20  651.83   42.40
  14   0 -20   47.60   19.70
  12   0 -20  217.88   29.90
  10   0 -20 1053.79   56.79
   8   0 -20 1360.76   67.69
   6   0 -20   36.60   20.00
   4   0 -20   81.99   24.80
   2   0 -20  211.98   32.90
   0   0  20  921.21   58.09
   0   0 -20  959.20   60.79
   2   0  20  305.97   39.90
   4   0  20  814.32   57.99
   6   0  20   79.99   31.10
   8   0  20   86.89   31.00
  10   0  20   82.29   33.30
  12   0  20  257.97   45.70
  14   0  20   43.50   32.10
  16   0  20  -18.80   33.60
 -45  -1  20   -9.30   24.90
 -45   1  20  -15.50   30.40
 -43  -1  20   33.10   29.60
 -43   1  20    9.10   31.00
 -41  -1  20    3.00   26.50
 -41   1  20  -54.99   24.60
 -39  -1  20   36.40   28.00
 -39   1  20   14.60   26.60
 -37  -1  20    7.60   25.30
 -37   1  20    9.20   25.10
 -35  -1  20   -2.80   23.30
  35  -1 -20   26.80   21.00
 -35   1  20   17.00   25.00
  33  -1 -20   90.39   26.40
 -33  -1  20  119.29   31.00
 -33   1  20  100.39   28.90
  31  -1 -20   28.40   21.20
 -31  -1  20   -3.30   22.60
 -31   1  20   20.10   22.50
 -29  -1  20   27.60   23.20
  29  -1 -20    4.90   19.40
 -29   1  20    2.60   21.30
  27  -1 -20   37.70   20.30
 -27  -1  20    0.20   19.50
  27   1 -20   44.40   19.40
 -27   1  20   36.80   22.70
 -25  -1  20   36.20   20.80
  25  -1 -20   54.49   21.00
  25   1 -20   58.49   19.90
 -25   1  20   32.50   21.70
  23  -1 -20  100.49   24.00
 -23  -1  20   82.49   21.80
  23   1 -20  109.39   22.50
 -21  -1  20  588.54   40.30
  21  -1 -20  504.75   39.20
  21   1 -20  496.95   35.80
  19  -1 -20   66.89   23.30
  19   1 -20   62.09   20.10
  17  -1 -20   95.29   22.80
  17   1 -20   66.89   20.10
  15  -1 -20   38.40   20.30
  15   1 -20   75.69   21.60
  13  -1 -20   49.90   19.70
  13   1 -20   63.69   19.90
  11  -1 -20   30.50   19.20
  11   1 -20   35.50   19.30
   9  -1 -20   95.29   23.80
   9   1 -20   82.69   23.50
   7  -1 -20  275.67   34.50
   7   1 -20  250.97   33.60
   5  -1 -20  119.09   26.10
   5   1 -20  127.99   27.10
  -3  -1  20   66.79   24.70
   3  -1 -20   23.30   21.90
  -1  -1  20  134.29   29.40
   1  -1 -20  122.19   29.40
  -1  -1 -20   16.00   24.40
  -1  -1 -20   25.70   22.50
   1  -1  20   11.90   23.30
  -3  -1 -20  241.28   36.00
  -3  -1 -20  253.87   38.00
   3  -1  20  231.68   37.80
  -5  -1 -20  180.68   34.90
   5  -1  20  161.98   36.20
   5   1  20  161.08   33.30
  -7  -1 -20  133.49   33.20
   7  -1  20  185.58   38.70
   7   1  20  149.49   33.50
   9  -1  20  -30.00   30.30
  -9  -1 -20   56.49   28.60
   9   1  20   -8.00   25.90
 -11  -1 -20   16.70   30.30
  11  -1  20  -14.50   29.00
  11   1  20    4.60   29.70
  13  -1  20   89.09   38.70
 -13  -1 -20   98.29   36.20
  13   1  20   43.50   30.70
 -15  -1 -20   43.80   33.10
  15  -1  20  -12.90   34.90
  15   1  20    6.80   30.80
 -17  -1 -20   21.30   31.70
  17   1  20   12.70   32.40
 -44  -2  20   53.39   33.50
 -44   2  20   73.29   35.40
 -42  -2  20   48.90   32.50
 -42   2  20   60.59   33.80
 -40  -2  20  -16.30   27.80
  40  -2 -20   38.40   26.50
 -40   2  20   24.10   29.80
  38  -2 -20   24.20   23.40
 -38  -2  20  -13.00   26.00
 -38   2  20  -14.90   27.40
  36  -2 -20  197.78   34.00
 -36  -2  20  142.09   33.50
 -36   2  20  164.38   35.50
  34  -2 -20  166.58   32.10
 -34  -2  20  129.19   32.50
 -34   2  20  167.68   34.50
  32  -2 -20   41.90   23.90
 -32  -2  20   42.70   25.20
 -32   2  20   -7.50   23.00
 -30  -2  20   26.70   22.70
  30  -2 -20   31.40   24.20
 -30   2  20   10.50   23.60
 -28  -2  20  -14.50   18.40
  28  -2 -20   -9.20   21.40
 -28   2  20  -10.20   22.60
  26  -2 -20  332.57   38.00
 -26  -2  20  324.07   35.20
 -26   2  20  313.27   39.90
  24  -2 -20   39.40   21.80
 -24  -2  20    9.20   17.60
  24   2 -20   -6.00   16.10
  22  -2 -20   31.50   20.80
 -22  -2  20   20.10   17.50
  22   2 -20   -4.70   15.80
 -20  -2  20   15.90   18.50
  20  -2 -20    2.70   19.20
 -20  -2  20   11.00   14.70
  20   2 -20   14.30   17.70
 -18  -2  20   69.39   18.10
  18  -2 -20   64.49   23.10
  18   2 -20   39.40   19.70
  16  -2 -20  187.28   29.60
  16   2 -20  205.48   28.60
  14  -2 -20   41.60   19.90
  14   2 -20   91.89   22.80
  12  -2 -20  259.87   33.50
  12   2 -20  269.07   33.30
  10  -2 -20  122.89   26.60
 -10  -2  20  194.38   30.40
  -8  -2  20   15.20   22.90
   8  -2 -20   41.10   21.80
   8  -2 -20   22.00   18.30
   6  -2 -20  243.18   32.80
   6  -2 -20  248.28   31.80
  -6  -2  20  242.88   35.40
   4  -2 -20   44.50   24.20
   4  -2 -20   27.30   22.50
  -4  -2  20   86.09   28.20
   2  -2 -20   23.80   23.10
   2  -2 -20   21.30   24.30
  -2  -2  20    2.50   24.00
   0  -2 -20  -15.70   21.60
   0  -2 -20   -8.90   20.90
   0  -2  20   -2.80   23.90
  -2  -2 -20  400.26   43.50
  -2  -2 -20  339.67   42.50
   2  -2  20  365.36   46.40
  -4  -2 -20  120.49   31.90
   4  -2  20   70.99   32.40
  -4  -2 -20  115.49   32.00
  -6  -2 -20   41.10   28.10
  -6  -2 -20   38.40   26.10
   6  -2  20   30.70   31.40
   6   2  20   25.10   23.30
   8  -2  20   71.49   35.40
  -8  -2 -20  120.89   34.60
   8   2  20   94.39   30.30
 -10  -2 -20  146.79   38.80
  10  -2  20  233.68   46.10
  10   2  20  135.39   33.40
  12  -2  20   15.40   37.70
 -12  -2 -20   60.79   34.50
  12   2  20   67.79   30.80
 -14  -2 -20  199.28   44.90
 -16  -2 -20   43.40   36.20
  41  -3 -20   46.80   29.00
 -41  -3  20   17.80   30.20
 -41   3  20   50.09   33.20
 -39  -3  20  -22.20   25.30
  39  -3 -20    7.20   26.40
 -39   3  20  -11.50   31.30
  37  -3 -20    5.40   25.10
 -37  -3  20   28.30   27.60
 -37   3  20  -24.40   28.30
 -35  -3  20    7.20   25.30
  35  -3 -20   -5.60   24.20
 -35   3  20   -8.90   27.50
 -33  -3  20  129.59   30.50
  33  -3 -20  173.78   33.20
 -33   3  20  134.89   34.80
 -31  -3  20  -19.20   20.30
  31  -3 -20    7.20   22.20
 -31   3  20  -33.60   21.60
 -29  -3  20   51.49   23.20
  29  -3 -20   54.69   25.70
 -29   3  20    2.90   22.70
 -27  -3  20  109.09   25.50
  27  -3 -20  206.88   33.80
 -25  -3  20  113.29   25.00
  25  -3 -20  169.88   31.70
 -23  -3  20   41.10   18.50
  23  -3 -20   26.90   22.40
 -21  -3  20  129.69   27.00
  21  -3 -20  130.19   28.80
 -21  -3  20  123.59   23.20
  19  -3 -20  174.08   30.30
 -19  -3  20  160.28   27.50
 -19  -3  20  140.09   26.40
  17  -3 -20  -26.40   20.70
 -17  -3  20   -4.80   18.80
 -17  -3  20   24.20   21.30
 -15  -3  20  118.49   27.20
  15  -3 -20  143.69   27.90
  13  -3 -20  254.97   34.00
 -13  -3  20  316.17   36.00
  11  -3 -20   44.90   23.40
 -11  -3  20   59.19   24.00
  -9  -3  20   -4.40   23.10
   9  -3 -20    3.90   22.60
  -7  -3  20  394.66   42.40
   7  -3 -20  396.06   41.50
   5  -3 -20   48.50   25.30
  -5  -3  20   72.29   27.90
   5  -3 -20   79.39   25.90
  -3  -3  20   73.19   28.40
   3  -3 -20   61.79   26.30
   3  -3 -20   49.70   26.70
  -1  -3  20   29.10   28.60
   1  -3 -20   37.80   27.70
   1  -3 -20   37.60   25.40
   1  -3  20   23.70   28.80
  -1  -3 -20   89.39   29.60
  -1  -3 -20   49.70   27.00
   3  -3  20   22.00   30.60
  -3  -3 -20   65.49   29.50
  -3  -3 -20   62.89   28.00
  -5  -3 -20    2.20   25.40
   5  -3  20   29.50   32.90
  -5  -3 -20   28.40   28.30
   7  -3  20   87.79   37.90
  -7  -3 -20   98.59   32.60
  -7  -3 -20   38.30   28.90
   9  -3  20   35.50   37.30
  -9  -3 -20   52.89   32.20
   9   3  20   76.09   28.50
  11  -3  20   46.70   41.30
 -11  -3 -20  127.99   37.10
 -13  -3 -20  -31.50   29.20
 -40   4  20  -45.30   30.30
 -38  -4  20   50.29   28.80
 -38   4  20   20.50   30.80
  36  -4 -20   46.50   32.20
 -36  -4  20   61.59   29.60
 -36   4  20   26.60   30.40
 -34  -4  20   26.60   21.70
  34  -4 -20   14.70   27.10
 -34   4  20   28.10   28.70
  32  -4 -20   18.10   25.90
 -32  -4  20   -1.90   22.00
 -30  -4  20   93.19   26.50
  30  -4 -20   55.29   30.60
  28  -4 -20  132.29   33.20
 -28  -4  20  121.39   28.20
 -26  -4  20  176.08   29.60
  26  -4 -20  204.38   36.00
  24  -4 -20  286.57   38.50
 -24  -4  20  251.07   36.70
  22  -4 -20  143.69   31.20
 -22  -4  20   48.80   25.90
  20  -4 -20  -15.80   20.90
 -20  -4  20   41.80   25.90
  18  -4 -20   20.30   23.80
 -18  -4  20   28.20   24.20
 -16  -4  20  758.92   52.59
  16  -4 -20  774.02   53.69
 -14  -4  20   34.40   23.40
  14  -4 -20   16.00   23.10
 -14  -4  20  -36.60   22.40
  12  -4 -20   26.80   25.10
 -12  -4  20   63.39   25.40
  10  -4 -20    9.50   25.30
 -10  -4  20   -4.40   25.90
   8  -4 -20  647.44   49.60
  -8  -4  20  672.83   54.19
   6  -4 -20  328.47   40.10
  -6  -4  20  286.97   42.30
   4  -4 -20   96.19   29.70
  -4  -4  20   79.79   32.60
   2  -4 -20   83.69   27.70
   2  -4 -20  120.29   30.50
  -2  -4  20  102.49   34.70
   0  -4 -20  116.09   29.90
   0  -4 -20  140.49   33.40
   0  -4  20  112.69   37.80
   2  -4  20   10.50   36.70
  -2  -4 -20   85.29   31.80
  -2  -4 -20  149.69   32.60
  -4  -4 -20  319.97   44.40
  -4  -4 -20  229.58   37.40
   4  -4  20  282.07   48.20
   6  -4  20  128.19   43.30
  -6  -4 -20  117.69   36.20
  -8  -4 -20  102.69   36.00
   8  -4  20   -5.50   36.50
 -10  -4 -20   37.00   34.40
 -35  -5  20   35.30   27.10
 -33  -5  20   -6.30   22.60
 -31  -5  20  119.49   28.60
  31  -5 -20   93.69   33.30
  29  -5 -20   16.80   28.20
 -29  -5  20    7.10   21.80
  27  -5 -20   23.80   26.50
 -27  -5  20   26.40   30.80
 -25  -5  20   55.09   29.80
  25  -5 -20   96.29   30.60
 -23  -5  20  108.39   33.70
  23  -5 -20  124.49   31.30
  21  -5 -20   23.00   26.20
 -21  -5  20    0.50   25.70
  19  -5 -20  -14.20   22.00
 -19  -5  20   52.59   27.80
 -17  -5  20   57.89   30.50
  17  -5 -20   34.10   25.60
  15  -5 -20  133.99   31.60
 -15  -5  20  111.39   32.40
  13  -5 -20   89.59   27.10
 -13  -5  20   38.20   26.90
  11  -5 -20   -4.80   23.40
 -11  -5  20   73.39   28.30
   9  -5 -20  292.57   37.80
  -9  -5  20  275.77   41.20
  -9  -5  20  225.58   38.00
  -7  -5  20    2.00   28.90
   7  -5 -20   66.89   28.50
  -5  -5  20  -20.60   31.90
   5  -5 -20  -12.10   24.70
   3  -5 -20   -8.50   24.20
  -3  -5  20   24.30   32.50
   1  -5 -20   38.70   27.10
  -1  -5  20  -32.00   35.00
   1  -5  20    7.90   35.60
  -1  -5 -20  -28.60   31.80
  -1  -5 -20    9.20   28.60
   3  -5  20  -81.89   32.20
  -3  -5 -20   19.70   33.70
  -5  -5 -20  260.97   46.40
   5  -5  20  124.09   53.09
  -7  -5 -20   87.59   39.80
 -28  -6  20  -14.70   34.50
 -26  -6  20  -24.40   32.60
  24  -6 -20   39.10   30.80
 -24  -6  20   33.10   33.10
 -22  -6  20  -23.30   28.80
  22  -6 -20   16.60   28.50
 -20  -6  20  -47.40   27.00
  20  -6 -20   25.40   27.80
 -18  -6  20   71.59   33.00
  18  -6 -20   27.50   27.00
  16  -6 -20   30.60   27.50
 -16  -6  20   46.20   31.80
  14  -6 -20    4.30   26.90
 -14  -6  20   46.40   30.20
  12  -6 -20   -5.90   24.30
 -12  -6  20  -11.20   28.80
  10  -6 -20   -0.80   25.70
 -10  -6  20   21.20   28.60
   8  -6 -20    8.00   27.80
  -8  -6  20   14.90   28.70
  -6  -6  20   34.80   30.10
   6  -6 -20   52.59   30.50
  -4  -6  20   84.79   30.40
   4  -6 -20   16.70   27.70
  -4  -6  20   45.20   40.40
  -2  -6  20  -20.90   36.80
  -2  -6  20   22.90   30.00
   0  -6  20   -2.20   40.90
 -44   0  21    8.90   30.90
 -42   0  21  -53.99   25.20
 -40   0  21   11.30   26.30
 -38   0  21  -17.30   24.70
 -36   0  21  -40.00   22.50
 -34   0  21   16.90   23.90
 -32   0  21   15.70   23.00
  32   0 -21   22.90   20.00
  30   0 -21   -8.10   16.50
 -30   0  21   12.20   21.80
  28   0 -21   -5.50   18.20
 -28   0  21  -14.00   18.30
 -26   0  21   32.20   19.40
  26   0 -21   -1.70   17.30
  24   0 -21    8.10   18.50
  22   0 -21   -3.60   17.80
  20   0 -21   20.10   18.30
  18   0 -21    3.60   16.80
  16   0 -21  -18.50   15.60
  14   0 -21  -13.90   17.20
  12   0 -21   30.70   20.40
  10   0 -21    0.40   19.30
   8   0 -21    8.10   19.40
   6   0 -21   -7.50   19.50
   4   0 -21  -10.90   19.80
   2   0 -21  -11.80   22.00
   0   0  21   61.09   25.40
   2   0  21    6.40   25.20
   4   0  21   56.29   26.70
   6   0  21    6.90   25.80
   8   0  21   19.30   29.50
  10   0  21    3.10   29.30
  12   0  21   -4.00   32.20
  14   0  21   -3.90   35.90
 -43  -1  21   99.19   34.50
 -43   1  21  111.49   36.90
 -41  -1  21   -5.60   25.50
 -41   1  21    2.10   23.60
 -39  -1  21   27.40   26.30
 -39   1  21   -0.20   25.10
 -37  -1  21   52.99   27.50
 -37   1  21   68.19   28.30
  35  -1 -21  676.73   49.99
 -35  -1  21  547.55   52.29
 -35   1  21  664.93   52.89
  33  -1 -21   47.30   25.20
 -33  -1  21   -7.60   23.10
 -33   1  21    6.60   23.20
 -31  -1  21    5.10   23.00
  31  -1 -21   -3.00   18.40
 -31   1  21   19.30   23.00
 -29  -1  21  140.59   29.30
  29  -1 -21  134.39   29.40
 -29   1  21  114.19   29.10
 -27  -1  21  645.44   46.40
  27  -1 -21  691.03   45.60
 -27   1  21  531.85   43.90
  27   1 -21  592.84   42.00
 -25  -1  21  102.69   24.90
  25  -1 -21  121.19   26.50
  25   1 -21  101.69   22.50
 -23  -1  21  151.48   27.80
  23  -1 -21  249.28   32.70
  23   1 -21  234.28   29.50
  21  -1 -21  202.88   30.70
  21   1 -21  151.28   26.00
  19  -1 -21  345.97   36.80
  19   1 -21  344.67   36.30
  17  -1 -21  263.67   32.90
  17   1 -21  223.58   30.30
  15  -1 -21  510.05   40.30
  15   1 -21  506.25   38.80
  13  -1 -21  100.29   25.10
  13   1 -21   39.80   20.40
  11  -1 -21   19.40   19.80
  11   1 -21  -20.50   16.00
   9  -1 -21   32.00   21.10
   9   1 -21   31.80   20.70
   7  -1 -21  579.84   48.90
   7   1 -21  517.05   47.00
  -5  -1  21  111.29   28.00
   5  -1 -21  110.79   28.00
   5   1 -21  112.59   28.20
   3  -1 -21   28.70   24.50
  -3  -1  21   -7.40   23.10
   1  -1 -21   21.90   24.60
  -1  -1  21   20.10   24.30
   1  -1  21  138.29   33.70
  -1  -1 -21  195.28   36.50
   3  -1  21  176.88   37.20
   3   1  21  180.78   33.10
   5  -1  21  -12.70   27.30
   5   1  21   35.70   25.60
   7  -1  21   38.60   33.80
   7   1  21   86.49   30.90
   9  -1  21    1.00   34.50
   9   1  21   14.10   29.00
  11  -1  21   29.60   37.40
  11   1  21   64.39   32.90
  13  -1  21   71.19   42.90
  13   1  21   97.79   37.50
  15   1  21   17.00   34.40
 -42  -2  21   14.20   29.50
 -42   2  21  -17.00   29.60
  40  -2 -21   60.89   26.40
 -40  -2  21    3.60   28.00
 -40   2  21    8.10   29.70
 -38  -2  21   -3.90   26.70
  38  -2 -21    8.10   24.80
 -38   2  21  -51.79   24.70
 -36  -2  21    2.10   25.60
  36  -2 -21   10.10   24.20
 -36   2  21   17.60   27.10
 -34  -2  21   10.30   23.80
  34  -2 -21   10.80   22.40
 -34   2  21   -1.20   24.80
  32  -2 -21   51.09   25.00
 -32  -2  21   25.00   24.40
 -32   2  21   55.99   26.10
  30  -2 -21   30.40   23.60
 -30  -2  21   43.20   24.50
 -30   2  21   36.30   24.90
  28  -2 -21   -2.80   22.00
 -28  -2  21  -16.70   19.90
 -26  -2  21  143.19   25.70
  26  -2 -21  189.98   32.50
 -24  -2  21  368.76   35.70
  24  -2 -21  301.07   37.60
  24   2 -21  348.87   35.40
  22  -2 -21  116.89   26.80
 -22  -2  21   86.69   23.20
  22   2 -21  111.69   24.00
  20  -2 -21   34.30   22.30
  20   2 -21    9.80   17.30
  18  -2 -21   85.39   24.90
  18   2 -21   82.99   22.30
  16  -2 -21   62.69   23.40
  16   2 -21   33.30   20.10
  14  -2 -21    7.30   20.00
  14   2 -21  -24.20   17.40
  12  -2 -21    6.00   19.40
  12   2 -21   28.40   22.30
 -10  -2  21   76.59   25.10
  10  -2 -21   59.69   24.20
   8  -2 -21   67.39   24.70
   8  -2 -21   86.39   23.40
  -8  -2  21  121.29   29.10
  -6  -2  21  -10.60   23.60
   6  -2 -21  -16.60   21.10
   6  -2 -21   20.20   21.60
  -4  -2  21  126.49   30.50
   4  -2 -21  131.69   28.00
   4  -2 -21  145.19   30.50
  -2  -2  21   34.40   27.50
   2  -2 -21   39.70   23.50
   2  -2 -21   26.00   24.50
   0  -2 -21   49.50   28.90
   0  -2 -21   66.39   26.70
   0  -2  21   11.00   26.40
  -2  -2 -21   52.69   28.00
  -2  -2 -21   46.10   27.70
   2  -2  21   48.80   31.70
  -4  -2 -21   10.90   27.10
  -4  -2 -21   20.00   28.10
   4  -2  21   19.90   29.30
   6  -2  21  -50.29   28.80
  -6  -2 -21   -5.10   26.30
   6   2  21   44.60   26.10
  -8  -2 -21   39.70   32.80
   8  -2  21   17.20   34.90
   8   2  21   77.59   28.70
 -10  -2 -21   23.40   31.50
  10  -2  21    4.90   35.80
  10   2  21   21.60   27.20
 -12  -2 -21  -12.50   30.90
  12   2  21   28.80   30.30
 -14  -2 -21    5.80   34.10
 -41  -3  21   36.70   31.60
  41  -3 -21   62.29   29.40
 -41   3  21    9.70   33.50
  39  -3 -21   50.09   29.30
 -39  -3  21   -4.50   28.10
 -39   3  21   17.40   31.80
 -37  -3  21   -2.80   26.10
  37  -3 -21   19.70   27.50
 -37   3  21  -17.60   27.80
  35  -3 -21  240.58   38.00
 -35  -3  21  181.68   35.30
 -35   3  21  132.89   35.10
 -33  -3  21   42.70   24.70
  33  -3 -21   13.70   23.50
 -33   3  21   57.49   30.10
 -31  -3  21   11.00   22.00
  31  -3 -21   22.80   24.30
  29  -3 -21   32.90   25.40
 -29  -3  21   -0.70   20.10
  27  -3 -21  162.28   32.40
 -27  -3  21  133.39   27.40
  25  -3 -21   20.30   23.90
 -25  -3  21   40.60   21.60
 -23  -3  21   20.70   17.70
  23  -3 -21  -13.30   23.00
 -21  -3  21   92.89   25.50
  21  -3 -21  148.39   30.90
 -21  -3  21  118.89   24.00
  19  -3 -21   21.30   23.00
 -19  -3  21   67.59   23.10
 -19  -3  21   16.60   22.00
 -19  -3  21   42.70   18.20
 -17  -3  21  353.86   38.00
  17  -3 -21  334.57   39.00
 -15  -3  21  249.38   33.80
  15  -3 -21  241.38   35.70
  13  -3 -21   46.30   23.80
 -13  -3  21    7.00   21.70
  11  -3 -21    5.60   22.80
 -11  -3  21    8.40   21.10
   9  -3 -21  119.59   31.20
  -9  -3  21  133.29   30.50
   7  -3 -21  332.57   39.30
  -7  -3  21  248.98   37.50
   5  -3 -21    8.30   23.40
   5  -3 -21   58.39   25.00
  -5  -3  21    5.50   25.60
   3  -3 -21   34.20   26.10
   3  -3 -21   -7.80   25.20
  -3  -3  21  -13.00   27.90
   1  -3 -21   -7.30   25.20
   1  -3 -21    1.20   23.90
  -1  -3  21  -12.90   27.60
  -1  -3 -21  138.69   31.90
   1  -3  21  131.19   37.90
  -1  -3 -21  162.28   34.30
   3  -3  21  174.28   41.00
  -3  -3 -21  207.98   37.60
  -3  -3 -21  213.38   37.50
   5  -3  21    1.30   34.00
  -5  -3 -21  -18.90   25.10
  -5  -3 -21   11.60   27.30
  -7  -3 -21   58.49   33.00
  -7  -3 -21  -12.10   26.10
   7  -3  21   -9.40   34.40
   9  -3  21   22.10   42.00
  -9  -3 -21   86.69   35.80
 -11  -3 -21  313.47   50.49
 -38  -4  21   10.10   26.90
 -38   4  21  -54.69   26.30
  36  -4 -21  -52.69   28.90
 -36  -4  21  -22.70   24.80
 -36   4  21   -2.30   28.50
  34  -4 -21   30.50   27.70
 -34  -4  21   29.50   23.20
 -32  -4  21   13.50   23.20
  32  -4 -21   22.30   27.30
  30  -4 -21   49.99   28.00
 -30  -4  21   26.20   21.80
 -28  -4  21   38.00   22.80
  28  -4 -21   35.20   26.40
  26  -4 -21   38.50   26.10
 -26  -4  21   25.80   20.10
 -24  -4  21   23.00   26.00
 -24  -4  21   41.50   20.70
  24  -4 -21   23.40   24.30
 -22  -4  21   17.80   24.80
  22  -4 -21    8.90   23.30
  20  -4 -21    1.80   24.30
 -20  -4  21   -4.60   21.90
  18  -4 -21   -0.90   22.90
 -18  -4  21   29.60   25.40
 -16  -4  21   52.69   25.40
  16  -4 -21    7.20   23.60
 -14  -4  21   76.99   26.60
 -14  -4  21   67.59   28.50
  14  -4 -21   77.09   28.30
  12  -4 -21   35.50   26.00
 -12  -4  21   19.20   24.50
 -10  -4  21  -12.60   23.80
  10  -4 -21   -7.00   23.20
  -8  -4  21  153.58   36.00
   8  -4 -21  183.88   33.70
   6  -4 -21   87.09   28.50
  -6  -4  21   71.99   30.00
  -4  -4  21    7.10   29.80
   4  -4 -21   77.89   28.00
  -2  -4  21   15.00   31.10
   2  -4 -21   26.10   25.70
   2  -4 -21   86.39   31.30
   0  -4 -21   44.70   30.20
   0  -4 -21   57.89   26.90
   0  -4  21   56.59   35.20
  -2  -4 -21  -25.20   25.10
   2  -4  21  -35.80   33.50
  -2  -4 -21   -7.60   28.40
   4  -4  21    9.10   35.90
  -4  -4 -21   71.89   31.60
  -4  -4 -21   81.09   30.60
  -6  -4 -21   61.29   34.90
  -8  -4 -21   74.09   36.00
 -33  -5  21   42.50   25.40
 -31  -5  21    0.90   19.20
  29  -5 -21    0.00   25.50
 -29  -5  21    4.20   21.90
  27  -5 -21   68.49   30.20
 -25  -5  21  123.49   35.00
  25  -5 -21  114.89   33.40
 -23  -5  21    7.10   26.40
  23  -5 -21    8.30   26.30
  21  -5 -21  -10.20   24.50
 -21  -5  21   19.30   30.00
  19  -5 -21   57.39   28.30
 -19  -5  21   59.69   29.10
  17  -5 -21  166.98   36.20
 -17  -5  21  162.38   34.10
 -15  -5  21  175.88   34.40
  15  -5 -21  163.98   34.80
 -13  -5  21   11.00   26.80
  13  -5 -21   51.89   27.90
 -11  -5  21   54.89   26.90
  11  -5 -21   10.50   23.50
  -9  -5  21   92.59   28.80
   9  -5 -21   31.70   28.00
  -9  -5  21   15.60   33.10
  -7  -5  21  298.87   46.80
   7  -5 -21  281.87   39.90
  -5  -5  21   81.79   36.80
   5  -5 -21  141.99   34.50
   3  -5 -21   33.10   28.30
  -3  -5  21  -24.70   34.50
   1  -5 -21   27.20   25.70
  -1  -5  21   23.50   37.60
   1  -5  21  -28.70   41.00
  -1  -5 -21   88.59   37.30
  -3  -5 -21   31.00   31.80
  -5  -5 -21   -9.80   32.90
 -28  -6  21   55.99   40.20
 -26  -6  21   -0.90   35.00
 -24  -6  21   77.99   35.70
 -22  -6  21   43.10   34.60
  20  -6 -21   81.19   33.70
 -20  -6  21   85.39   35.60
  18  -6 -21   34.60   29.30
 -18  -6  21   64.19   35.40
 -16  -6  21    1.70   31.00
  16  -6 -21   13.70   30.20
 -14  -6  21   39.00   32.60
  14  -6 -21   45.20   31.60
 -12  -6  21   12.90   28.70
  12  -6 -21   23.00   26.70
  10  -6 -21   19.00   25.90
 -10  -6  21   43.00   30.20
  -8  -6  21    9.00   27.50
   8  -6 -21   52.79   30.00
  -6  -6  21   26.00   29.40
   6  -6 -21   -9.20   27.60
  -4  -6  21   80.29   32.20
  -4  -6  21   42.90   42.20
  -2  -6  21  -10.80   26.00
  -2  -6  21   43.60   44.30
 -44   0  22  -15.60   29.70
 -42   0  22   84.89   32.60
 -40   0  22   40.50   31.10
 -38   0  22   20.80   27.90
 -36   0  22  383.66   44.90
 -34   0  22  150.58   32.50
  32   0 -22   49.10   21.70
 -32   0  22    2.60   22.90
  30   0 -22   81.99   24.60
 -30   0  22   57.69   26.00
 -28   0  22  212.78   31.30
  28   0 -22  239.48   32.70
  26   0 -22  576.44   44.00
  24   0 -22   18.60   18.70
  22   0 -22   70.19   22.70
  20   0 -22   35.80   20.30
  18   0 -22  312.27   35.60
  16   0 -22  291.97   35.60
  14   0 -22   27.50   20.90
  12   0 -22   -3.30   19.60
  10   0 -22   48.00   22.40
   8   0 -22  252.27   36.70
   6   0 -22  522.05   49.40
   4   0 -22    8.00   22.50
   2   0 -22   36.50   26.50
   0   0  22  707.23   55.29
   2   0  22  137.19   34.20
   4   0  22 1095.69   72.29
   6   0  22  120.79   35.40
   8   0  22   71.99   34.40
  10   0  22    4.30   32.90
 -43  -1  22   71.09   32.60
 -43   1  22   54.39   33.40
 -41  -1  22   23.80   29.50
 -41   1  22   46.30   32.00
 -39  -1  22  -25.30   23.60
 -39   1  22   10.00   27.10
 -37  -1  22   -6.40   24.60
 -37   1  22    6.30   25.20
  35  -1 -22  -11.30   21.40
 -35  -1  22   18.50   25.20
 -35   1  22  -23.70   22.70
  33  -1 -22  170.68   31.60
 -33  -1  22  203.78   34.60
 -33   1  22  167.48   31.70
 -31  -1  22   91.99   29.40
  31  -1 -22  105.09   26.30
 -31   1  22   81.79   28.20
 -29  -1  22  159.88   31.30
  29  -1 -22  162.88   29.90
 -27  -1  22   28.00   24.40
  27  -1 -22   18.80   20.60
  27   1 -22    0.60   18.40
  25  -1 -22  127.49   27.60
  25   1 -22  169.78   27.00
  23  -1 -22   -6.00   20.10
  23   1 -22  -14.70   18.50
  21  -1 -22  126.09   27.20
  21   1 -22  189.18   29.60
  19  -1 -22  -14.00   18.80
  19   1 -22  -25.60   15.50
  17  -1 -22  176.58   29.80
  17   1 -22  180.98   28.60
  15  -1 -22  118.79   27.00
  15   1 -22  117.39   26.40
  13  -1 -22   58.79   23.40
  13   1 -22   64.89   23.10
  11  -1 -22  175.18   31.10
  11   1 -22  128.99   29.50
   9  -1 -22  473.75   45.30
   9   1 -22  483.25   47.00
   7  -1 -22  -18.90   20.80
   7   1 -22  -29.30   20.30
   5  -1 -22  127.19   30.40
  -5  -1  22  137.99   30.50
  -3  -1  22  144.19   33.30
   3  -1 -22  171.68   33.90
  -1  -1  22   43.10   28.50
   1  -1 -22   32.10   26.70
   1  -1  22   15.60   25.50
  -1  -1 -22  -14.60   25.80
   3  -1  22   38.40   30.70
   3   1  22   91.09   30.00
   5  -1  22  322.47   47.20
   5   1  22  270.87   42.70
   7  -1  22   43.30   34.60
   7   1  22   38.30   31.30
   9  -1  22  201.98   44.30
   9   1  22  214.38   40.90
  11   1  22   17.30   31.90
 -42  -2  22   40.00   32.20
 -42   2  22   18.70   33.10
 -40  -2  22   53.79   32.20
  40  -2 -22   57.89   27.30
 -40   2  22   21.00   31.60
  38  -2 -22  185.68   36.00
 -38  -2  22  152.98   34.00
 -38   2  22  203.38   39.50
 -36  -2  22   36.90   28.30
  36  -2 -22   45.10   25.80
 -36   2  22   15.80   27.20
 -34  -2  22  155.08   33.60
  34  -2 -22  160.98   32.90
 -34   2  22  181.28   34.80
  32  -2 -22   43.00   27.10
 -32  -2  22   33.60   24.10
  30  -2 -22   78.09   27.60
 -30  -2  22   46.70   25.20
  28  -2 -22   17.10   23.00
 -28  -2  22    8.10   21.80
 -26  -2  22 1096.39   61.99
  26  -2 -22 1073.19   63.09
 -24  -2  22   67.79   21.80
  24  -2 -22  100.09   27.80
  24   2 -22   42.70   21.20
  22  -2 -22   44.20   24.50
  22   2 -22    3.30   19.10
  20  -2 -22  185.98   32.80
  20   2 -22  159.28   28.50
  18  -2 -22  645.64   47.10
  18   2 -22  515.45   41.80
  16  -2 -22   53.09   24.00
  16   2 -22   57.09   22.80
  14  -2 -22  208.88   33.30
  14   2 -22  252.67   34.00
 -12  -2  22  322.37   38.70
  12  -2 -22  356.46   40.40
  10  -2 -22  482.65   46.50
 -10  -2  22  424.26   44.20
  -8  -2  22  491.05   47.20
   8  -2 -22  493.65   46.80
   6  -2 -22  249.68   37.80
  -6  -2  22  185.88   35.10
   6  -2 -22  163.28   29.10
   4  -2 -22  144.39   29.80
  -4  -2  22   60.39   29.60
   4  -2 -22  110.89   30.30
   2  -2 -22   16.70   23.90
   2  -2 -22   15.70   25.40
  -2  -2  22    4.40   25.90
   0  -2 -22   12.60   26.10
   0  -2  22   38.90   30.80
   0  -2 -22   21.80   26.40
   2  -2  22  767.42   62.29
  -2  -2 -22  671.73   54.39
  -2  -2 -22  783.92   57.99
  -4  -2 -22   16.40   28.80
  -4  -2 -22   18.00   26.20
   4  -2  22  -48.70   27.30
  -6  -2 -22   67.69   31.90
   6  -2  22   33.70   35.50
   6   2  22   63.29   28.90
   8  -2  22  -11.80   33.70
  -8  -2 -22   32.40   31.70
   8   2  22   25.10   27.50
 -10  -2 -22  425.56   55.49
  10   2  22  388.16   48.10
  39  -3 -22  -10.90   24.10
 -39  -3  22  -13.50   26.40
 -39   3  22  -17.10   32.40
  37  -3 -22   20.30   29.10
 -37  -3  22  -34.20   26.40
 -37   3  22    7.40   31.60
 -35  -3  22   31.10   27.40
  35  -3 -22   78.69   29.90
 -33  -3  22   74.69   27.70
  33  -3 -22   79.89   29.30
  31  -3 -22   19.20   26.70
 -31  -3  22   36.30   23.30
 -29  -3  22   23.50   22.40
  29  -3 -22   -6.30   22.20
  27  -3 -22   18.10   25.10
 -27  -3  22   14.70   20.40
  25  -3 -22   49.90   28.60
 -25  -3  22   62.39   22.30
 -23  -3  22  130.99   25.90
  23  -3 -22  152.58   33.10
  21  -3 -22  162.38   31.60
 -19  -3  22   79.89   24.80
  19  -3 -22   48.80   26.30
 -19  -3  22   47.10   24.20
 -17  -3  22   35.40   21.90
  17  -3 -22  -16.00   20.90
 -15  -3  22   50.49   24.40
  15  -3 -22   13.50   23.00
  13  -3 -22   -2.30   23.40
 -13  -3  22   27.20   25.50
  11  -3 -22   34.40   27.40
 -11  -3  22   43.50   26.10
   9  -3 -22    9.10   23.90
  -9  -3  22  -13.60   23.40
   7  -3 -22   33.60   27.20
  -7  -3  22   41.70   28.50
   5  -3 -22   39.00   26.20
  -5  -3  22   38.70   30.40
  -3  -3  22   14.50   28.60
   3  -3 -22  -12.70   24.90
   3  -3 -22   31.20   25.90
   1  -3 -22   11.50   25.20
  -1  -3  22  -55.49   26.60
   1  -3 -22   10.30   26.80
   1  -3  22   59.29   34.40
  -1  -3 -22   52.39   28.60
  -1  -3 -22   44.30   30.50
  -3  -3 -22   30.80   27.10
  -3  -3 -22   38.90   30.20
   3  -3  22   57.79   35.70
   5  -3  22  -19.70   34.30
  -5  -3 -22  -22.50   28.60
  -5  -3 -22   -4.50   28.40
  -7  -3 -22   72.99   36.10
   7   3  22   44.20   25.40
  -9  -3 -22  200.78   43.40
 -36  -4  22   58.09   29.80
 -34  -4  22  104.09   31.10
  34  -4 -22  125.49   35.00
 -32  -4  22   27.10   24.40
  32  -4 -22   44.30   29.20
 -30  -4  22   30.60   22.80
  30  -4 -22   56.69   29.40
  28  -4 -22  151.28   36.00
 -28  -4  22  145.19   29.60
 -26  -4  22  -13.40   18.70
  26  -4 -22  -17.70   26.80
  24  -4 -22  101.19   31.20
 -24  -4  22  134.59   26.90
  22  -4 -22   -8.00   24.60
 -22  -4  22    6.00   25.60
  20  -4 -22  110.09   31.10
 -20  -4  22  130.09   29.80
  18  -4 -22   88.89   30.50
 -18  -4  22   62.29   28.30
 -16  -4  22  252.97   37.00
  16  -4 -22  263.97   39.20
  14  -4 -22   50.59   27.60
 -14  -4  22    8.80   27.60
 -14  -4  22   68.39   26.10
 -12  -4  22   -3.50   28.00
  12  -4 -22   21.80   26.40
  10  -4 -22  -10.60   24.60
 -10  -4  22   -5.60   25.60
  -8  -4  22  340.57   44.30
   8  -4 -22  298.27   41.80
  -6  -4  22    2.40   27.10
   6  -4 -22   52.79   27.30
  -4  -4  22   20.10   31.30
   4  -4 -22   39.80   26.10
   2  -4 -22   52.39   31.00
  -2  -4  22   81.89   37.50
   0  -4 -22  157.98   35.70
   0  -4 -22  167.18   36.60
   0  -4  22  183.38   45.40
  -2  -4 -22   -0.10   28.60
  -2  -4 -22   42.60   27.70
   2  -4  22  -22.70   34.40
  -4  -4 -22  222.18   43.40
  -4  -4 -22  207.98   39.50
  -6  -4 -22   29.20   32.60
 -31  -5  22   38.40   26.10
 -29  -5  22   50.29   25.30
 -27  -5  22   15.40   21.70
 -25  -5  22  -14.20   26.50
  25  -5 -22  -31.80   26.90
  23  -5 -22   -9.80   25.60
 -23  -5  22   30.40   30.90
 -21  -5  22    6.50   28.30
  21  -5 -22   34.60   30.00
  19  -5 -22   21.70   29.80
 -19  -5  22   -8.50   25.80
 -17  -5  22   -8.80   26.50
  17  -5 -22    5.40   26.10
  15  -5 -22  120.19   32.70
 -15  -5  22   82.69   31.60
 -13  -5  22  103.39   31.30
  13  -5 -22  106.59   32.90
  11  -5 -22  -28.00   24.00
 -11  -5  22   -1.10   23.90
  -9  -5  22  149.49   40.70
   9  -5 -22   94.19   32.40
  -7  -5  22   38.40   36.40
   7  -5 -22   21.30   27.10
  -5  -5  22  -72.79   29.30
   5  -5 -22   17.20   25.80
  -3  -5  22  -62.39   33.10
   3  -5 -22    3.60   25.60
  -1  -5  22   57.89   40.30
   1  -5 -22   52.49   29.80
 -24  -6  22  -62.29   30.50
 -22  -6  22   40.10   35.20
 -20  -6  22    5.80   31.00
 -18  -6  22   81.39   36.00
 -16  -6  22    0.30   28.50
 -14  -6  22   20.40   30.30
 -12  -6  22   -6.70   27.30
  12  -6 -22  -19.90   30.60
  10  -6 -22   80.19   31.50
 -10  -6  22  123.19   35.30
  -8  -6  22   25.60   29.60
   8  -6 -22   84.59   35.10
 -42   0  23  -32.40   26.60
 -40   0  23  -18.60   28.30
 -38   0  23    2.00   26.70
 -36   0  23   -6.10   25.10
 -34   0  23  -26.70   22.40
 -32   0  23   -2.50   21.90
  32   0 -23   30.00   22.50
  30   0 -23    9.60   21.00
  28   0 -23   -4.80   19.60
  26   0 -23   -2.40   20.50
  24   0 -23    2.10   19.00
  22   0 -23    9.40   18.70
  20   0 -23    5.10   18.90
  18   0 -23   21.80   20.10
  16   0 -23    0.20   20.50
  14   0 -23   -4.50   21.00
  12   0 -23   48.90   23.20
  10   0 -23    7.00   22.60
   8   0 -23   10.30   24.00
   6   0 -23   33.50   25.20
   4   0 -23  -20.70   23.10
  -2   0  23   29.80   25.80
   0   0  23   45.20   28.90
   2   0  23  -11.00   26.80
   4   0  23   -6.20   29.10
   6   0  23  -46.20   27.00
   8   0  23  -14.50   31.60
 -41  -1  23   15.70   28.70
 -41   1  23    7.70   30.30
 -39  -1  23   -0.50   27.30
 -39   1  23    0.00   27.70
 -37  -1  23  171.48   35.90
 -37   1  23  156.18   34.30
 -35  -1  23  146.09   33.30
  35  -1 -23  162.68   31.90
 -35   1  23  156.08   34.40
 -33  -1  23   99.79   28.20
  33  -1 -23  106.99   28.50
  31  -1 -23   96.09   27.60
 -31  -1  23   99.39   28.10
 -29  -1  23  108.59   28.80
  29  -1 -23  136.99   29.90
  27  -1 -23   83.39   26.60
  27   1 -23  146.99   27.50
  25  -1 -23   76.79   26.50
  25   1 -23   43.10   21.70
  23  -1 -23  315.57   38.90
  23   1 -23  319.97   37.90
  21  -1 -23   95.69   27.30
  21   1 -23   96.59   25.80
  19  -1 -23   53.59   24.00
  19   1 -23   45.80   23.10
  17  -1 -23  542.45   48.40
  17   1 -23  526.15   43.90
  15  -1 -23   41.30   23.60
  15   1 -23   23.20   22.50
  13  -1 -23   -6.00   21.30
  13   1 -23  -22.10   19.50
  11  -1 -23  182.88   33.90
  11   1 -23  167.38   32.20
   9  -1 -23  466.85   47.70
   9   1 -23  437.36   46.10
  -7  -1  23  117.09   29.30
   7  -1 -23   65.19   28.40
   7   1 -23  164.78   34.70
   5  -1 -23   72.69   27.20
  -5  -1  23   19.00   26.80
   3  -1 -23   26.90   27.20
  -3  -1  23   60.39   29.00
  -1  -1  23  150.38   36.20
   1  -1 -23  119.69   35.80
   1  -1  23  165.68   37.60
  -1  -1 -23  274.87   42.60
   1   1  23  257.37   38.10
   3  -1  23   85.79   34.70
   3   1  23   85.99   32.20
   5  -1  23   61.99   36.80
   5   1  23   73.29   32.30
   7  -1  23   73.79   37.70
   7   1  23    0.40   28.90
   9   1  23  -19.80   29.90
 -40  -2  23  -19.70   28.80
  40  -2 -23  -41.60   24.50
 -40   2  23   -8.90   29.50
 -38  -2  23   -6.10   26.40
  38  -2 -23   32.40   25.90
 -38   2  23  -25.60   27.40
  36  -2 -23   38.30   26.70
 -36  -2  23   -8.30   26.10
 -34  -2  23    3.40   25.10
  34  -2 -23   16.30   25.90
 -32  -2  23  -28.80   21.80
  32  -2 -23   -4.70   25.20
 -30  -2  23   14.00   23.10
  30  -2 -23    9.50   24.20
 -28  -2  23   -9.50   21.00
  28  -2 -23   17.90   23.90
  26  -2 -23   79.39   28.10
  24  -2 -23    6.70   22.30
  24   2 -23   43.40   22.30
  22  -2 -23  123.59   30.90
  22   2 -23  164.78   29.40
  20  -2 -23   49.70   25.30
  20   2 -23   43.60   21.80
  18  -2 -23  -35.70   20.50
  18   2 -23  -11.80   19.50
  16  -2 -23   10.20   23.00
  16   2 -23   23.40   21.60
  14  -2 -23  -25.20   20.30
  14   2 -23    0.00   22.20
  12  -2 -23   22.70   24.70
 -12  -2  23   28.70   25.80
  10  -2 -23   -3.10   23.00
 -10  -2  23    9.00   25.40
   8  -2 -23   91.19   31.00
  -8  -2  23  137.59   32.90
  -6  -2  23   36.70   29.60
   6  -2 -23   -1.60   24.60
  -4  -2  23   67.89   30.60
   4  -2 -23   64.09   29.00
   2  -2 -23   23.90   25.60
   2  -2 -23    7.00   26.20
  -2  -2  23    2.50   28.40
   0  -2 -23   14.80   27.40
   0  -2  23   39.20   31.90
   0  -2 -23   37.20   26.10
   2  -2  23   -6.80   32.80
  -2  -2 -23   12.70   26.40
  -2  -2 -23    2.90   29.80
   4  -2  23   15.90   33.10
  -4  -2 -23   17.80   27.90
   4   2  23   28.90   27.60
  -6  -2 -23   27.90   33.10
   6   2  23   17.10   29.60
  -8  -2 -23   50.49   33.50
   8   2  23   37.10   32.10
 -39  -3  23   18.10   28.70
  37  -3 -23  206.48   38.40
 -37  -3  23   60.99   32.00
 -35  -3  23   20.30   26.40
  35  -3 -23   24.40   27.10
  33  -3 -23   15.70   25.60
 -33  -3  23  -28.20   22.60
 -31  -3  23   -7.60   22.00
  31  -3 -23  -19.20   26.30
 -29  -3  23    1.90   23.20
  29  -3 -23   32.80   27.50
 -27  -3  23  302.87   37.40
  27  -3 -23  372.26   44.00
 -25  -3  23  265.57   33.90
  25  -3 -23  273.87   41.60
  23  -3 -23  -14.00   22.60
  21  -3 -23    8.60   24.90
  19  -3 -23   84.29   29.10
 -19  -3  23   45.90   25.80
 -19  -3  23   82.29   27.10
 -17  -3  23  255.17   37.40
  17  -3 -23  235.18   36.60
 -15  -3  23   79.99   29.00
  15  -3 -23   71.89   28.90
  13  -3 -23   45.00   26.40
 -13  -3  23   18.80   25.80
  11  -3 -23  108.69   31.70
 -11  -3  23  100.19   29.70
  -9  -3  23  159.58   35.60
   9  -3 -23  168.78   34.90
  -7  -3  23  169.48   37.40
   7  -3 -23  188.78   35.80
   5  -3 -23   19.20   26.90
  -5  -3  23   27.70   32.90
  -3  -3  23   39.90   32.10
   3  -3 -23   17.30   26.50
   3  -3 -23   89.99   29.30
   1  -3 -23  -32.10   23.90
  -1  -3  23  -30.70   29.30
   1  -3 -23   31.80   27.10
  -1  -3 -23  131.49   36.50
   1  -3  23  134.49   39.90
  -1  -3 -23  109.09   33.10
  -3  -3 -23   43.40   30.20
  -3  -3 -23  124.09   36.80
   3  -3  23  115.39   44.10
  -5  -3 -23  107.59   36.90
  -5  -3 -23    4.60   31.40
  -7  -3 -23    1.00   33.60
   7   3  23   72.59   31.10
 -34  -4  23   83.39   29.90
 -32  -4  23  121.89   30.80
 -30  -4  23   -1.60   22.20
  30  -4 -23   -1.00   28.10
 -28  -4  23   73.59   26.10
  28  -4 -23   70.49   32.80
  26  -4 -23    8.00   29.60
 -26  -4  23  -17.00   19.40
 -24  -4  23   -5.00   20.20
  24  -4 -23  -38.90   23.40
 -22  -4  23    2.80   26.20
  22  -4 -23    6.90   27.40
 -20  -4  23   21.20   24.30
  20  -4 -23   27.50   26.70
  18  -4 -23  -24.00   26.20
 -18  -4  23  -12.00   22.80
  16  -4 -23   -4.70   26.60
 -16  -4  23   62.89   27.80
 -14  -4  23   61.59   31.70
  14  -4 -23   72.89   31.20
  12  -4 -23   13.40   27.90
 -12  -4  23   20.10   28.00
  10  -4 -23   21.40   29.50
 -10  -4  23   14.70   31.40
  -8  -4  23    8.50   30.80
   8  -4 -23    4.60   25.80
  -6  -4  23   90.79   37.10
   6  -4 -23   62.49   30.50
   4  -4 -23   20.90   27.20
  -4  -4  23    5.50   36.50
   2  -4 -23   50.19   29.40
  -2  -4  23   -3.80   36.70
   0  -4 -23   20.40   30.40
   0  -4  23  -56.59   33.80
   0  -4 -23    6.20   28.40
  -2  -4 -23   14.20   29.80
  -2  -4 -23   94.89   35.00
 -29  -5  23   20.00   24.30
 -27  -5  23    5.80   21.20
 -23  -5  23   46.50   33.10
  21  -5 -23   45.70   31.80
 -21  -5  23   29.30   31.20
  19  -5 -23    4.20   28.10
 -19  -5  23  -31.90   28.70
 -17  -5  23  120.69   33.60
  17  -5 -23   47.80   32.40
 -15  -5  23  -23.50   26.40
  15  -5 -23   43.90   29.50
 -13  -5  23   16.20   25.80
  13  -5 -23   10.90   26.70
  11  -5 -23   -0.40   28.00
 -11  -5  23   21.50   25.30
   9  -5 -23  101.59   32.00
  -9  -5  23   40.50   34.90
   7  -5 -23   24.10   31.00
  -7  -5  23   50.19   37.10
  -5  -5  23   -3.50   38.30
   5  -5 -23   -1.40   26.60
   3  -5 -23   22.60   28.10
 -40   0  24   92.49   33.50
 -38   0  24  -32.10   24.90
 -36   0  24  183.28   37.70
  32   0 -24  -13.20   18.80
  30   0 -24  163.38   31.10
  28   0 -24  361.06   40.80
  26   0 -24   18.50   20.50
  24   0 -24  455.65   45.20
  22   0 -24   99.69   27.50
  20   0 -24  516.55   43.40
  18   0 -24  240.08   35.20
  16   0 -24 1145.29   65.09
  14   0 -24  399.96   44.60
  12   0 -24    3.90   22.90
  10   0 -24   46.30   26.60
   8   0 -24 1042.50   64.69
   6   0 -24  -17.30   23.90
   4   0 -24  -53.99   25.30
  -2   0  24   70.79   29.50
   0   0  24 1190.88   74.99
   2   0  24   21.50   30.60
   4   0  24    8.90   32.40
 -41  -1  24   20.80   30.00
 -41   1  24  -28.00   29.40
 -39  -1  24  -11.80   28.10
 -39   1  24   -8.40   27.50
 -37  -1  24   61.09   28.90
  35  -1 -24   35.90   25.30
 -35  -1  24  -10.40   23.40
  33  -1 -24  140.39   32.10
 -33  -1  24   60.89   27.60
  31  -1 -24  -12.30   23.50
  29  -1 -24  -12.60   22.70
  27  -1 -24  -10.60   20.20
  27   1 -24   10.20   19.50
  25  -1 -24   62.59   26.10
  25   1 -24  107.09   27.00
  23  -1 -24   59.99   24.90
  23   1 -24   67.09   25.50
  21  -1 -24  225.98   35.30
  21   1 -24  213.68   33.00
  19  -1 -24   36.60   24.80
  19   1 -24   45.80   24.60
  17  -1 -24  -16.40   21.20
  17   1 -24   36.00   23.20
  15  -1 -24  -11.40   21.70
  15   1 -24  -23.00   19.40
  13  -1 -24   66.49   28.30
  13   1 -24   26.30   25.60
  11  -1 -24    3.00   24.30
  11   1 -24  -11.70   22.20
   9  -1 -24    4.50   23.60
   9   1 -24    9.20   26.90
   7  -1 -24   10.60   24.80
  -7  -1  24   13.90   25.50
   5  -1 -24   43.30   30.90
  -5  -1  24   12.20   25.50
   3  -1 -24   42.00   29.10
  -3  -1  24   53.19   30.60
   1  -1 -24   33.60   30.70
  -1  -1  24    0.00   26.40
   1  -1  24   25.10   30.70
   1   1  24   42.40   28.10
   3  -1  24   49.00   35.20
   3   1  24   40.40   32.60
   5   1  24  221.38   43.00
  40  -2 -24   -4.40   28.40
 -40  -2  24   31.50   30.30
  38  -2 -24   85.99   32.30
 -38  -2  24   50.49   31.20
 -36  -2  24  265.37   42.40
  36  -2 -24  333.87   43.40
  34  -2 -24  184.08   35.50
 -34  -2  24   96.69   32.10
  32  -2 -24   18.80   25.00
 -32  -2  24    4.90   23.90
  30  -2 -24  -17.60   22.00
  28  -2 -24  149.88   32.90
  26  -2 -24  268.27   39.50
  24  -2 -24   14.20   25.90
  24   2 -24   16.00   21.60
  22  -2 -24   39.70   26.40
  22   2 -24   -1.40   21.70
  20  -2 -24   -9.50   23.40
  20   2 -24   30.80   23.90
  18  -2 -24  335.67   42.30
  18   2 -24  336.47   40.10
  16  -2 -24   22.90   24.30
  16   2 -24    2.80   23.30
  14  -2 -24  -15.50   22.20
 -14  -2  24   13.50   22.00
  12  -2 -24   27.80   26.10
 -12  -2  24    6.10   25.30
 -10  -2  24  212.58   37.00
  10  -2 -24  228.18   38.60
  -8  -2  24  216.98   38.20
   8  -2 -24  256.87   40.90
   6  -2 -24   98.29   31.30
  -6  -2  24   81.89   31.00
   4  -2 -24  -17.80   25.00
  -4  -2  24   19.90   29.30
  -2  -2  24  -32.00   30.30
   2  -2 -24   12.70   29.40
   0  -2  24   27.30   31.30
   0  -2 -24   -1.80   29.00
   2  -2  24  371.06   52.39
  -2  -2 -24  346.87   51.09
  -4  -2 -24   41.60   28.60
   4   2  24   15.80   26.90
  -6  -2 -24    8.30   31.40
 -37  -3  24  -22.90   25.90
  35  -3 -24   29.10   29.60
 -35  -3  24  -30.40   24.10
 -33  -3  24  -25.60   23.60
  33  -3 -24   32.50   29.40
  31  -3 -24   19.40   30.30
 -31  -3  24   26.60   25.00
  29  -3 -24   46.40   28.90
 -29  -3  24   41.10   25.30
  27  -3 -24  -17.10   24.20
  25  -3 -24   18.00   27.80
  23  -3 -24    2.90   25.50
  21  -3 -24   68.29   28.80
  19  -3 -24  255.87   39.00
 -19  -3  24  231.08   35.10
  17  -3 -24   48.00   28.30
 -17  -3  24   24.30   24.30
 -15  -3  24   -6.90   23.30
  15  -3 -24    8.10   25.00
  13  -3 -24  329.87   43.30
 -13  -3  24  323.87   40.80
 -11  -3  24   63.09   30.10
  11  -3 -24   41.90   28.10
   9  -3 -24   36.50   27.00
  -9  -3  24   39.60   31.60
   7  -3 -24   -2.70   27.10
  -7  -3  24   -1.90   28.40
  -5  -3  24  227.18   42.60
   5  -3 -24  320.97   44.40
  -3  -3  24   79.09   35.60
   3  -3 -24   46.70   31.00
  -1  -3  24  -11.90   32.80
   1  -3 -24    0.70   27.20
   1  -3 -24   41.70   31.90
  -1  -3 -24    3.40   28.40
  -1  -3 -24  -33.70   27.50
  -3  -3 -24  123.29   36.10
 -32  -4  24   36.70   26.70
 -30  -4  24    7.70   22.90
 -28  -4  24  104.69   26.90
  26  -4 -24   29.50   31.10
  24  -4 -24  223.58   39.30
  22  -4 -24   54.19   29.00
  20  -4 -24   67.19   31.10
 -20  -4  24  123.59   33.20
  18  -4 -24   28.40   29.10
 -18  -4  24   75.69   29.90
 -16  -4  24  182.98   34.20
  16  -4 -24  213.18   38.50
  14  -4 -24   51.29   29.90
 -14  -4  24    7.00   27.10
  12  -4 -24  103.59   33.80
 -12  -4  24  134.59   37.40
 -10  -4  24   36.80   32.50
  10  -4 -24   67.09   31.00
   8  -4 -24  391.26   48.00
  -8  -4  24  381.86   49.50
   6  -4 -24    5.30   29.90
  -6  -4  24  -17.70   31.10
  -4  -4  24   10.10   34.90
   4  -4 -24  -13.40   27.20
   2  -4 -24  -17.20   26.20
 -27  -5  24   38.60   25.70
 -25  -5  24   31.90   21.90
 -23  -5  24   -0.70   32.10
 -21  -5  24  174.88   40.40
 -19  -5  24   29.10   29.20
 -17  -5  24   42.90   29.00
 -15  -5  24   66.99   31.10
 -13  -5  24   40.40   28.60
 -11  -5  24   20.90   27.10
  -9  -5  24   -6.70   36.90
  -7  -5  24   -5.50   41.30
 -40   0  25   13.10   29.40
  32   0 -25  -26.60   21.60
  30   0 -25   -3.50   21.20
  28   0 -25    2.50   21.70
  26   0 -25   26.40   22.80
  24   0 -25    8.00   20.90
  22   0 -25   22.00   23.50
  20   0 -25    3.60   21.90
  18   0 -25  -43.90   19.10
  16   0 -25  -13.60   21.60
  14   0 -25  -10.60   24.20
  12   0 -25   16.60   24.90
  10   0 -25   31.80   27.00
   8   0 -25   -6.40   25.50
   6   0 -25   -2.10   27.00
  -4   0  25   63.99   28.90
  -2   0  25    5.50   27.50
   0   0  25   41.50   31.70
 -39  -1  25   15.00   28.20
 -37  -1  25   59.59   31.40
  35  -1 -25  170.18   35.20
  33  -1 -25  -16.60   24.40
  31  -1 -25   21.60   26.00
  29  -1 -25   21.30   25.10
  27  -1 -25  587.74   53.69
  27   1 -25  582.54   51.49
  25  -1 -25   31.40   25.00
  25   1 -25   -7.90   21.00
  23  -1 -25   41.70   25.10
  23   1 -25    6.60   22.10
  21  -1 -25   78.99   27.40
  21   1 -25   88.59   27.30
  19  -1 -25  267.67   39.30
  19   1 -25  292.77   39.30
  17  -1 -25  169.48   33.20
  17   1 -25  143.99   30.90
  15  -1 -25   31.00   27.70
  15   1 -25   74.49   27.50
  13  -1 -25  182.88   35.00
  13   1 -25  111.79   31.60
  11  -1 -25  242.08   39.90
  11   1 -25  235.68   40.20
   9  -1 -25  209.68   37.60
  -9  -1  25  184.68   35.00
   9   1 -25  129.49   35.10
  -7  -1  25  356.46   48.10
   7  -1 -25  455.95   49.99
  -5  -1  25   36.40   30.00
   5  -1 -25   31.30   31.00
  -3  -1  25   21.60   29.10
   3  -1 -25  -11.40   29.80
  -1  -1  25  177.78   38.60
   1  -1 -25  130.69   38.30
  -1   1  25  139.59   34.50
   1   1  25  513.15   56.29
 -38  -2  25   -3.50   28.40
  38  -2 -25   60.29   31.90
  36  -2 -25   11.00   27.70
 -36  -2  25   11.80   29.10
  34  -2 -25   -6.20   25.30
 -34  -2  25    1.40   32.40
  32  -2 -25   -1.80   25.70
  30  -2 -25   25.90   28.30
  28  -2 -25   -7.90   26.70
  26  -2 -25   38.40   26.60
  24  -2 -25   -3.70   25.50
  24   2 -25   60.29   24.80
  22  -2 -25   26.20   26.00
  22   2 -25   28.40   23.40
  20  -2 -25   30.00   26.20
  20   2 -25    9.20   23.00
  18  -2 -25   41.00   26.40
  18   2 -25    8.70   23.20
  16  -2 -25   40.90   26.60
 -16  -2  25   31.80   25.30
  16   2 -25   11.60   25.70
  14  -2 -25   15.10   24.80
 -14  -2  25   -3.20   23.20
  12  -2 -25   19.90   27.60
 -12  -2  25   54.69   28.70
  10  -2 -25   19.50   29.00
 -10  -2  25   58.09   29.40
  -8  -2  25   -0.90   26.90
   8  -2 -25  -35.90   24.70
  -6  -2  25   -5.90   28.50
   6  -2 -25   35.90   29.30
  -4  -2  25   12.00   29.50
   4  -2 -25   -5.10   29.20
   2  -2 -25    7.00   31.80
  -2  -2  25   39.40   34.60
   0  -2 -25  117.19   38.40
 -35  -3  25   84.59   33.50
 -33  -3  25  -25.20   23.40
  31  -3 -25   18.90   29.20
  29  -3 -25   90.69   32.80
  27  -3 -25  158.18   38.30
  25  -3 -25   25.20   28.90
  23  -3 -25   15.10   28.30
  21  -3 -25   48.30   29.80
 -19  -3  25  238.98   38.80
  19  -3 -25  209.58   38.20
  17  -3 -25   91.59   30.90
 -17  -3  25  112.29   32.90
 -15  -3  25   44.20   29.10
  15  -3 -25   22.90   29.00
  13  -3 -25   15.50   28.70
 -13  -3  25   14.30   28.50
 -11  -3  25   31.80   29.00
  11  -3 -25   29.60   28.50
   9  -3 -25  188.88   39.60
  -9  -3  25  168.78   38.90
   7  -3 -25   53.99   34.80
  -7  -3  25  111.39   38.50
  -5  -3  25  -18.50   30.20
   5  -3 -25  -28.70   27.60
   3  -3 -25   54.19   32.40
   1  -3 -25   38.60   29.50
  20  -4 -25   -1.60   29.40
 -20  -4  25   -4.60   25.60
 -18  -4  25   43.30   29.40
  18  -4 -25   33.80   30.80
  16  -4 -25   76.59   32.20
 -16  -4  25    4.10   25.50
  14  -4 -25   15.70   29.20
 -14  -4  25    9.30   29.40
  12  -4 -25   -6.70   27.90
 -12  -4  25  -24.30   30.40
 -10  -4  25   -0.40   30.90
  10  -4 -25  -12.70   28.80
  -8  -4  25   -9.60   31.40
 -19  -5  25  -12.20   28.70
 -17  -5  25  -22.80   28.60
 -15  -5  25    3.90   26.00
  32   0 -26  124.69   32.50
  30   0 -26   76.29   27.30
  28   0 -26   46.10   26.30
  26   0 -26   37.40   25.70
  24   0 -26  120.09   29.90
  22   0 -26  137.59   32.50
  20   0 -26  142.59   33.10
  18   0 -26  566.04   52.99
  16   0 -26  159.18   34.20
  14   0 -26   48.60   27.80
  12   0 -26   12.10   27.30
  10   0 -26  182.98   38.70
   8   0 -26   95.89   33.10
  -6   0  26   24.50   26.70
   6   0 -26   13.20   31.40
  -4   0  26   73.49   34.30
  35  -1 -26   94.19   30.80
  33  -1 -26  -13.10   22.70
  31  -1 -26   55.09   28.60
  29  -1 -26   30.70   26.80
  27  -1 -26   20.10   27.10
  27   1 -26   -3.00   20.60
  25  -1 -26   36.10   27.50
  25   1 -26   41.50   24.00
  23  -1 -26  120.99   31.40
  23   1 -26  109.89   30.00
  21  -1 -26   74.79   29.50
  21   1 -26   93.49   28.90
  19  -1 -26   42.00   28.20
  19   1 -26   30.60   23.60
  17  -1 -26  103.99   32.80
  17   1 -26   39.80   26.70
  15  -1 -26   16.00   27.00
  15   1 -26   36.40   27.50
  13  -1 -26    2.20   26.60
  13   1 -26  -25.70   23.60
  11  -1 -26   50.59   30.90
  11   1 -26   35.30   29.70
  -9  -1  26   72.19   29.90
   9  -1 -26   44.70   30.90
  -7  -1  26  280.87   43.90
   7  -1 -26  227.08   42.40
  -5  -1  26   74.69   33.60
   5  -1 -26   16.40   31.00
  34  -2 -26  118.69   35.30
  32  -2 -26   -9.10   27.20
  30  -2 -26   56.29   29.90
  28  -2 -26   69.49   30.20
  26  -2 -26  448.26   50.89
  24  -2 -26  -16.00   26.90
  24   2 -26   21.10   25.90
  22  -2 -26   14.50   27.00
  22   2 -26   14.50   26.50
  20  -2 -26  -19.20   25.90
  20   2 -26   -3.60   25.10
  18  -2 -26  491.85   53.09
  18   2 -26  444.46   49.90
  16  -2 -26   32.10   27.70
 -16  -2  26   77.29   29.70
  14  -2 -26    1.50   26.20
 -14  -2  26   60.69   28.30
  12  -2 -26   38.20   31.20
 -12  -2  26   63.19   31.10
  10  -2 -26  377.26   50.29
 -10  -2  26  443.36   51.19
  -8  -2  26   61.19   31.90
   8  -2 -26   64.19   32.60
   6  -2 -26   45.00   33.10
  -6  -2  26    2.60   30.40
  25  -3 -26   13.30   30.90
  23  -3 -26  103.69   35.00
  21  -3 -26   11.80   27.90
 -19  -3  26   23.20   28.90
  19  -3 -26    0.00   26.90
 -17  -3  26  110.49   31.10
  17  -3 -26   89.49   33.00
  15  -3 -26   46.50   31.00
 -15  -3  26  -21.20   24.80
  13  -3 -26   38.50   29.40
 -13  -3  26   17.40   28.20
 -11  -3  26   85.99   33.20
  11  -3 -26   35.90   31.70
  -9  -3  26   43.30   35.40
 -18  -4  26    4.10   27.00
 -16  -4  26  112.89   33.90
 -14  -4  26  -12.50   30.40
 -12  -4  26   14.20   34.50
  32   0 -27   -0.30   25.40
  30   0 -27   26.50   24.60
  28   0 -27    7.70   24.80
  26   0 -27   34.20   26.30
  24   0 -27  -15.40   24.20
  22   0 -27  -11.70   23.60
  20   0 -27   -3.80   25.70
  18   0 -27    8.90   25.40
  16   0 -27   -5.10   26.20
  14   0 -27    1.20   26.20
  12   0 -27   31.10   30.30
  10   0 -27  -28.50   28.30
  35  -1 -27   32.00   28.60
  33  -1 -27    1.30   26.20
  31  -1 -27   -8.40   24.20
  29  -1 -27  172.08   37.20
  27  -1 -27  121.09   33.00
  27   1 -27  160.98   34.20
  25  -1 -27   87.99   31.00
  25   1 -27  112.49   30.20
  23  -1 -27   17.20   25.60
  23   1 -27  -15.10   22.40
  21  -1 -27  147.89   36.10
  21   1 -27  132.99   33.60
  19  -1 -27  233.38   41.60
  19   1 -27  359.96   45.00
  17  -1 -27  132.99   37.50
  17   1 -27  141.99   33.90
  15  -1 -27   -1.70   27.00
  15   1 -27   13.20   26.80
  13  -1 -27   27.70   30.70
  13   1 -27   22.30   30.30
  11  -1 -27   88.49   33.20
 -11  -1  27   95.89   31.90
  -9  -1  27  231.98   41.70
  26  -2 -27   23.30   29.50
  24  -2 -27   -7.80   26.70
  22  -2 -27   27.30   28.70
  22   2 -27  -14.60   23.90
  20  -2 -27   40.00   29.70
  20   2 -27   19.00   26.40
  18  -2 -27   62.39   31.90
 -18  -2  27  125.79   32.90
  16  -2 -27    1.00   28.50
 -16  -2  27   25.70   27.40
 -14  -2  27    2.00   27.10
  14  -2 -27    2.70   30.00
 -12  -2  27   27.80   28.90
 -19  -3  27   87.59   32.40
 -17  -3  27   92.69   32.20
 -15  -3  27   67.79   35.10
 -13  -3  27    2.00   31.60
  32   0 -28   43.20   28.80
  30   0 -28   17.60   26.70
  28   0 -28  140.29   35.40
  26   0 -28   21.70   26.50
  24   0 -28    6.70   25.10
  22   0 -28   62.09   31.10
  20   0 -28  391.06   48.40
  18   0 -28   52.19   31.20
  16   0 -28   82.59   33.90
  27   1 -28   43.30   29.70
  25  -1 -28   53.29   30.70
  25   1 -28  151.08   35.20
  23  -1 -28   78.49   31.90
  23   1 -28   73.99   29.60
  21   1 -28   63.89   31.80
  19   1 -28   24.10   29.50
  17   1 -28   54.39   30.30
  22   2 -28   -7.80   28.30
 -20  -2  28   60.09   27.60
 -18  -2  28  195.98   36.90
   0   0   0    0.00    0.00

_computing_structure_solution     'SHELXT 2014/5 (Sheldrick, 2014)'
;
_shelx_hkl_checksum              49408
_shelx_shelxl_version_number     2014/7
_olex2_submission_special_instructions 'No special instructions were received'
loop_
_space_group_symop_operation_xyz
'x, y, z'
'-x, y, -z+1/2'
'x+1/2, y+1/2, z'
'-x+1/2, y+1/2, -z+1/2'
'-x, -y, -z'
'x, -y, z-1/2'
'-x+1/2, -y+1/2, -z'
'x+1/2, -y+1/2, z-1/2'
loop_
_atom_site_label
_atom_site_type_symbol
_atom_site_fract_x
_atom_site_fract_y
_atom_site_fract_z
_atom_site_U_iso_or_equiv
_atom_site_adp_type
_atom_site_occupancy
_atom_site_site_symmetry_order
_atom_site_calc_flag
_atom_site_refinement_flags_posn
_atom_site_refinement_flags_adp
_atom_site_refinement_flags_occupancy
_atom_site_disorder_assembly
_atom_site_disorder_group
Co1A Co 0.5000 0.3900(11) 0.7500 0.0266(18) Uani 0.388(11) 2 d S TU P A 2
Co1 Co 0.5000 0.2542(11) 0.7500 0.049(2) Uani 0.612(11) 2 d S TU P A 1
Co4 Co 0.7500 1.2500 0.5000 0.0183(4) Uani 1 2 d S T P . .
Co3 Co 0.85772(3) 0.27201(18) 0.53664(5) 0.0260(4) Uani 1 1 d . . . . .
Co2 Co 1.0000 0.5000 1.0000 0.0238(4) Uani 1 2 d S T P . .
O1 O 0.5586(2) 0.4195(15) 0.7799(3) 0.064(2) Uani 1 1 d . U . . .
O2 O 0.5198(2) 0.3484(14) 0.6750(3) 0.062(2) Uani 1 1 d . U . . .
O3 O 0.63438(17) 0.3467(9) 0.5408(3) 0.0284(14) Uani 1 1 d . . . . .
O4 O 0.5755(2) 0.5031(11) 0.4991(3) 0.0445(19) Uani 1 1 d . . . . .
O5 O 0.74040(19) 1.0203(9) 0.5463(3) 0.0390(17) Uani 1 1 d . . . . .
O6 O 0.80189(17) 1.0960(9) 0.4996(3) 0.0275(14) Uani 1 1 d . . . . .
H6A H 0.8015 1.0575 0.4642 0.041 Uiso 1 1 d R . . . .
H6B H 0.8065 1.0164 0.5310 0.041 Uiso 1 1 d R . . . .
O7 O 0.67371(18) 1.0139(10) 0.5222(4) 0.0436(19) Uani 1 1 d . . . . .
O8 O 0.78348(18) 0.3592(10) 0.5945(3) 0.0352(16) Uani 1 1 d . . . . .
O9 O 0.8497(2) 0.3568(14) 0.6164(3) 0.058(3) Uani 1 1 d . . . . .
O10 O 0.8983(3) 0.0587(13) 0.5961(4) 0.062(2) Uani 1 1 d . U . . .
H10A H 0.9191 0.0462 0.5859 0.094 Uiso 1 1 d GR . . . .
H10B H 0.8856 -0.0492 0.5895 0.094 Uiso 1 1 d GR . . . .
O11 O 0.9089(3) 0.4611(15) 0.5668(5) 0.082(3) Uani 1 1 d . U . . .
H11A H 0.9117 0.5583 0.5969 0.124 Uiso 1 1 d R . . . .
H11B H 0.9335 0.4072 0.5702 0.124 Uiso 1 1 d R . . . .
O12 O 0.94342(18) 0.4856(10) 0.9212(3) 0.0342(15) Uani 1 1 d . . . . .
O13 O 0.97525(18) 0.6750(10) 1.0536(3) 0.0354(15) Uani 1 1 d . . . . .
H13A H 0.9969 0.6920 1.0881 0.053 Uiso 1 1 d R . . . .
H13B H 0.9760 0.7793 1.0320 0.053 Uiso 1 1 d R . . . .
O14 O 0.9849(2) 0.2672(11) 1.0425(3) 0.050(2) Uani 1 1 d . . . . .
H14A H 0.9954 0.2786 1.0855 0.075 Uiso 1 1 d R . . . .
H14B H 0.9656 0.1857 1.0312 0.075 Uiso 1 1 d R . . . .
O15 O 0.95751(19) 0.3851(15) 0.8389(3) 0.062(3) Uani 1 1 d . . . . .
O16A O 0.5423(7) 0.046(4) 0.7913(14) 0.061(6) Uani 0.306(5) 1 d . U . A 1
H16A H 0.5444 -0.0161 0.7601 0.092 Uiso 0.306(5) 1 d R . . A 1
H16B H 0.5348 -0.0256 0.8146 0.092 Uiso 0.306(5) 1 d R . . A 1
O16 O 0.5000 0.692(6) 0.7500 0.107(10) Uani 0.388(11) 2 d S TU P A 2
H16C H 0.5115 0.7319 0.7259 0.161 Uiso 0.194(5) 1 d R . . A 2
H16D H 0.5132 0.7319 0.7899 0.161 Uiso 0.194(5) 1 d R . . A 2
C1 C 0.5538(3) 0.4014(16) 0.7186(4) 0.039(2) Uani 1 1 d . U . . .
C2 C 0.5894(3) 0.4473(15) 0.7035(4) 0.033(2) Uani 1 1 d . U . . .
C3 C 0.5821(3) 0.4509(13) 0.6337(4) 0.0256(18) Uani 1 1 d . U . . .
H3 H 0.5553 0.4314 0.5989 0.031 Uiso 1 1 calc R . . . .
C4 C 0.6156(2) 0.4838(12) 0.6191(3) 0.0199(16) Uani 1 1 d . U . . .
C5 C 0.6079(3) 0.4458(13) 0.5479(4) 0.0246(19) Uani 1 1 d . U . . .
C6 C 0.6547(2) 0.5217(11) 0.6687(4) 0.0204(16) Uani 1 1 d . U . . .
C7 C 0.6604(3) 0.5137(12) 0.7362(4) 0.0238(18) Uani 1 1 d . U . . .
H7 H 0.6869 0.5350 0.7716 0.029 Uiso 1 1 calc R . . . .
C8 C 0.6275(3) 0.4753(14) 0.7507(4) 0.032(2) Uani 1 1 d . U . . .
H8 H 0.6323 0.4683 0.7964 0.039 Uiso 1 1 calc R . . . .
C9 C 0.6897(2) 0.5819(11) 0.6543(4) 0.0186(16) Uani 1 1 d . . . . .
C10 C 0.6837(2) 0.7190(11) 0.6075(4) 0.0201(17) Uani 1 1 d . . . . .
H10 H 0.6567 0.7656 0.5819 0.024 Uiso 1 1 calc R . . . .
C11 C 0.7164(2) 0.7916(11) 0.5967(4) 0.0205(17) Uani 1 1 d . . . . .
C12 C 0.7100(3) 0.9542(12) 0.5528(4) 0.0231(18) Uani 1 1 d . . . . .
C13 C 0.7561(2) 0.7224(12) 0.6352(4) 0.0224(18) Uani 1 1 d . . . . .
H13 H 0.7787 0.7721 0.6292 0.027 Uiso 1 1 calc R . . . .
C14 C 0.7626(2) 0.5827(12) 0.6817(4) 0.0196(17) Uani 1 1 d . . . . .
C15 C 0.8055(2) 0.5247(12) 0.7257(4) 0.0193(17) Uani 1 1 d . . . . .
C16 C 0.8336(2) 0.4524(11) 0.7016(3) 0.0178(16) Uani 1 1 d . . . . .
C17 C 0.8207(2) 0.3847(13) 0.6312(3) 0.0222(18) Uani 1 1 d . . . . .
C18 C 0.8744(2) 0.4306(13) 0.7474(4) 0.0240(18) Uani 1 1 d . . . . .
H18 H 0.8934 0.3862 0.7313 0.029 Uiso 1 1 calc R . . . .
C19 C 0.8888(2) 0.4692(12) 0.8141(4) 0.0243(18) Uani 1 1 d . . . . .
C20 C 0.9329(3) 0.4435(14) 0.8604(4) 0.030(2) Uani 1 1 d . . . . .
C21 C 0.8606(2) 0.5328(12) 0.8386(4) 0.0230(18) Uani 1 1 d . . . . .
H21 H 0.8695 0.5579 0.8850 0.028 Uiso 1 1 calc R . . . .
C22 C 0.8210(2) 0.5571(12) 0.7951(4) 0.0210(17) Uani 1 1 d . . . . .
H22 H 0.8023 0.5986 0.8123 0.025 Uiso 1 1 calc R . . . .
C23 C 0.7296(3) 0.5138(12) 0.6924(4) 0.0233(18) Uani 1 1 d . . . . .
H23 H 0.7342 0.4208 0.7255 0.028 Uiso 1 1 calc R . . . .
O17 O 0.3362(4) 0.2951(14) 0.5795(5) 0.105(4) Uani 1 1 d . . . . .
H17A H 0.3291 0.2361 0.5443 0.158 Uiso 1 1 d R . . . .
H17B H 0.3461 0.1849 0.6115 0.158 Uiso 1 1 d R . . . .
loop_
_atom_site_aniso_label
_atom_site_aniso_U_11
_atom_site_aniso_U_22
_atom_site_aniso_U_33
_atom_site_aniso_U_23
_atom_site_aniso_U_13
_atom_site_aniso_U_12
Co1A 0.032(2) 0.028(4) 0.032(2) 0.000 0.025(2) 0.000
Co1 0.0262(17) 0.090(6) 0.0394(19) 0.000 0.0226(15) 0.000
Co4 0.0155(7) 0.0282(9) 0.0088(7) 0.0008(6) 0.0028(6) -0.0046(7)
Co3 0.0203(6) 0.0366(8) 0.0182(6) -0.0023(5) 0.0055(5) 0.0055(5)
Co2 0.0137(8) 0.0387(10) 0.0091(7) 0.0036(7) -0.0044(6) -0.0063(7)
O1 0.057(4) 0.124(7) 0.021(3) -0.025(4) 0.027(3) -0.034(4)
O2 0.034(3) 0.126(7) 0.032(3) -0.025(4) 0.022(3) -0.020(4)
O3 0.026(3) 0.043(4) 0.018(3) 0.002(3) 0.013(2) 0.007(3)
O4 0.032(4) 0.072(5) 0.023(3) 0.001(3) 0.006(3) 0.024(4)
O5 0.024(3) 0.041(4) 0.051(4) 0.026(3) 0.016(3) 0.008(3)
O6 0.036(3) 0.036(4) 0.012(3) -0.004(2) 0.010(2) -0.002(3)
O7 0.020(3) 0.039(4) 0.070(5) 0.031(4) 0.017(3) 0.016(3)
O8 0.028(3) 0.054(5) 0.020(3) -0.017(3) 0.007(3) -0.009(3)
O9 0.027(4) 0.122(8) 0.022(3) -0.031(4) 0.007(3) 0.008(4)
O10 0.063(3) 0.066(3) 0.058(3) 0.0008(19) 0.027(2) 0.0091(19)
O11 0.077(3) 0.082(3) 0.087(3) -0.0064(19) 0.034(2) 0.0011(19)
O12 0.023(3) 0.054(4) 0.016(3) -0.001(3) -0.002(2) -0.003(3)
O13 0.025(3) 0.052(4) 0.022(3) 0.002(3) 0.003(3) -0.001(3)
O14 0.037(4) 0.078(6) 0.017(3) 0.017(3) -0.006(3) -0.030(4)
O15 0.018(3) 0.139(9) 0.021(3) -0.013(5) 0.001(3) -0.001(4)
O16A 0.024(9) 0.099(11) 0.076(14) 0.017(10) 0.036(10) 0.005(8)
O16 0.152(19) 0.064(10) 0.13(2) 0.000 0.084(19) 0.000
C1 0.036(4) 0.071(7) 0.016(3) -0.016(4) 0.017(3) -0.015(4)
C2 0.033(4) 0.057(6) 0.015(3) -0.008(3) 0.016(3) -0.009(4)
C3 0.028(4) 0.037(5) 0.015(3) -0.009(3) 0.012(3) -0.001(3)
C4 0.026(3) 0.030(4) 0.006(3) -0.003(3) 0.008(2) 0.001(3)
C5 0.028(4) 0.039(5) 0.007(3) 0.000(3) 0.008(3) 0.002(4)
C6 0.027(4) 0.020(4) 0.013(3) 0.000(3) 0.008(3) 0.003(3)
C7 0.033(4) 0.031(5) 0.007(3) -0.004(3) 0.008(3) -0.009(3)
C8 0.039(4) 0.045(6) 0.016(3) -0.003(3) 0.015(3) -0.009(4)
C9 0.022(4) 0.021(4) 0.011(3) -0.004(3) 0.006(3) -0.002(3)
C10 0.014(4) 0.023(5) 0.023(4) -0.005(3) 0.007(3) 0.003(3)
C11 0.024(4) 0.021(4) 0.018(4) -0.001(3) 0.010(3) -0.001(3)
C12 0.028(5) 0.026(5) 0.017(4) -0.004(3) 0.011(3) 0.000(4)
C13 0.019(4) 0.030(5) 0.013(4) -0.004(3) 0.002(3) -0.006(4)
C14 0.023(4) 0.021(4) 0.010(3) 0.000(3) 0.003(3) 0.003(3)
C15 0.022(4) 0.025(4) 0.009(3) 0.001(3) 0.004(3) -0.006(3)
C16 0.021(4) 0.024(4) 0.003(3) 0.000(3) -0.001(3) 0.001(3)
C17 0.021(4) 0.035(5) 0.004(3) 0.000(3) -0.001(3) 0.006(4)
C18 0.021(4) 0.031(5) 0.018(4) -0.004(4) 0.006(3) -0.001(4)
C19 0.021(4) 0.027(5) 0.020(4) 0.001(3) 0.005(3) -0.003(4)
C20 0.020(4) 0.047(6) 0.012(4) 0.003(4) -0.003(3) -0.010(4)
C21 0.028(4) 0.028(5) 0.006(3) 0.000(3) 0.002(3) -0.004(4)
C22 0.024(4) 0.029(5) 0.014(4) -0.003(3) 0.011(3) -0.001(4)
C23 0.032(5) 0.021(4) 0.015(4) 0.000(3) 0.008(3) -0.002(4)
O17 0.204(13) 0.057(6) 0.045(5) 0.002(5) 0.044(7) 0.008(7)
loop_
_atom_type_symbol
_atom_type_description
_atom_type_scat_dispersion_real
_atom_type_scat_dispersion_imag
_atom_type_scat_source
C C 0.0030 0.0020 'International Tables Vol C Tables 4.2.6.8 and 6.1.1.4'
H H 0.0000 0.0000 'International Tables Vol C Tables 4.2.6.8 and 6.1.1.4'
Co Co 0.3490 0.9720 'International Tables Vol C Tables 4.2.6.8 and 6.1.1.4'
O O 0.0110 0.0060 'International Tables Vol C Tables 4.2.6.8 and 6.1.1.4'
loop_
_geom_angle_atom_site_label_1
_geom_angle_atom_site_label_2
_geom_angle_atom_site_label_3
_geom_angle
_geom_angle_site_symmetry_1
_geom_angle_site_symmetry_3
O1 Co1A O1 167.4(8) 2_656 .
O1 Co1A O2 66.0(3) 2_656 2_656
O1 Co1A O2 116.0(3) . 2_656
O1 Co1A O2 116.0(3) 2_656 .
O1 Co1A O2 66.0(3) . .
O1 Co1A O16 83.7(4) . .
O1 Co1A O16 83.7(4) 2_656 .
O1 Co1A C1 33.9(3) . .
O1 Co1A C1 145.3(3) 2_656 .
O1 Co1A C1 145.3(3) . 2_656
O1 Co1A C1 33.9(3) 2_656 2_656
O2 Co1A O2 163.6(7) . 2_656
O2 Co1A O16 98.2(4) . .
O2 Co1A O16 98.2(4) 2_656 .
O2 Co1A C1 148.8(3) 2_656 .
O2 Co1A C1 32.3(3) . .
O2 Co1A C1 32.3(3) 2_656 2_656
O2 Co1A C1 148.8(3) . 2_656
O16 Co1A C1 88.0(4) . 2_656
O16 Co1A C1 88.0(4) . .
C1 Co1A C1 175.9(7) 2_656 .
O1 Co1 O1 116.6(6) 2_656 .
O2 Co1 O1 59.3(3) . .
O2 Co1 O1 100.6(4) . 2_656
O2 Co1 O1 100.6(4) 2_656 .
O2 Co1 O1 59.3(3) 2_656 2_656
O2 Co1 O2 143.8(7) 2_656 .
O16A Co1 O1 80.2(8) 2_656 2_656
O16A Co1 O1 80.2(8) . .
O16A Co1 O1 159.6(7) . 2_656
O16A Co1 O1 159.6(7) 2_656 .
O16A Co1 O2 108.2(8) 2_656 .
O16A Co1 O2 98.1(7) 2_656 2_656
O16A Co1 O2 108.2(8) . 2_656
O16A Co1 O2 98.1(7) . .
O16A Co1 O16A 86.4(16) . 2_656
O5 Co4 O5 180.0 7_676 .
O5 Co4 O6 85.6(2) . .
O5 Co4 O6 94.4(2) . 7_676
O5 Co4 O6 85.6(2) 7_676 7_676
O5 Co4 O6 94.4(2) 7_676 .
O5 Co4 O8 87.2(3) 7_676 7_666
O5 Co4 O8 92.8(3) 7_676 1_565
O5 Co4 O8 92.8(3) . 7_666
O5 Co4 O8 87.2(3) . 1_565
O6 Co4 O6 180.0 7_676 .
O8 Co4 O6 93.9(2) 1_565 .
O8 Co4 O6 93.9(2) 7_666 7_676
O8 Co4 O6 86.1(2) 7_666 .
O8 Co4 O6 86.1(2) 1_565 7_676
O8 Co4 O8 180.0 7_666 1_565
O3 Co3 O6 83.3(2) 7_656 1_545
O3 Co3 O10 84.9(3) 7_656 .
O3 Co3 O11 96.5(3) 7_656 .
O7 Co3 O3 91.1(3) 7_666 7_656
O7 Co3 O6 91.6(2) 7_666 1_545
O7 Co3 O10 171.7(3) 7_666 .
O7 Co3 O11 83.5(3) 7_666 .
O9 Co3 O3 173.0(4) . 7_656
O9 Co3 O6 92.7(3) . 1_545
O9 Co3 O7 94.8(3) . 7_666
O9 Co3 O10 89.7(3) . .
O9 Co3 O11 88.0(4) . .
O10 Co3 O6 95.2(3) . 1_545
O10 Co3 O11 89.6(4) . .
O11 Co3 O6 175.1(3) . 1_545
O12 Co2 O12 180.0 . 5_767
O12 Co2 O13 89.9(2) . 5_767
O12 Co2 O13 89.9(2) 5_767 .
O12 Co2 O13 90.1(2) . .
O12 Co2 O13 90.1(2) 5_767 5_767
O12 Co2 O14 90.8(3) . 5_767
O12 Co2 O14 89.2(3) . .
O12 Co2 O14 89.2(3) 5_767 5_767
O12 Co2 O14 90.8(3) 5_767 .
O13 Co2 O13 180.0(2) 5_767 .
O14 Co2 O13 91.7(3) 5_767 .
O14 Co2 O13 88.3(3) 5_767 5_767
O14 Co2 O13 91.7(3) . 5_767
O14 Co2 O13 88.3(3) . .
O14 Co2 O14 180.0 5_767 .
C1 O1 Co1A 89.8(6) . .
C1 O1 Co1 87.4(6) . .
C1 O2 Co1A 84.2(5) . .
C1 O2 Co1 92.2(5) . .
C5 O3 Co3 137.0(5) . 7_656
C12 O5 Co4 134.8(6) . .
Co4 O6 Co3 110.7(3) . 1_565
Co4 O6 H6A 120.7 . .
Co4 O6 H6B 101.7 . .
Co3 O6 H6A 100.8 1_565 .
Co3 O6 H6B 104.5 1_565 .
H6A O6 H6B 117.5 . .
C12 O7 Co3 140.3(6) . 7_666
C17 O8 Co4 135.3(5) . 1_545
C17 O9 Co3 137.8(6) . .
Co3 O10 H10A 110.4 . .
Co3 O10 H10B 111.3 . .
H10A O10 H10B 107.9 . .
Co3 O11 H11A 120.2 . .
Co3 O11 H11B 114.7 . .
H11A O11 H11B 116.1 . .
C20 O12 Co2 130.8(6) . .
Co2 O13 H13A 98.2 . .
Co2 O13 H13B 94.5 . .
H13A O13 H13B 97.8 . .
Co2 O14 H14A 110.1 . .
Co2 O14 H14B 138.1 . .
H14A O14 H14B 107.6 . .
Co1 O16A H16A 109.2 . .
Co1 O16A H16B 110.0 . .
H16A O16A H16B 109.5 . .
Co1A O16 H16C 109.5 . .
Co1A O16 H16D 109.5 . .
H16C O16 H16D 109.5 . .
O1 C1 Co1A 56.2(5) . .
O1 C1 C2 118.1(8) . .
O2 C1 Co1A 63.5(5) . .
O2 C1 O1 118.9(8) . .
O2 C1 C2 123.0(7) . .
C2 C1 Co1A 168.7(8) . .
C3 C2 C1 117.5(8) . .
C8 C2 C1 123.5(7) . .
C8 C2 C3 118.9(8) . .
C2 C3 H3 121.0 . .
C4 C3 C2 118.1(8) . .
C4 C3 H3 121.0 . .
C3 C4 C5 115.1(7) . .
C6 C4 C3 122.2(7) . .
C6 C4 C5 122.0(7) . .
O3 C5 O4 123.3(7) . .
O3 C5 C4 115.4(7) . .
O4 C5 C4 121.3(7) . .
C4 C6 C7 117.5(7) . .
C4 C6 C9 123.5(7) . .
C7 C6 C9 118.8(7) . .
C6 C7 H7 120.0 . .
C8 C7 C6 120.1(8) . .
C8 C7 H7 120.0 . .
C2 C8 C7 123.1(8) . .
C2 C8 H8 118.4 . .
C7 C8 H8 118.4 . .
C10 C9 C6 119.7(7) . .
C10 C9 C23 119.2(7) . .
C23 C9 C6 120.9(7) . .
C9 C10 H10 119.2 . .
C9 C10 C11 121.7(7) . .
C11 C10 H10 119.2 . .
C10 C11 C12 120.3(7) . .
C10 C11 C13 118.5(7) . .
C13 C11 C12 120.6(7) . .
O5 C12 O7 124.3(8) . .
O5 C12 C11 118.7(7) . .
O7 C12 C11 117.0(7) . .
C11 C13 H13 119.6 . .
C14 C13 C11 120.7(8) . .
C14 C13 H13 119.6 . .
C13 C14 C15 119.1(7) . .
C13 C14 C23 119.8(7) . .
C23 C14 C15 120.7(7) . .
C16 C15 C14 124.1(6) . .
C22 C15 C14 118.6(7) . .
C22 C15 C16 117.0(7) . .
C15 C16 C17 123.5(7) . .
C18 C16 C15 117.8(6) . .
C18 C16 C17 118.5(7) . .
O8 C17 C16 119.2(7) . .
O9 C17 O8 126.7(7) . .
O9 C17 C16 114.0(7) . .
C16 C18 H18 118.1 . .
C19 C18 C16 123.8(8) . .
C19 C18 H18 118.1 . .
C18 C19 C20 121.1(8) . .
C18 C19 C21 118.4(7) . .
C21 C19 C20 120.4(7) . .
O12 C20 C19 116.5(8) . .
O15 C20 O12 123.2(8) . .
O15 C20 C19 120.3(7) . .
C19 C21 H21 120.6 . .
C22 C21 C19 118.8(7) . .
C22 C21 H21 120.6 . .
C15 C22 H22 118.0 . .
C21 C22 C15 124.0(7) . .
C21 C22 H22 118.0 . .
C9 C23 H23 120.0 . .
C14 C23 C9 120.1(7) . .
C14 C23 H23 120.0 . .
H17A O17 H17B 97.5 . .
loop_
_geom_bond_atom_site_label_1
_geom_bond_atom_site_label_2
_geom_bond_distance
_geom_bond_site_symmetry_2
Co1A O1 1.928(7) 2_656
Co1A O1 1.929(7) .
Co1A O2 2.086(6) .
Co1A O2 2.086(6) 2_656
Co1A O16 2.17(4) .
Co1A C1 2.320(9) .
Co1A C1 2.320(9) 2_656
Co1 O1 2.254(9) .
Co1 O1 2.254(9) 2_656
Co1 O2 2.172(7) 2_656
Co1 O2 2.173(7) .
Co1 O16A 2.04(3) 2_656
Co1 O16A 2.04(3) .
Co4 O5 2.044(6) 7_676
Co4 O5 2.044(6) .
Co4 O6 2.172(6) .
Co4 O6 2.172(6) 7_676
Co4 O8 2.063(6) 7_666
Co4 O8 2.063(6) 1_565
Co3 O3 2.036(5) 7_656
Co3 O6 2.209(6) 1_545
Co3 O7 2.015(6) 7_666
Co3 O9 1.997(6) .
Co3 O10 2.131(8) .
Co3 O11 2.148(10) .
Co2 O12 2.033(6) .
Co2 O12 2.033(6) 5_767
Co2 O13 2.162(6) .
Co2 O13 2.162(6) 5_767
Co2 O14 2.097(7) 5_767
Co2 O14 2.097(7) .
O1 C1 1.295(10) .
O2 C1 1.247(11) .
O3 Co3 2.036(5) 7_656
O3 C5 1.251(10) .
O4 C5 1.269(10) .
O5 C12 1.256(10) .
O6 Co3 2.209(6) 1_565
O6 H6A 0.8217 .
O6 H6B 0.8567 .
O7 Co3 2.015(6) 7_666
O7 C12 1.259(10) .
O8 Co4 2.063(6) 1_545
O8 C17 1.243(10) .
O9 C17 1.236(10) .
O10 H10A 0.8757 .
O10 H10B 0.8769 .
O11 H11A 0.9392 .
O11 H11B 0.9372 .
O12 C20 1.264(10) .
O13 H13A 0.8308 .
O13 H13B 0.8941 .
O14 H14A 0.8616 .
O14 H14B 0.8575 .
O15 C20 1.245(11) .
O16A H16A 0.8498 .
O16A H16B 0.8502 .
O16 H16C 0.8499 .
O16 H16D 0.8500 .
C1 C2 1.492(12) .
C2 C3 1.447(11) .
C2 C8 1.334(12) .
C3 H3 0.9500 .
C3 C4 1.395(11) .
C4 C5 1.499(9) .
C4 C6 1.388(11) .
C6 C7 1.417(10) .
C6 C9 1.487(11) .
C7 H7 0.9500 .
C7 C8 1.378(12) .
C8 H8 0.9500 .
C9 C10 1.374(11) .
C9 C23 1.403(11) .
C10 H10 0.9500 .
C10 C11 1.395(11) .
C11 C12 1.469(11) .
C11 C13 1.401(11) .
C13 H13 0.9500 .
C13 C14 1.380(11) .
C14 C15 1.486(11) .
C14 C23 1.398(11) .
C15 C16 1.424(11) .
C15 C22 1.407(10) .
C16 C17 1.500(10) .
C16 C18 1.387(11) .
C18 H18 0.9500 .
C18 C19 1.363(11) .
C19 C20 1.482(11) .
C19 C21 1.415(11) .
C21 H21 0.9500 .
C21 C22 1.342(11) .
C22 H22 0.9500 .
C23 H23 0.9500 .
O17 H17A 0.8219 .
O17 H17B 1.0172 .
loop_
_geom_hbond_atom_site_label_D
_geom_hbond_atom_site_label_H
_geom_hbond_atom_site_label_A
_geom_hbond_distance_DH
_geom_hbond_distance_HA
_geom_hbond_distance_DA
_geom_hbond_angle_DHA
_geom_hbond_site_symmetry_A
O6 H6B O17 0.86 1.95 2.723(12) 148.7 3
O10 H10A O4 0.88 2.00 2.686(10) 134.4 7_656
O10 H10B O17 0.88 2.03 2.825(16) 150.5 3_545
O11 H11A O16A 0.94 2.31 2.92(3) 122.6 4_656
O11 H11B O13 0.94 1.79 2.707(11) 164.5 6_565
O13 H13A O15 0.83 1.82 2.594(9) 153.9 5_767
O13 H13B O4 0.89 2.32 2.896(11) 122.2 4_656
O13 H13B O14 0.89 2.60 3.057(9) 112.2 5_767
O14 H14A O2 0.86 2.00 2.766(9) 147.4 8_556
O14 H14B O4 0.86 1.87 2.725(9) 175.6 4_646
O16A H16A O15 0.85 2.27 3.10(3) 165.1 4_646
O16 H16C O15 0.85 2.42 3.268(18) 172.5 4_656
O17 H17A O7 0.82 2.29 3.064(13) 156.6 5_666
O17 H17B O9 1.02 2.35 3.229(14) 143.4 3_445
loop_
_geom_torsion_atom_site_label_1
_geom_torsion_atom_site_label_2
_geom_torsion_atom_site_label_3
_geom_torsion_atom_site_label_4
_geom_torsion
_geom_torsion_site_symmetry_1
Co1A O1 C1 O2 -10.8(13) .
Co1A O1 C1 C2 168.6(10) .
Co1A O2 C1 O1 10.0(12) .
Co1A O2 C1 C2 -169.3(11) .
Co1A C1 C2 C3 -115(3) .
Co1A C1 C2 C8 69(4) .
Co1 O1 C1 O2 14.5(12) .
Co1 O1 C1 C2 -166.1(10) .
Co1 O2 C1 O1 -15.0(12) .
Co1 O2 C1 C2 165.6(10) .
Co4 O5 C12 O7 8.9(15) .
Co4 O5 C12 C11 -173.7(6) .
Co4 O8 C17 O9 4.9(16) 1_545
Co4 O8 C17 C16 -173.7(6) 1_545
Co3 O3 C5 O4 -1.3(15) 7_656
Co3 O3 C5 C4 175.0(6) 7_656
Co3 O7 C12 O5 -9.3(16) 7_666
Co3 O7 C12 C11 173.3(7) 7_666
Co3 O9 C17 O8 1.8(19) .
Co3 O9 C17 C16 -179.5(8) .
Co2 O12 C20 O15 6.4(15) .
Co2 O12 C20 C19 -172.8(6) .
O1 C1 C2 C3 -171.9(10) .
O1 C1 C2 C8 11.7(17) .
O2 C1 C2 C3 7.5(17) .
O2 C1 C2 C8 -168.9(12) .
C1 C2 C3 C4 -176.7(9) .
C1 C2 C8 C7 178.6(10) .
C2 C3 C4 C5 167.6(8) .
C2 C3 C4 C6 -3.2(13) .
C3 C2 C8 C7 2.2(16) .
C3 C4 C5 O3 -130.5(9) .
C3 C4 C5 O4 45.9(12) .
C3 C4 C6 C7 4.1(13) .
C3 C4 C6 C9 -171.6(8) .
C4 C6 C7 C8 -2.0(13) .
C4 C6 C9 C10 45.9(11) .
C4 C6 C9 C23 -140.2(8) .
C5 C4 C6 C7 -166.0(8) .
C5 C4 C6 C9 18.3(13) .
C6 C4 C5 O3 40.2(12) .
C6 C4 C5 O4 -143.3(9) .
C6 C7 C8 C2 -1.2(15) .
C6 C9 C10 C11 174.2(7) .
C6 C9 C23 C14 -175.1(7) .
C7 C6 C9 C10 -129.7(8) .
C7 C6 C9 C23 44.1(11) .
C8 C2 C3 C4 0.0(14) .
C9 C6 C7 C8 174.0(8) .
C9 C10 C11 C12 -172.1(7) .
C9 C10 C11 C13 -0.4(12) .
C10 C9 C23 C14 -1.2(12) .
C10 C11 C12 O5 177.2(8) .
C10 C11 C12 O7 -5.2(12) .
C10 C11 C13 C14 1.4(12) .
C11 C13 C14 C15 -174.7(7) .
C11 C13 C14 C23 -2.3(12) .
C12 C11 C13 C14 173.1(7) .
C13 C11 C12 O5 5.7(12) .
C13 C11 C12 O7 -176.7(8) .
C13 C14 C15 C16 -59.7(11) .
C13 C14 C15 C22 114.6(9) .
C13 C14 C23 C9 2.2(12) .
C14 C15 C16 C17 -14.7(13) .
C14 C15 C16 C18 170.4(8) .
C14 C15 C22 C21 -171.3(8) .
C15 C14 C23 C9 174.4(7) .
C15 C16 C17 O8 -12.8(13) .
C15 C16 C17 O9 168.4(9) .
C15 C16 C18 C19 2.0(13) .
C16 C15 C22 C21 3.5(13) .
C16 C18 C19 C20 -179.8(8) .
C16 C18 C19 C21 0.9(14) .
C17 C16 C18 C19 -173.2(8) .
C18 C16 C17 O8 162.0(8) .
C18 C16 C17 O9 -16.7(12) .
C18 C19 C20 O12 179.0(9) .
C18 C19 C20 O15 -0.3(15) .
C18 C19 C21 C22 -1.6(13) .
C19 C21 C22 C15 -0.6(13) .
C20 C19 C21 C22 179.0(8) .
C21 C19 C20 O12 -1.7(13) .
C21 C19 C20 O15 179.0(9) .
C22 C15 C16 C17 170.9(8) .
C22 C15 C16 C18 -4.0(12) .
C23 C9 C10 C11 0.3(12) .
C23 C14 C15 C16 128.0(9) .
C23 C14 C15 C22 -57.7(11) .
