#------------------------------------------------------------------------------
#$Date: 2019-11-17 10:58:31 +0200 (Sun, 17 Nov 2019) $
#$Revision: 229465 $
#$URL: file:///home/coder/svn-repositories/cod/cif/7/04/51/7045183.cif $
#------------------------------------------------------------------------------
#
# This file is available in the Crystallography Open Database (COD),
# http://www.crystallography.net/
#
# All data on this site have been placed in the public domain by the
# contributors.
#
data_7045183
loop_
_publ_author_name
'Xu, Yuangang'
'Wang, Pengcheng'
'Lin, Qiuhan'
'Mei, Xuefeng'
'Lu, Ming'
_publ_section_title
;
 Self-assembled energetic 3D metal-organic framework
 [Na<sub>8</sub>(N<sub>5</sub>)<sub>8</sub>(H<sub>2</sub>O)<sub>3</sub>]<sub>n</sub>
 based on cyclo-N<sub>5</sub><sup/>.
;
_journal_issue                   5
_journal_name_full
'Dalton transactions (Cambridge, England : 2003)'
_journal_page_first              1398
_journal_page_last               1401
_journal_paper_doi               10.1039/c7dt04501h
_journal_volume                  47
_journal_year                    2018
_chemical_formula_moiety         '0.17(N240 Na46 O18), 0.33(Na)'
_chemical_formula_sum            'N40 Na8 O3'
_chemical_formula_weight         792.32
_space_group_crystal_system      cubic
_space_group_IT_number           223
_space_group_name_Hall           '-P 4n 2 3'
_space_group_name_H-M_alt        'P m -3 n'
_symmetry_space_group_name_Hall  '-P 4n 2 3'
_symmetry_space_group_name_H-M   'P m -3 n'
_atom_sites_solution_primary     dual
_audit_creation_date             2017-12-21
_audit_creation_method
;
Olex2 1.2-beta
(compiled 2017.08.10 svn.r3458 for OlexSys, GUI svn.r5381)
;
_audit_update_record
;
2017-12-21 deposited with the CCDC.
2017-12-29 downloaded from the CCDC.
;
_cell_angle_alpha                90
_cell_angle_beta                 90
_cell_angle_gamma                90
_cell_formula_units_Z            6
_cell_length_a                   18.238(10)
_cell_length_b                   18.238(10)
_cell_length_c                   18.238(10)
_cell_measurement_reflns_used    611
_cell_measurement_temperature    100
_cell_measurement_theta_max      25.33
_cell_measurement_theta_min      2.50
_cell_volume                     6066(6)
_computing_molecular_graphics    'Olex2 (Dolomanov et al., 2009)'
_computing_publication_material  'Olex2 (Dolomanov et al., 2009)'
_computing_structure_refinement  'ShelXL (Sheldrick, 2015)'
_computing_structure_solution    'ShelXT (Sheldrick, 2015)'
_diffrn_ambient_temperature      100.0
_diffrn_measured_fraction_theta_full 0.999
_diffrn_measured_fraction_theta_max 0.999
_diffrn_measurement_device_type  'Bruker APEX-II CCD'
_diffrn_measurement_method       '\f and \w scans'
_diffrn_radiation_type           MoK\a
_diffrn_radiation_wavelength     0.71073
_diffrn_reflns_av_R_equivalents  0.0717
_diffrn_reflns_av_unetI/netI     0.0329
_diffrn_reflns_Laue_measured_fraction_full 0.999
_diffrn_reflns_Laue_measured_fraction_max 0.999
_diffrn_reflns_limit_h_max       8
_diffrn_reflns_limit_h_min       -23
_diffrn_reflns_limit_k_max       22
_diffrn_reflns_limit_k_min       -9
_diffrn_reflns_limit_l_max       23
_diffrn_reflns_limit_l_min       -21
_diffrn_reflns_number            14408
_diffrn_reflns_point_group_measured_fraction_full 0.999
_diffrn_reflns_point_group_measured_fraction_max 0.999
_diffrn_reflns_theta_full        25.242
_diffrn_reflns_theta_max         27.484
_diffrn_reflns_theta_min         2.233
_exptl_absorpt_coefficient_mu    0.179
_exptl_absorpt_correction_T_max  0.7456
_exptl_absorpt_correction_T_min  0.6584
_exptl_absorpt_correction_type   multi-scan
_exptl_absorpt_process_details
'SADABS-2008/1 (Bruker,2008) was used for absorption correction. wR2(int) was 0.1491 before and 0.0545 after correction. The Ratio of minimum to maximum transmission is 0.8830. The \l/2 correction factor is 0.0015.'
_exptl_crystal_colour            colourless
_exptl_crystal_colour_primary    colourless
_exptl_crystal_density_diffrn    1.301
_exptl_crystal_description       block
_exptl_crystal_F_000             2352
_exptl_crystal_size_max          0.28
_exptl_crystal_size_mid          0.15
_exptl_crystal_size_min          0.12
_platon_squeeze_details          'TITL mo_2017229-63_0m_a.res in Pm-3n'
_refine_diff_density_max         1.104
_refine_diff_density_min         -0.513
_refine_diff_density_rms         0.101
_refine_ls_extinction_method     none
_refine_ls_goodness_of_fit_ref   1.078
_refine_ls_hydrogen_treatment    undef
_refine_ls_matrix_type           full
_refine_ls_number_parameters     70
_refine_ls_number_reflns         1279
_refine_ls_number_restraints     0
_refine_ls_restrained_S_all      1.078
_refine_ls_R_factor_all          0.0784
_refine_ls_R_factor_gt           0.0606
_refine_ls_shift/su_max          0.000
_refine_ls_shift/su_mean         0.000
_refine_ls_structure_factor_coef Fsqd
_refine_ls_weighting_details
'w=1/[\s^2^(Fo^2^)+(0.1319P)^2^+1.7179P] where P=(Fo^2^+2Fc^2^)/3'
_refine_ls_weighting_scheme      calc
_refine_ls_wR_factor_gt          0.1803
_refine_ls_wR_factor_ref         0.2027
_reflns_Friedel_coverage         0.000
_reflns_number_gt                941
_reflns_number_total             1279
_reflns_threshold_expression     'I > 2\s(I)'
_iucr_refine_instructions_details
;

    mo_2017229-63_0m_sq_s.res created by SHELXL-2014/7

TITL mo_2017229-63_0m_a.res in Pm-3n
REM Old TITL mo_2017229-63_0m in Pm-3n
REM SHELXT solution in Pm-3n
REM R1 0.222, Rweak 0.008, Alpha 0.029, Orientation as input
REM Formula found by SHELXT: C114 N31 O3 Na20
CELL 0.71073 18.2382 18.2382 18.2382 90 90 90
ZERR 6 0.0097 0.0097 0.0097 0 0 0
LATT 1
SYMM -X,-Y,+Z
SYMM -X,+Y,-Z
SYMM +X,-Y,-Z
SYMM +Z,+X,+Y
SYMM +Z,-X,-Y
SYMM -Z,-X,+Y
SYMM -Z,+X,-Y
SYMM +Y,+Z,+X
SYMM -Y,+Z,-X
SYMM +Y,-Z,-X
SYMM -Y,-Z,+X
SYMM 0.5+Y,0.5+X,0.5-Z
SYMM 0.5-Y,0.5-X,0.5-Z
SYMM 0.5+Y,0.5-X,0.5+Z
SYMM 0.5-Y,0.5+X,0.5+Z
SYMM 0.5+X,0.5+Z,0.5-Y
SYMM 0.5-X,0.5+Z,0.5+Y
SYMM 0.5-X,0.5-Z,0.5-Y
SYMM 0.5+X,0.5-Z,0.5+Y
SYMM 0.5+Z,0.5+Y,0.5-X
SYMM 0.5+Z,0.5-Y,0.5+X
SYMM 0.5-Z,0.5+Y,0.5+X
SYMM 0.5-Z,0.5-Y,0.5-X
SFAC N Na O
UNIT 240 48 18
 
L.S. 10
PLAN  20
SIZE 0.28 0.15 0.12
TEMP -173.15
list 4
ABIN
fmap 2
acta
OMIT 0 1 1
REM <olex2.extras>
REM <HklSrc "%.\\mo_2017229-63_0m_sq_s.hkl">
REM </olex2.extras>
 
WGHT    0.131900    1.717900
FVAR       0.10711
N6    1    0.250000    0.593112    0.093112    10.50000    0.09231    0.02357 =
         0.02357   -0.00544   -0.02224    0.02224
NA1   2    0.315144    0.684856    0.315144    10.33333    0.01652    0.01652 =
         0.01652    0.00042   -0.00042    0.00042
N5    1    0.293079    0.594683    0.151851    11.00000    0.07146    0.02134 =
         0.02535   -0.00421   -0.01457    0.01547
NA4   2    0.500000    0.500000    0.500000    10.04167    0.22891    0.22891 =
         0.22891    0.00000    0.00000    0.00000
N1    1    0.315059    0.689994    0.500000    10.50000    0.02606    0.06083 =
         0.02075    0.00000    0.00000   -0.00023
NA2   2    0.500000    0.804694    0.380009    10.50000    0.01365    0.03124 =
         0.03805   -0.00290    0.00000    0.00000
N4    1    0.276385    0.654275    0.189042    11.00000    0.05044    0.02071 =
         0.02213   -0.00283   -0.00809    0.00614
N2    1    0.349650    0.715801    0.441528    11.00000    0.03092    0.06591 =
         0.02026   -0.00036   -0.00164   -0.00595
N3    1    0.405260    0.756646    0.463613    11.00000    0.02537    0.08361 =
         0.01960    0.00140    0.00010   -0.00975
O2    3    0.500000    0.945034    0.397021    10.25000    0.04691    0.04492 =
         0.10960   -0.04015    0.00000    0.00000
O1    3    0.500000    0.888655    0.500000    10.12500    0.07718    0.04479 =
         0.06085    0.00000    0.00000    0.00000
NA3   2    0.250000    0.500000    0.000000    10.12500    0.20790    0.02033 =
         0.02033    0.00000    0.00000    0.00000
HKLF 4
 
REM  mo_2017229-63_0m_a.res in Pm-3n
REM R1 =  0.0606 for     941 Fo > 4sig(Fo)  and  0.0784 for all    1279 data
REM     70 parameters refined using      0 restraints
 
END  
     
WGHT      0.1319      1.7178 

REM Highest difference peak  1.104,  deepest hole -0.513,  1-sigma level  0.101
Q1    1   0.5000  0.5893  0.5000  10.25000  0.05    1.10
Q2    1   0.5648  0.6205  0.5000  10.50000  0.05    0.77
Q3    1   0.5462  0.5462  0.4538  10.33333  0.05    0.68
Q4    1   0.5000  0.9187  0.4427  10.50000  0.05    0.55
Q5    1   0.2321  0.5000  0.0000  10.25000  0.05    0.36
Q6    1   0.3970  0.7321  0.4078  11.00000  0.05    0.34
Q7    1   0.5000  0.9613  0.3903  10.50000  0.05    0.33
Q8    1   0.5000  0.9659  0.4086  10.50000  0.05    0.31
Q9    1   0.5000  1.0000  0.3833  10.25000  0.05    0.25
Q10   1   0.3045  0.5647  0.1569  11.00000  0.05    0.25
Q11   1   0.5563  0.9315  0.5000  10.50000  0.05    0.24
Q12   1   0.5000  0.7929  0.3490  10.50000  0.05    0.23
Q13   1   0.2500  0.5632  0.0632  10.50000  0.05    0.23
Q14   1   0.2646  0.6364  0.2119  11.00000  0.05    0.22
Q15   1   0.5903  0.8596  0.5000  10.50000  0.05    0.21
Q16   1   0.5000  1.0000  0.4614  10.25000  0.05    0.20
Q17   1   0.2293  0.5711  0.0836  11.00000  0.05    0.20
Q18   1   0.2469  0.6609  0.1760  11.00000  0.05    0.20
Q19   1   0.2735  0.6504  0.2181  11.00000  0.05    0.19
Q20   1   0.5269  0.9644  0.5000  10.50000  0.05    0.19

  REM The information below was added by Olex2.
  REM
  REM R1 = 0.0606 for 941 Fo > 4sig(Fo) and 0.0784 for all 15438 data
  REM n/a parameters refined using n/a restraints
  REM Highest difference peak 1.10, deepest hole -0.51
  REM Mean Shift 0, Max Shift 0.000.

  REM +++ Tabular Listing of Refinement Information +++
  REM R1_all = 0.0784
  REM R1_gt = 0.0606
  REM wR_ref = 0.2027
  REM GOOF = 1.078
  REM Shift_max = 0.000
  REM Shift_mean = 0
  REM Reflections_all = 15438
  REM Reflections_gt = 941
  REM Parameters = n/a
  REM Hole = -0.51
  REM Peak = 1.10
  REM Flack = n/a

  
;
_cod_data_source_file            c7dt04501h2.cif
_cod_data_source_block           mo_2017229-63_0m_sq_s
_cod_depositor_comments          'Adding full bibliography for 7045183.cif.'
_cod_original_cell_volume        6067(10)
_cod_database_code               7045183
_shelx_shelxl_version_number     2014/7
_shelx_space_group_comment
;
The symmetry employed for this shelxl refinement is uniquely defined
by the following loop, which should always be used as a source of
symmetry information in preference to the above space-group names.
They are only intended as comments.
;
_shelx_estimated_absorpt_t_max   0.979
_shelx_estimated_absorpt_t_min   0.952
_olex2_refinement_description
;
1. Others
 Fixed Sof: O2(0.25) O1(0.125)
;
_shelx_fab_file
;
 -1 0 -1 -123.29 -0.04
 -2 0 0 99.00 0.01
 0 2 0 98.99 -0.01
 0 2 -1 -159.44 -0.01
 -2 1 0 -159.45 -0.01
 -2 -1 0 -159.45 -0.01
 0 1 -2 159.44 -0.01
 -1 2 0 159.44 0.00
 -2 0 1 159.45 0.01
 -2 0 -1 159.45 0.01
 -2 -1 -1 64.74 0.02
 -1 -1 -2 64.73 0.01
 -2 1 1 64.73 -0.01
 -2 1 -1 64.74 0.01
 -1 2 -1 64.73 0.00
 -2 -1 1 64.74 0.01
 -2 -2 0 -32.30 0.00
 -2 0 -2 -32.30 0.00
 -2 0 2 -32.30 0.02
 0 2 -2 -32.30 0.00
 -2 -2 -2 -35.59 0.00
 -2 2 2 -35.59 0.01
 -2 2 -2 -35.59 -0.01
 -2 -2 2 -35.59 -0.01
 0 3 -1 -39.69 -0.01
 0 3 1 -39.69 0.01
 -3 -1 0 -39.69 -0.01
 -3 1 0 -39.69 -0.01
 -2 0 -3 31.35 0.00
 -2 0 3 31.35 0.03
 0 3 -2 31.34 -0.02
 -3 2 0 31.35 0.00
 -3 -2 0 31.35 0.00
 1 3 0 -39.69 0.00
 -3 0 -1 -39.69 0.00
 -3 0 1 -39.69 -0.01
 -1 3 0 -39.69 0.00
 0 1 -3 -39.68 0.01
 -3 -2 -1 0.84 0.01
 -2 -1 -3 0.84 -0.01
 -3 2 1 0.84 0.00
 1 3 -2 0.84 0.01
 -2 1 3 0.84 0.01
 -1 3 -2 0.84 0.01
 -3 -2 1 0.84 0.00
 -3 2 -1 0.84 -0.01
 -3 0 2 -31.35 0.00
 -2 3 0 -31.35 -0.03
 -3 0 -2 -31.35 -0.01
 0 2 -3 -31.34 -0.02
 -3 -1 -2 0.84 0.01
 1 2 -3 0.84 -0.01
 -3 1 2 0.84 0.00
 -3 1 -2 0.84 0.00
 -2 3 -1 0.84 0.00
 -1 2 -3 0.84 -0.01
 -3 -1 2 0.84 -0.01
 -3 -3 0 -0.04 0.01
 -3 0 -3 -0.04 0.01
 -3 0 3 -0.04 -0.01
 0 3 -3 -0.04 0.00
 -3 -3 -2 -18.03 -0.01
 -3 -2 -3 -18.03 -0.01
 -3 3 2 -18.03 0.01
 -3 2 3 -18.03 0.01
 -2 3 3 -18.03 -0.02
 -3 -2 3 -18.03 0.01
 -2 3 -3 -18.02 0.01
 -3 3 -2 -18.03 0.01
 -4 0 0 42.66 -0.01
 0 4 0 42.65 0.00
 0 4 -1 -2.89 0.00
 0 4 1 -2.90 -0.01
 -4 -1 0 -2.90 -0.02
 -4 1 0 -2.90 -0.02
 -4 -2 0 8.18 0.00
 -4 2 0 8.18 -0.01
 0 4 -2 8.17 0.01
 0 4 2 8.18 -0.02
 0 4 -3 -23.02 0.00
 -4 -3 0 -23.02 0.01
 -4 3 0 -23.02 -0.02
 -3 0 -4 -23.02 -0.01
 -3 0 4 -23.02 -0.02
 0 1 -4 2.89 0.00
 -4 0 -1 2.90 0.02
 -4 0 1 2.89 0.02
 -1 4 0 2.90 0.02
 1 4 0 2.90 0.01
 -4 1 1 -0.85 0.01
 -4 -1 -1 -0.85 -0.03
 1 4 -1 -0.85 -0.02
 -1 -1 -4 -0.85 0.01
 -1 4 1 -0.84 0.00
 -4 -1 1 -0.85 0.02
 -4 1 -1 -0.85 0.02
 -1 4 -1 -0.85 -0.01
 -1 1 -4 -0.85 0.02
 -4 -2 -1 30.24 0.00
 -4 2 1 30.23 0.02
 -2 -1 -4 30.23 0.02
 -1 4 2 30.23 0.01
 1 4 -2 30.23 0.02
 -4 2 -1 30.23 0.02
 -1 4 -2 30.23 -0.01
 -4 -2 1 30.23 0.01
 -4 3 1 24.41 -0.01
 1 4 -3 24.42 0.00
 -3 -1 -4 24.41 0.02
 -4 -3 -1 24.42 -0.01
 -3 1 4 24.42 0.01
 -1 4 -3 24.41 -0.02
 -3 -1 4 24.42 -0.02
 -4 -3 1 24.42 0.01
 -2 4 0 8.18 0.00
 0 2 -4 8.17 -0.01
 -4 0 -2 8.18 0.00
 -4 0 2 8.18 -0.01
 -2 4 1 -30.23 -0.01
 -4 -1 -2 -30.24 0.00
 -4 1 2 -30.23 -0.02
 -2 4 -1 -30.23 0.01
 -1 2 -4 -30.23 0.02
 -4 1 -2 -30.23 -0.01
 -4 -1 2 -30.23 -0.02
 -4 -2 -2 19.03 0.00
 -2 2 4 19.04 -0.03
 -4 2 2 19.04 0.00
 -2 -2 -4 19.04 0.00
 -2 4 -2 19.04 0.00
 -2 2 -4 19.03 0.01
 -4 -2 2 19.04 -0.01
 -4 2 -2 19.04 -0.01
 2 4 -3 -55.50 0.00
 -4 3 2 -55.51 0.00
 -3 -2 -4 -55.51 -0.01
 -3 2 4 -55.51 0.01
 -4 -3 -2 -55.51 0.00
 -4 -3 2 -55.51 0.00
 -2 4 -3 -55.50 0.01
 0 3 -4 23.02 0.00
 -3 4 0 23.02 0.02
 -4 0 3 23.02 0.02
 -4 0 -3 23.02 -0.01
 1 3 -4 24.41 0.02
 -4 -1 -3 24.42 -0.01
 -4 1 3 24.41 -0.01
 -4 -1 3 24.42 0.02
 -4 1 -3 24.42 0.01
 -1 3 -4 24.42 0.00
 -3 4 -1 24.42 -0.01
 -4 -2 -3 55.51 0.00
 -2 3 4 55.51 -0.01
 -4 2 3 55.51 0.00
 -2 3 -4 55.51 0.00
 -4 -2 3 55.51 0.02
 -3 4 -2 55.51 0.01
 -4 -3 -3 31.07 0.01
 -3 -3 -4 31.07 0.00
 -3 3 4 31.07 0.01
 -4 3 3 31.07 -0.01
 -4 -3 3 31.07 0.01
 -3 3 -4 31.07 -0.01
 -3 4 -3 31.07 0.00
 -4 -4 0 -68.16 -0.01
 -4 0 -4 -68.16 -0.01
 -4 0 4 -68.15 0.00
 0 4 -4 -68.16 0.00
 -4 -4 -2 -39.97 -0.01
 -4 -2 -4 -39.97 -0.01
 -4 2 4 -39.97 -0.01
 -4 -2 4 -39.97 0.00
 -4 4 -2 -39.97 0.00
 -2 4 -4 -39.97 -0.01
 -4 -4 -4 -72.74 0.01
 -4 4 4 -72.74 0.00
 -4 4 -4 -72.74 -0.01
 -4 -4 4 -72.74 -0.01
 0 5 -1 0.08 0.00
 0 5 1 0.08 0.01
 -5 -1 0 0.08 0.01
 -5 1 0 0.08 0.01
 0 5 2 -25.49 -0.01
 0 5 -2 -25.49 0.00
 -5 2 0 -25.49 -0.02
 -5 -2 0 -25.49 0.02
 -5 -3 0 0.21 0.01
 0 5 3 0.22 0.01
 -3 0 -5 0.22 -0.01
 0 5 -3 0.22 0.01
 0 5 -4 18.59 0.00
 -5 -4 0 18.59 0.00
 -4 0 5 18.59 0.01
 1 5 0 0.08 0.01
 0 1 -5 0.08 0.00
 -5 0 1 0.08 0.01
 -5 0 -1 0.08 0.01
 -1 5 0 0.08 0.02
 1 5 -2 -17.71 -0.01
 -2 -1 -5 -17.71 0.01
 -5 -2 -1 -17.71 0.01
 -5 2 1 -17.72 0.00
 -1 5 2 -17.71 0.00
 -2 1 -5 -17.71 0.00
 -5 2 -1 -17.71 0.00
 -1 5 -2 -17.71 0.00
 -5 -2 1 -17.71 -0.01
 1 5 -3 4.32 -0.01
 -3 1 5 4.32 0.00
 -1 5 3 4.32 0.00
 -3 -1 -5 4.32 0.02
 -5 -3 -1 4.32 -0.01
 -5 -3 1 4.32 -0.02
 -1 5 -3 4.31 -0.01
 -5 -4 -1 32.31 -0.01
 -4 1 5 32.31 -0.02
 -1 5 4 32.31 -0.01
 1 5 -4 32.31 0.00
 -5 -4 1 32.31 -0.01
 -4 -1 5 32.31 0.00
 -1 5 -4 32.31 0.00
 0 2 -5 25.49 0.00
 -2 5 0 25.49 -0.01
 2 5 0 25.49 -0.02
 -5 0 2 25.49 0.02
 -5 0 -2 25.49 -0.02
 -5 -1 -2 -17.71 0.01
 -5 1 2 -17.71 -0.01
 -2 5 1 -17.71 0.00
 2 5 -1 -17.71 0.00
 -2 5 -1 -17.71 -0.01
 -1 2 -5 -17.71 0.01
 -5 -1 2 -17.71 0.00
 -5 1 -2 -17.71 -0.01
 -5 -3 -2 -21.56 0.01
 -2 5 3 -21.55 0.00
 2 5 -3 -21.55 0.00
 -3 2 5 -21.56 0.02
 -3 -2 -5 -21.56 -0.01
 -3 2 -5 -21.56 0.00
 -5 -3 2 -21.56 0.01
 -2 5 -3 -21.55 0.00
 -5 -4 -2 37.79 0.02
 2 5 -4 37.79 -0.01
 -4 -2 5 37.79 0.01
 -2 5 -4 37.79 0.00
 -5 -4 2 37.79 0.01
 -3 5 0 0.21 0.02
 0 3 -5 0.22 0.00
 -5 0 -3 0.21 0.01
 -5 0 3 0.21 0.00
 -5 -1 -3 -4.32 0.01
 1 3 -5 -4.31 -0.01
 -5 1 3 -4.32 0.00
 -3 5 1 -4.32 0.00
 3 5 -1 -4.32 0.01
 -5 1 -3 -4.32 0.02
 -3 5 -1 -4.31 -0.01
 -5 -1 3 -4.32 -0.01
 -1 3 -5 -4.31 -0.01
 -5 2 3 -21.56 0.01
 -5 -2 -3 -21.56 0.01
 -3 5 -2 -21.56 0.01
 -2 3 -5 -21.55 0.00
 -5 -2 3 -21.56 -0.02
 -4 3 5 23.19 0.00
 -5 -4 -3 23.19 0.00
 -5 4 3 23.19 0.01
 -4 -3 5 23.19 0.01
 -4 3 -5 23.19 0.01
 -3 5 -4 23.19 0.01
 -5 -4 3 23.19 -0.01
 -5 0 4 -18.59 0.01
 -4 5 0 -18.59 -0.01
 0 4 -5 -18.59 0.00
 1 4 -5 32.31 0.00
 -5 1 4 32.31 0.00
 -5 -1 -4 32.31 -0.01
 -1 4 -5 32.31 0.00
 -5 -1 4 32.31 0.00
 -4 5 -1 32.31 0.00
 -5 3 4 23.19 0.01
 -3 4 5 23.19 0.01
 -5 -3 -4 23.19 0.00
 -5 -3 4 23.19 0.00
 -3 4 -5 23.19 0.00
 -4 5 -3 23.19 0.01
 -5 -5 0 -8.47 0.00
 -5 0 5 -8.47 0.02
 0 5 -5 -8.46 0.00
 -5 2 5 -16.92 0.01
 -5 5 4 11.23 0.00
 -4 5 5 11.23 -0.01
 -5 4 5 11.23 0.01
 -5 5 -4 11.23 -0.01
 -5 -4 5 11.23 -0.01
 -4 -5 5 11.23 0.03
 -4 5 -5 11.23 0.03
 -5 4 -5 11.23 -0.01
 -6 0 0 -16.90 -0.02
 0 6 0 -16.90 -0.02
 0 6 1 -17.83 0.01
 -1 0 -6 -17.83 0.00
 0 6 -1 -17.83 0.02
 -6 -1 0 -17.83 -0.01
 -6 1 0 -17.83 0.01
 0 6 -2 7.10 0.01
 0 6 2 7.10 -0.02
 -6 -2 0 7.10 -0.02
 0 6 3 -0.87 0.01
 -6 -3 0 -0.88 -0.01
 0 6 -3 -0.87 0.01
 0 6 4 -16.77 -0.01
 0 6 -4 -16.77 0.00
 -4 0 -6 -16.76 0.02
 -4 0 6 -16.76 -0.02
 -6 4 0 -16.76 -0.01
 -6 -4 0 -16.76 -0.01
 -5 0 6 -5.17 0.01
 -6 5 0 -5.17 0.00
 -5 0 -6 -5.17 -0.01
 -6 -5 0 -5.17 0.00
 0 6 -5 -5.17 0.00
 -6 0 1 17.83 -0.01
 1 6 0 17.83 -0.01
 -6 0 -1 17.83 0.01
 0 1 -6 17.83 0.02
 -1 6 0 17.83 -0.01
 -6 1 1 9.94 0.01
 -6 -1 -1 9.93 0.03
 -1 6 1 9.94 0.00
 1 6 -1 9.93 0.01
 -1 6 -1 9.94 0.00
 1 6 1 9.94 0.01
 -1 1 -6 9.93 -0.01
 -6 -1 1 9.93 0.00
 -6 1 -1 9.93 0.00
 1 6 -2 22.33 -0.03
 -1 6 2 22.32 0.00
 -6 -2 -1 22.32 -0.01
 -2 1 -6 22.32 0.00
 -6 -2 1 22.32 0.03
 -1 6 -2 22.32 0.02
 1 6 2 22.32 0.01
 -6 -3 -1 1.65 0.01
 -1 6 3 1.65 0.01
 1 6 -3 1.65 0.00
 -1 6 -3 1.65 -0.02
 -6 -3 1 1.65 0.01
 -6 -4 -1 -17.27 0.00
 -4 -1 -6 -17.28 -0.03
 1 6 -4 -17.27 -0.01
 -6 4 1 -17.28 0.02
 -1 6 4 -17.27 -0.01
 -4 -1 6 -17.27 -0.01
 -1 6 -4 -17.27 0.02
 -6 -4 1 -17.27 0.02
 -6 5 1 2.63 0.00
 -6 -5 -1 2.64 -0.01
 -5 -1 -6 2.63 0.02
 -1 6 5 2.63 0.01
 1 6 -5 2.63 0.01
 -5 -1 6 2.64 0.00
 -6 -5 1 2.63 0.01
 -1 6 -5 2.63 -0.02
 -2 6 0 7.10 -0.02
 -6 0 -2 7.10 -0.02
 -6 0 2 7.11 -0.02
 0 2 -6 7.10 -0.01
 2 6 0 7.10 0.00
 -2 6 1 -22.32 -0.01
 -6 -1 -2 -22.32 0.01
 2 6 -1 -22.32 0.00
 -6 1 2 -22.32 -0.01
 -6 -1 2 -22.32 0.00
 -2 6 -1 -22.32 0.01
 2 6 1 -22.32 -0.02
 -1 2 -6 -22.33 -0.03
 -6 -2 -2 24.49 -0.02
 -2 6 2 24.49 0.00
 2 6 -2 24.48 0.02
 -6 -2 2 24.49 0.00
 -2 2 -6 24.48 -0.01
 -2 6 -2 24.49 -0.01
 -6 -3 -2 -10.32 -0.02
 -2 6 3 -10.32 -0.02
 2 6 -3 -10.31 0.00
 -3 2 -6 -10.32 0.00
 -6 -3 2 -10.32 -0.03
 -2 6 -3 -10.31 0.01
 2 6 -4 -7.85 0.00
 -2 6 4 -7.85 -0.02
 -6 -4 -2 -7.85 0.01
 -4 -2 -6 -7.85 -0.02
 -4 2 6 -7.85 -0.01
 -6 4 2 -7.84 0.01
 -6 -4 2 -7.85 -0.02
 -4 -2 6 -7.85 0.00
 -4 2 -6 -7.85 0.00
 -2 6 -4 -7.85 0.00
 2 6 -5 -7.87 0.02
 -5 2 6 -7.87 0.00
 -6 -5 -2 -7.87 0.00
 -5 -2 -6 -7.87 0.01
 -6 5 2 -7.87 -0.02
 -2 6 5 -7.87 0.04
 -2 6 -5 -7.87 -0.02
 -6 5 -2 -7.87 0.00
 -5 -2 6 -7.87 0.00
 -6 -5 2 -7.87 0.00
 -3 6 0 0.88 0.02
 -6 0 3 0.88 0.00
 0 3 -6 0.87 0.01
 3 6 0 0.88 0.01
 3 6 -1 1.65 0.01
 1 3 -6 1.65 0.02
 -6 -1 -3 1.65 0.02
 -3 6 1 1.65 0.00
 -6 1 3 1.65 0.01
 -1 3 -6 1.65 0.00
 -3 6 -1 1.65 0.01
 -6 -1 3 1.65 0.01
 -3 6 2 10.32 0.02
 -6 -2 -3 10.32 0.02
 -3 6 -2 10.32 0.03
 -6 -2 3 10.31 0.02
 -2 3 -6 10.31 0.00
 -3 3 6 3.25 -0.01
 -3 6 3 3.25 -0.01
 -6 -3 -3 3.25 -0.02
 -6 3 3 3.25 -0.03
 -3 3 -6 3.25 0.01
 -6 -3 3 3.25 0.01
 -3 6 -3 3.25 -0.02
 -3 6 4 -13.37 0.01
 -4 3 6 -13.37 0.00
 -6 -4 -3 -13.36 0.00
 -4 -3 -6 -13.37 0.01
 -6 4 3 -13.37 0.01
 -3 6 -4 -13.37 0.01
 -4 3 -6 -13.37 -0.01
 -6 -4 3 -13.37 0.02
 -6 -5 -3 5.49 0.00
 -6 5 3 5.49 -0.02
 -5 -3 -6 5.49 -0.01
 -5 3 6 5.49 -0.01
 -6 5 -3 5.49 0.02
 -3 6 -5 5.49 -0.02
 -5 3 -6 5.49 0.00
 -6 -5 3 5.49 0.03
 -5 -3 6 5.49 0.01
 -6 0 4 -16.76 -0.01
 -6 0 -4 -16.76 -0.02
 -4 6 0 -16.76 -0.02
 0 4 -6 -16.77 0.00
 -4 6 1 17.28 0.01
 1 4 -6 17.27 0.02
 -4 6 -1 17.28 0.01
 -1 4 -6 17.27 -0.01
 -6 1 -4 17.27 -0.02
 -6 -1 4 17.28 -0.02
 -6 2 4 -7.84 0.01
 -4 6 2 -7.84 -0.01
 -2 4 6 -7.85 -0.02
 -6 2 -4 -7.85 -0.03
 -4 6 -2 -7.84 0.00
 -6 -2 4 -7.84 0.00
 -2 4 -6 -7.85 0.00
 -3 4 6 13.37 -0.01
 -4 6 3 13.37 0.00
 -6 3 4 13.37 -0.01
 -6 -3 4 13.37 -0.02
 -4 6 -3 13.37 0.00
 -3 4 -6 13.37 0.00
 -4 4 6 -24.43 -0.01
 -4 -4 -6 -24.43 0.01
 -6 4 4 -24.43 0.01
 -4 4 -6 -24.43 -0.02
 -6 -4 4 -24.43 0.01
 -6 4 -4 -24.43 0.01
 -4 6 -4 -24.43 -0.01
 -5 -4 -6 0.50 0.00
 -6 5 4 0.51 0.01
 -5 4 6 0.50 0.00
 -6 5 -4 0.50 -0.03
 -4 6 -5 0.50 0.01
 -6 -5 4 0.50 -0.01
 -5 -4 6 0.50 0.00
 -5 4 -6 0.50 0.00
 -5 6 0 5.17 -0.01
 -6 0 -5 5.17 0.00
 0 5 -6 5.17 0.00
 -6 0 5 5.17 0.00
 -5 6 1 2.63 -0.01
 -6 -1 -5 2.64 -0.01
 1 5 -6 2.63 0.02
 -1 5 -6 2.63 -0.01
 -6 -1 5 2.63 0.00
 -5 6 -1 2.64 0.00
 -6 1 -5 2.63 0.01
 2 5 -6 7.87 -0.02
 -6 2 5 7.87 0.02
 -6 -2 -5 7.87 0.00
 -2 5 -6 7.87 0.02
 -6 2 -5 7.87 0.00
 -5 6 -2 7.87 0.00
 -6 -2 5 7.87 0.00
 -3 5 6 5.49 0.01
 -6 -3 -5 5.49 0.00
 -6 3 5 5.49 -0.02
 -3 5 -6 5.49 -0.02
 -5 6 -3 5.49 0.01
 -6 -3 5 5.49 0.02
 -6 -4 -5 -0.50 0.00
 -4 5 6 -0.50 -0.01
 -6 4 5 -0.51 -0.01
 -6 -4 5 -0.50 0.03
 -6 4 -5 -0.50 0.01
 -4 5 -6 -0.50 -0.01
 -5 6 -4 -0.50 0.00
 -6 -5 -5 6.51 0.03
 -6 5 5 6.50 0.03
 -5 6 5 6.51 0.00
 -5 5 6 6.51 0.00
 -6 -5 5 6.50 -0.01
 -5 5 -6 6.51 0.03
 -5 -5 6 6.51 0.00
 -5 6 -5 6.51 0.00
 -6 5 -5 6.50 -0.01
 -6 -6 0 -4.00 0.01
 -6 0 -6 -4.00 0.01
 -6 6 0 -3.99 0.01
 0 6 -6 -4.00 0.00
 -6 -6 -2 -10.76 0.00
 -6 -2 -6 -10.76 0.00
 -2 6 6 -10.75 0.02
 2 6 -6 -10.75 0.00
 -6 2 6 -10.75 0.04
 -6 6 -2 -10.75 0.01
 -2 6 -6 -10.75 0.00
 -6 -2 6 -10.75 0.01
 -6 -4 -6 -19.44 0.01
 -6 6 4 -19.43 -0.01
 -6 4 6 -19.43 -0.01
 -6 6 -4 -19.44 -0.01
 -6 4 -6 -19.44 -0.02
 -4 6 -6 -19.44 -0.03
 -6 -4 6 -19.44 -0.01
 -6 6 6 -24.19 -0.02
 -6 6 -6 -24.20 -0.01
 -6 -6 6 -24.20 -0.01
 0 7 -1 -2.69 0.00
 0 7 1 -2.69 0.01
 -1 0 -7 -2.70 0.01
 -7 -1 0 -2.70 0.00
 -7 2 0 1.21 -0.02
 0 7 2 1.21 -0.02
 0 7 -2 1.21 0.00
 -7 -2 0 1.21 0.00
 -7 -3 0 -4.68 0.00
 0 7 3 -4.68 0.02
 0 7 -3 -4.68 0.00
 -7 3 0 -4.68 0.00
 0 7 -4 22.06 -0.02
 0 7 4 22.06 -0.01
 -7 -4 0 22.06 -0.01
 -7 4 0 22.06 -0.01
 -7 5 0 -0.28 0.00
 -7 -5 0 -0.28 0.04
 0 7 -5 -0.27 0.03
 0 7 5 -0.27 0.02
 -5 0 -7 -0.28 -0.04
 -5 0 7 -0.28 0.02
 0 7 -6 17.12 0.01
 -6 0 -7 17.13 -0.05
 -6 0 7 17.13 -0.01
 -7 -6 0 17.13 0.03
 -1 7 0 -2.70 0.02
 -7 0 -1 -2.70 0.00
 1 7 0 -2.70 -0.01
 -7 0 1 -2.70 0.01
 -7 2 1 -6.66 -0.01
 -7 -2 -1 -6.66 0.00
 1 7 -2 -6.66 -0.01
 -1 7 2 -6.66 -0.01
 -7 2 -1 -6.66 0.00
 -7 -2 1 -6.66 0.00
 1 7 2 -6.66 0.00
 -2 1 -7 -6.65 0.01
 -1 7 -2 -6.66 0.01
 -7 -3 -1 -9.51 0.01
 -7 3 1 -9.51 0.01
 1 7 -3 -9.51 0.02
 -1 7 3 -9.51 0.02
 -3 1 -7 -9.51 -0.02
 1 7 3 -9.51 0.01
 -7 -3 1 -9.51 0.00
 -1 7 -3 -9.51 -0.02
 -7 3 -1 -9.51 0.02
 -7 4 1 5.99 -0.01
 -1 7 4 5.99 -0.01
 -4 1 7 5.99 0.00
 1 7 -4 5.99 -0.01
 -4 -1 -7 5.99 -0.02
 -7 -4 -1 5.99 -0.01
 -7 -4 1 5.99 0.00
 -7 4 -1 5.99 0.00
 -1 7 -4 5.99 0.00
 -7 -5 -1 -3.10 0.03
 -5 1 7 -3.10 0.05
 -1 7 5 -3.11 0.01
 -7 5 1 -3.11 0.01
 -5 -1 -7 -3.10 -0.02
 1 7 -5 -3.11 0.00
 -1 7 -5 -3.11 0.00
 -7 -5 1 -3.10 0.01
 -6 -1 -7 6.74 0.03
 -7 -6 -1 6.74 -0.05
 1 7 -6 6.74 -0.02
 -6 1 7 6.73 -0.02
 -1 7 6 6.74 -0.03
 -7 6 -1 6.74 0.00
 -7 -6 1 6.74 -0.01
 -6 1 -7 6.74 0.00
 -1 7 -6 6.74 0.01
 -6 -1 7 6.73 -0.01
 2 7 0 -1.21 0.01
 0 2 -7 -1.21 0.00
 -7 0 2 -1.21 0.02
 -2 7 0 -1.21 0.01
 2 7 -1 -6.65 -0.01
 -2 7 1 -6.66 -0.01
 -1 2 -7 -6.66 0.01
 -7 1 -2 -6.66 0.00
 -7 -1 2 -6.66 0.00
 -2 7 -1 -6.66 -0.01
 2 7 1 -6.66 0.01
 -2 7 3 -5.81 0.00
 2 7 -3 -5.81 -0.01
 -7 3 2 -5.81 0.02
 -7 -3 -2 -5.81 -0.01
 -3 -2 -7 -5.81 0.00
 -7 3 -2 -5.82 0.00
 -3 2 -7 -5.81 -0.01
 -2 7 -3 -5.81 0.02
 -7 -3 2 -5.81 0.01
 2 7 -4 14.98 0.01
 -2 7 4 14.98 0.00
 -4 -2 -7 14.98 -0.01
 -7 4 2 14.98 -0.02
 -4 2 7 14.98 -0.01
 -7 -4 -2 14.98 0.01
 -7 -4 2 14.98 0.01
 -2 7 -4 14.98 -0.01
 -4 2 -7 14.98 0.01
 -7 4 -2 14.98 -0.02
 -7 -5 -2 3.93 0.01
 -5 2 7 3.93 -0.01
 -7 5 2 3.93 -0.01
 -5 -2 -7 3.93 -0.01
 2 7 -5 3.93 -0.01
 -2 7 5 3.93 0.00
 -7 -5 2 3.93 -0.01
 -5 -2 7 3.93 0.01
 -7 5 -2 3.93 0.00
 -5 2 -7 3.93 0.00
 -2 7 -5 3.93 0.00
 2 7 -6 9.27 0.00
 -2 7 6 9.27 -0.01
 -7 -6 -2 9.27 0.03
 -6 -2 -7 9.27 -0.02
 -7 6 2 9.27 -0.01
 -6 2 7 9.27 0.02
 -2 7 -6 9.27 0.01
 -6 2 -7 9.27 -0.02
 -7 6 -2 9.27 -0.01
 -6 -2 7 9.27 0.01
 -7 -6 2 9.27 0.00
 0 3 -7 -4.68 0.00
 -3 7 0 -4.68 0.00
 3 7 0 -4.68 -0.01
 -7 0 -3 -4.68 0.00
 -3 7 1 9.51 -0.03
 3 7 -1 9.51 -0.02
 -7 -1 3 9.51 -0.02
 -3 7 -1 9.51 -0.02
 -7 1 -3 9.51 0.00
 -1 3 -7 9.51 0.02
 3 7 -2 -5.81 0.01
 -7 2 3 -5.81 0.02
 -3 7 2 -5.81 0.01
 -7 -2 3 -5.82 0.00
 -2 3 -7 -5.81 0.01
 -3 7 -2 -5.82 0.01
 -4 3 7 2.58 0.02
 -7 4 3 2.58 -0.01
 -4 -3 -7 2.58 0.00
 -3 7 4 2.58 0.00
 -7 -4 3 2.58 0.00
 -4 3 -7 2.58 0.01
 -3 7 -4 2.58 0.01
 -3 7 5 1.75 -0.02
 -7 5 3 1.74 0.01
 -5 -3 -7 1.75 -0.01
 -5 3 7 1.75 0.00
 -3 7 -5 1.75 0.01
 -5 3 -7 1.74 0.01
 -7 -5 3 1.75 -0.03
 -7 5 -3 1.75 -0.01
 -5 -3 7 1.74 -0.02
 -7 -6 -3 7.32 0.02
 -7 6 3 7.32 -0.01
 -6 -3 -7 7.33 -0.01
 -6 3 7 7.32 0.01
 -3 7 6 7.32 -0.02
 -6 3 -7 7.32 -0.01
 -6 -3 7 7.32 0.01
 -3 7 -6 7.32 0.02
 -7 -6 3 7.32 0.02
 -7 6 -3 7.32 -0.01
 0 4 -7 -22.06 -0.02
 -7 0 -4 -22.06 0.01
 -4 7 0 -22.06 -0.01
 -4 7 1 5.99 0.00
 4 7 -1 5.99 -0.01
 -7 1 4 5.99 -0.01
 1 4 -7 5.99 -0.01
 -7 -1 -4 5.99 -0.01
 -7 -1 4 5.99 0.00
 -4 7 -1 5.99 0.01
 -7 1 -4 5.99 0.00
 -1 4 -7 5.99 0.01
 -7 -2 -4 -14.98 -0.01
 -4 7 2 -14.98 0.01
 -7 2 4 -14.98 0.02
 -4 7 -2 -14.98 -0.02
 -2 4 -7 -14.98 0.01
 -7 -2 4 -14.98 0.02
 -7 2 -4 -14.98 -0.01
 -4 7 3 2.58 0.02
 -7 3 4 2.58 -0.01
 -3 4 7 2.58 0.00
 -7 -3 -4 2.58 0.02
 -4 7 -3 2.58 0.00
 -3 4 -7 2.58 0.00
 -7 -3 4 2.58 -0.01
 -7 3 -4 2.58 0.00
 -4 7 5 5.12 0.01
 -5 -4 -7 5.13 -0.01
 -5 4 7 5.13 0.00
 -7 -5 -4 5.13 0.00
 -7 5 4 5.13 0.00
 -5 4 -7 5.13 0.01
 -7 -5 4 5.13 0.00
 -7 5 -4 5.13 -0.01
 -5 -4 7 5.13 -0.01
 -4 7 -5 5.13 0.02
 -4 7 6 6.36 -0.01
 -6 4 7 6.35 0.00
 -7 -6 -4 6.36 -0.01
 -7 6 4 6.36 -0.01
 -6 -4 -7 6.36 0.02
 -4 7 -6 6.35 -0.01
 -6 4 -7 6.36 0.00
 -7 6 -4 6.35 0.01
 -6 -4 7 6.35 -0.01
 -5 7 0 -0.28 0.02
 -7 0 -5 -0.28 0.04
 0 5 -7 -0.27 -0.03
 1 5 -7 3.11 0.00
 -5 7 1 3.10 -0.05
 -7 1 5 3.11 -0.01
 -7 -1 -5 3.10 -0.03
 -7 1 -5 3.10 -0.01
 -1 5 -7 3.11 0.00
 -5 7 -1 3.11 -0.02
 -2 5 7 3.93 0.00
 -7 -2 -5 3.93 0.01
 -5 7 2 3.93 -0.01
 -7 2 5 3.93 -0.01
 -5 7 -2 3.93 0.01
 -7 -2 5 3.93 0.00
 -7 2 -5 3.93 -0.01
 -2 5 -7 3.93 0.01
 -3 5 7 -1.75 0.02
 -5 7 3 -1.75 0.00
 -7 -3 -5 -1.75 0.00
 -7 3 5 -1.74 -0.01
 -7 -3 5 -1.75 0.01
 -5 7 -3 -1.74 0.02
 -3 5 -7 -1.75 -0.01
 -5 7 4 5.13 0.00
 -7 -4 -5 5.13 0.00
 -7 4 5 5.13 0.00
 -4 5 7 5.12 0.01
 -7 -4 5 5.13 -0.01
 -7 4 -5 5.13 0.00
 -4 5 -7 5.13 0.02
 -5 7 -4 5.13 -0.01
 -6 5 7 8.50 -0.01
 -7 -6 -5 8.51 0.00
 -6 -5 -7 8.51 -0.01
 -7 6 5 8.51 0.00
 -7 6 -5 8.51 0.01
 -6 5 -7 8.51 0.01
 -5 7 -6 8.51 -0.01
 -6 -5 7 8.51 0.03
 -7 0 6 -17.13 0.07
 0 6 -7 -17.12 0.01
 -6 7 0 -17.13 0.01
 -7 0 -6 -17.13 -0.03
 1 6 -7 6.74 -0.01
 -7 -1 -6 6.74 -0.04
 -6 7 1 6.73 -0.02
 -7 1 6 6.74 0.01
 -1 6 -7 6.74 0.02
 -7 1 -6 6.74 -0.01
 -6 7 -1 6.73 -0.01
 -7 -1 6 6.74 0.00
 -7 2 6 -9.27 0.01
 -2 6 7 -9.27 0.01
 2 6 -7 -9.27 0.01
 -6 7 2 -9.27 -0.02
 -7 -2 -6 -9.27 -0.03
 -6 7 -2 -9.27 -0.01
 -7 2 -6 -9.27 0.00
 -7 -2 6 -9.27 0.01
 -2 6 -7 -9.27 0.00
 -3 6 7 7.32 -0.02
 -6 7 3 7.32 0.02
 -7 -3 -6 7.32 0.02
 -7 3 6 7.32 -0.01
 -6 7 -3 7.32 0.01
 -3 6 -7 7.32 0.01
 -7 -3 6 7.32 -0.01
 -7 3 -6 7.32 0.02
 -7 -4 -6 -6.35 0.01
 -7 4 6 -6.36 0.01
 -4 6 7 -6.36 0.01
 -6 7 4 -6.35 0.00
 -7 -4 6 -6.35 -0.02
 -6 7 -4 -6.35 0.01
 -7 4 -6 -6.35 -0.01
 -4 6 -7 -6.35 0.02
 -5 6 7 8.51 0.00
 -7 5 6 8.51 0.00
 -7 -5 -6 8.51 0.00
 -5 6 -7 8.51 -0.01
 -7 -5 6 8.51 0.01
 -7 5 -6 8.51 0.00
 -5 -6 7 8.51 -0.01
 -6 7 -5 8.51 0.03
 -7 0 -7 -7.89 -0.02
 -7 0 7 -7.89 -0.03
 -7 7 0 -7.89 -0.03
 0 7 -7 -7.89 0.00
 -7 -2 -7 -1.04 -0.01
 -2 7 7 -1.04 0.04
 2 7 -7 -1.03 0.01
 -7 2 7 -1.03 -0.02
 -7 7 2 -1.04 -0.02
 -7 7 -2 -1.04 -0.03
 -2 7 -7 -1.03 -0.01
 -7 -2 7 -1.03 -0.03
 -7 -4 -7 -0.19 0.00
 -7 4 7 -0.19 0.02
 -7 -4 7 -0.19 0.01
 -7 7 -4 -0.19 0.01
 -4 7 -7 -0.19 0.00
 -7 4 -7 -0.19 0.00
 -7 -6 -7 5.66 0.01
 -7 7 6 5.66 0.02
 -6 7 7 5.66 0.00
 -7 6 7 5.66 0.02
 -7 7 -6 5.66 -0.02
 -7 -6 7 5.66 -0.02
 -6 -7 7 5.66 0.01
 -6 7 -7 5.66 0.01
 -7 6 -7 5.66 0.01
 -8 0 0 31.54 -0.01
 0 8 1 1.46 0.01
 0 8 -1 1.46 0.01
 -8 1 0 1.46 0.01
 0 8 -2 19.00 -0.01
 -2 0 -8 19.00 -0.01
 -8 2 0 19.00 0.00
 -8 -2 0 19.00 -0.01
 0 8 2 19.00 -0.02
 -8 3 0 4.63 -0.01
 -3 0 -8 4.62 -0.01
 0 8 3 4.63 0.01
 -8 -3 0 4.63 0.00
 0 8 -3 4.63 0.00
 -8 4 0 11.12 0.01
 -8 -4 0 11.12 -0.02
 0 8 4 11.12 -0.01
 0 8 -4 11.11 -0.01
 -8 5 0 -2.95 -0.02
 -5 0 8 -2.96 -0.07
 0 8 -5 -2.95 0.00
 -8 -5 0 -2.96 -0.07
 0 8 5 -2.95 0.01
 -6 0 8 5.46 -0.06
 -8 -6 0 5.45 -0.07
 0 8 -6 5.45 -0.02
 0 8 6 5.45 -0.01
 -6 0 -8 5.45 0.04
 -7 0 -8 4.72 0.00
 0 8 7 4.72 0.02
 -7 0 8 4.72 0.00
 0 8 -7 4.72 0.01
 -8 7 0 4.72 0.00
 -8 -7 0 4.72 -0.01
 1 8 0 -1.46 0.00
 -1 8 0 -1.46 0.00
 -8 0 1 -1.46 -0.01
 -8 0 -1 -1.46 0.00
 -1 8 1 -15.73 0.00
 1 8 -1 -15.73 0.01
 -8 1 1 -15.74 0.01
 1 8 1 -15.73 0.01
 -1 8 -1 -15.73 0.02
 -1 1 -8 -15.73 -0.01
 -8 1 -1 -15.73 0.02
 -2 -1 -8 -6.58 0.00
 -1 8 2 -6.58 -0.01
 -8 -2 -1 -6.58 -0.01
 1 8 -2 -6.57 0.00
 -8 2 1 -6.58 -0.01
 1 8 2 -6.58 -0.01
 -8 2 -1 -6.58 0.01
 -8 -2 1 -6.58 0.01
 -2 1 -8 -6.58 0.01
 -1 8 -2 -6.58 0.01
 -8 -3 -1 -5.30 0.01
 1 8 -3 -5.30 0.00
 -8 3 1 -5.30 -0.01
 -1 8 3 -5.30 -0.01
 1 8 3 -5.29 0.01
 -8 3 -1 -5.30 0.00
 -8 -3 1 -5.30 0.01
 -3 1 -8 -5.30 0.00
 -1 8 -3 -5.30 0.00
 -8 -4 -1 -9.66 0.02
 -4 1 8 -9.65 -0.02
 -1 8 4 -9.65 -0.01
 1 8 -4 -9.65 -0.01
 -8 4 1 -9.66 0.02
 -4 -1 -8 -9.66 -0.01
 -1 8 -4 -9.65 0.02
 -4 1 -8 -9.66 0.02
 -8 -4 1 -9.66 0.00
 -8 4 -1 -9.65 0.00
 1 8 4 -9.66 0.00
 -5 -1 -8 -12.44 0.01
 -1 8 5 -12.44 0.00
 -8 -5 -1 -12.44 0.01
 -5 1 8 -12.44 0.01
 -8 5 1 -12.44 -0.02
 1 8 -5 -12.44 -0.01
 -5 -1 8 -12.44 -0.01
 -1 8 -5 -12.44 -0.02
 -8 -5 1 -12.44 0.03
 -8 5 -1 -12.44 0.00
 -6 -1 -8 -16.52 0.00
 -6 1 8 -16.52 0.01
 -1 8 6 -16.52 0.00
 -8 -6 -1 -16.52 0.01
 1 8 -6 -16.52 -0.01
 -1 8 -6 -16.52 0.00
 -6 -1 8 -16.52 0.05
 -8 -6 1 -16.52 0.05
 -8 -7 -1 -6.19 0.17
 -8 7 1 -6.20 -0.02
 -7 1 8 -6.19 0.14
 -1 8 7 -6.19 0.00
 1 8 -7 -6.20 0.04
 -7 -1 -8 -6.19 -0.13
 -1 8 -7 -6.20 0.02
 -7 1 -8 -6.19 -0.04
 -7 -1 8 -6.19 0.10
 -8 -7 1 -6.19 0.10
 -8 7 -1 -6.20 0.03
 -8 0 -2 19.00 -0.01
 0 2 -8 19.00 0.01
 -2 8 0 19.00 0.00
 2 8 0 19.00 0.01
 -8 1 2 6.58 0.01
 -2 8 1 6.58 0.02
 2 8 -1 6.58 0.01
 -8 -1 -2 6.58 0.01
 -8 -1 2 6.58 -0.01
 -8 1 -2 6.58 0.00
 -2 8 -1 6.58 0.02
 2 8 1 6.58 0.00
 -1 2 -8 6.58 0.00
 2 8 -2 9.74 0.01
 -8 2 2 9.74 -0.01
 -2 8 2 9.74 0.01
 -8 2 -2 9.74 0.00
 -2 8 -2 9.74 -0.02
 -8 -2 2 9.74 0.00
 -2 2 -8 9.74 -0.01
 2 8 2 9.74 -0.03
 -3 -2 -8 11.67 0.04
 2 8 -3 11.67 0.02
 -2 8 3 11.67 0.03
 -8 -3 -2 11.67 0.01
 -8 3 2 11.67 0.01
 -8 3 -2 11.67 -0.03
 2 8 3 11.67 -0.05
 -3 2 -8 11.67 -0.03
 -2 8 -3 11.67 -0.01
 -8 -3 2 11.67 -0.02
 2 8 -4 4.76 0.02
 -2 8 4 4.77 0.02
 -4 2 8 4.77 0.01
 -8 4 2 4.77 0.00
 -4 -2 -8 4.76 0.03
 -8 -4 2 4.77 -0.01
 -8 4 -2 4.77 -0.01
 -4 2 -8 4.76 -0.01
 -2 8 -4 4.76 -0.02
 -5 -2 -8 6.07 0.04
 -8 5 2 6.07 -0.03
 2 8 -5 6.07 -0.01
 -8 -5 -2 6.07 -0.05
 -5 2 8 6.07 -0.03
 -2 8 5 6.07 -0.01
 -8 -5 2 6.07 -0.02
 -2 8 -5 6.07 0.00
 -5 2 -8 6.07 -0.02
 -6 -2 -8 -1.24 0.03
 -8 -6 -2 -1.23 -0.05
 2 8 -6 -1.23 0.01
 -8 6 2 -1.23 0.01
 -2 8 6 -1.23 -0.01
 -6 2 8 -1.23 -0.05
 -2 8 -6 -1.23 -0.01
 -6 -2 8 -1.23 -0.02
 -8 -6 2 -1.23 -0.03
 -8 6 -2 -1.23 -0.01
 -6 2 -8 -1.23 0.01
 -2 8 7 9.02 -0.03
 -8 -7 -2 9.02 -0.02
 -7 -2 -8 9.02 0.00
 2 8 -7 9.03 -0.01
 -7 2 8 9.03 -0.04
 -7 -2 8 9.02 -0.01
 -7 2 -8 9.03 0.01
 -2 8 -7 9.03 0.01
 -8 -7 2 9.03 -0.01
 -8 7 -2 9.03 -0.01
 3 8 0 -4.62 -0.01
 -3 8 0 -4.63 0.00
 0 3 -8 -4.63 0.00
 -8 0 -3 -4.63 0.00
 -8 -1 -3 -5.30 0.01
 -8 1 3 -5.30 -0.01
 -3 8 1 -5.30 -0.01
 3 8 -1 -5.30 0.00
 -8 1 -3 -5.30 0.01
 3 8 1 -5.29 0.01
 -1 3 -8 -5.30 0.00
 -3 8 -1 -5.30 0.00
 -8 2 3 -11.67 -0.01
 -8 -2 -3 -11.67 -0.01
 -3 8 2 -11.67 -0.03
 3 8 -2 -11.67 -0.03
 -8 -2 3 -11.67 0.03
 -8 2 -3 -11.67 0.02
 -3 8 -2 -11.67 0.02
 -2 3 -8 -11.67 0.02
 -3 8 3 -0.98 0.00
 -8 -3 -3 -0.98 0.04
 -8 3 3 -0.98 0.01
 -8 3 -3 -0.98 -0.01
 -8 -3 3 -0.98 -0.01
 -3 8 -3 -0.98 -0.02
 -3 3 -8 -0.98 -0.01
 -3 8 4 -13.90 -0.03
 -4 -3 -8 -13.90 -0.04
 -8 4 3 -13.91 0.02
 -4 3 8 -13.90 -0.04
 -3 8 -4 -13.90 0.03
 -4 3 -8 -13.91 0.04
 -8 4 -3 -13.91 0.01
 -8 -4 3 -13.91 0.02
 -5 -3 -8 -9.32 0.00
 -3 8 5 -9.32 -0.02
 3 8 -5 -9.32 0.00
 -8 5 3 -9.32 0.01
 -5 3 8 -9.32 -0.02
 -8 -5 3 -9.32 0.00
 -5 3 -8 -9.32 0.00
 -3 8 -5 -9.32 0.00
 -6 3 8 -17.30 0.03
 -8 -6 -3 -17.30 0.04
 -8 6 3 -17.31 -0.01
 -3 8 6 -17.31 0.02
 -6 -3 -8 -17.31 -0.03
 -6 -3 8 -17.30 0.02
 -6 3 -8 -17.31 -0.03
 -8 -6 3 -17.31 0.04
 -3 8 -6 -17.31 0.00
 -8 6 -3 -17.31 0.01
 -7 -3 -8 -5.66 0.00
 -8 -7 -3 -5.65 0.00
 -3 8 7 -5.66 -0.01
 -7 3 8 -5.65 -0.01
 -8 7 -3 -5.66 0.01
 -7 3 -8 -5.65 0.03
 -3 8 -7 -5.66 -0.02
 -8 0 -4 11.12 -0.02
 -4 8 0 11.12 0.01
 4 8 0 11.12 0.00
 0 4 -8 11.11 0.01
 -8 0 4 11.12 0.01
 -8 1 4 9.65 -0.02
 1 4 -8 9.65 0.02
 -4 8 1 9.65 0.02
 -8 -1 -4 9.65 -0.02
 4 8 -1 9.66 0.02
 -4 8 -1 9.65 0.02
 -8 1 -4 9.66 0.00
 -1 4 -8 9.65 -0.01
 -8 2 4 4.77 0.01
 -4 8 2 4.77 0.01
 -8 -2 -4 4.77 -0.02
 -4 8 -2 4.77 -0.03
 -8 -2 4 4.77 -0.01
 -8 2 -4 4.77 -0.01
 -2 4 -8 4.76 -0.02
 -3 4 8 13.90 0.03
 -8 -3 -4 13.90 0.02
 -4 8 3 13.90 0.04
 -8 3 4 13.91 -0.02
 -8 -3 4 13.91 -0.01
 -3 4 -8 13.90 -0.04
 -8 3 -4 13.91 -0.02
 -4 8 -3 13.90 -0.02
 -8 -4 -4 4.98 0.00
 -4 4 8 4.99 0.01
 -8 4 4 4.99 0.00
 -4 8 4 4.99 0.01
 -4 8 -4 4.98 -0.02
 -4 4 -8 4.98 -0.02
 -8 -4 4 4.98 -0.01
 -8 -5 -4 8.44 -0.01
 -8 5 4 8.45 0.00
 -5 -4 -8 8.45 0.00
 -4 8 5 8.44 0.01
 -5 4 8 8.45 0.00
 -8 5 -4 8.45 0.00
 -5 -4 8 8.45 0.01
 -5 4 -8 8.45 0.01
 -4 8 -5 8.45 0.00
 -8 -5 4 8.45 0.00
 -6 -4 -8 -1.02 -0.02
 -4 8 6 -1.02 -0.02
 -8 -6 -4 -1.02 0.00
 -8 6 4 -1.02 0.00
 -6 4 8 -1.02 0.00
 -6 -4 8 -1.02 -0.03
 -8 -6 4 -1.02 0.00
 -8 6 -4 -1.02 -0.01
 -4 8 -6 -1.02 0.00
 -6 4 -8 -1.02 -0.02
 -7 4 8 8.99 0.00
 -7 -4 -8 8.99 0.00
 -8 -7 -4 8.99 -0.02
 -8 7 4 8.99 0.00
 -4 8 7 8.99 -0.01
 -4 8 -7 8.99 0.01
 -7 -4 8 8.99 0.01
 -8 7 -4 8.99 0.00
 -7 4 -8 8.99 0.01
 -8 0 -5 2.96 0.07
 0 5 -8 2.95 0.00
 -5 8 0 2.96 0.07
 -8 0 5 2.95 0.02
 -5 8 1 -12.44 0.01
 1 5 -8 -12.44 0.02
 5 8 -1 -12.44 -0.01
 -8 -1 -5 -12.44 0.01
 -8 1 5 -12.44 -0.02
 -5 8 -1 -12.44 -0.01
 -8 1 -5 -12.44 0.03
 -1 5 -8 -12.44 0.01
 -8 -2 -5 -6.07 0.05
 -8 2 5 -6.07 0.03
 -5 8 2 -6.07 0.03
 -2 5 -8 -6.07 -0.01
 -8 2 -5 -6.07 0.02
 -5 8 -2 -6.07 0.03
 -5 8 3 -9.32 -0.02
 -8 -3 -5 -9.32 0.00
 -3 5 8 -9.32 -0.02
 -8 3 5 -9.32 0.01
 -8 -3 5 -9.32 0.02
 -3 5 -8 -9.32 0.00
 -8 3 -5 -9.32 0.00
 -5 8 -3 -9.32 0.01
 -5 8 4 -8.45 0.00
 -8 4 5 -8.45 0.00
 -8 -4 -5 -8.44 0.01
 -4 5 8 -8.44 -0.01
 -4 5 -8 -8.45 -0.01
 -5 8 -4 -8.45 -0.01
 -8 -4 5 -8.45 0.00
 -8 -5 -5 -9.60 -0.03
 -5 8 5 -9.60 -0.02
 -5 5 8 -9.60 -0.02
 -8 5 5 -9.61 -0.03
 -8 -5 5 -9.60 0.01
 -5 5 -8 -9.60 0.00
 -8 5 -5 -9.60 0.01
 -5 -5 8 -9.60 0.00
 -5 8 -5 -9.60 0.00
 -6 -5 -8 -13.92 0.00
 -6 5 8 -13.91 -0.01
 -8 6 5 -13.92 -0.03
 -8 -6 -5 -13.92 0.01
 -5 8 6 -13.92 -0.01
 -8 6 -5 -13.92 -0.01
 -8 -6 5 -13.92 0.00
 -6 5 -8 -13.92 -0.01
 -6 -5 8 -13.92 -0.01
 -5 8 -6 -13.92 -0.01
 -7 5 8 -5.71 0.00
 -7 -5 -8 -5.71 0.02
 -8 -7 -5 -5.70 -0.01
 -5 8 7 -5.71 0.00
 -8 7 -5 -5.71 0.02
 -5 8 -7 -5.71 0.01
 -7 -5 8 -5.71 -0.01
 -7 5 -8 -5.71 -0.02
 -8 0 6 5.46 0.01
 -8 0 -6 5.45 -0.07
 -6 8 0 5.46 -0.06
 0 6 -8 5.45 0.02
 1 6 -8 16.52 0.00
 -8 -1 -6 16.52 -0.01
 -6 8 1 16.52 -0.01
 -8 1 6 16.52 -0.04
 -6 8 -1 16.52 -0.05
 -8 1 -6 16.52 -0.05
 -8 -1 6 16.52 -0.02
 -1 6 -8 16.52 -0.01
 -8 -2 -6 -1.23 -0.05
 -8 2 6 -1.23 0.01
 -6 8 2 -1.23 -0.05
 -8 2 -6 -1.23 -0.03
 -2 6 -8 -1.23 -0.01
 -6 8 -2 -1.23 -0.02
 -8 -3 -6 17.30 -0.03
 -8 3 6 17.31 0.01
 -3 6 8 17.31 -0.02
 -6 8 3 17.30 -0.03
 -3 6 -8 17.31 0.02
 -6 8 -3 17.30 -0.02
 -8 3 -6 17.31 -0.04
 -8 -3 6 17.31 -0.01
 -8 4 6 -1.02 0.00
 -4 6 8 -1.02 -0.02
 -6 8 4 -1.02 0.00
 -8 -4 -6 -1.02 0.00
 -8 4 -6 -1.02 0.00
 -8 -4 6 -1.02 -0.01
 -4 6 -8 -1.02 -0.01
 -6 8 -4 -1.02 -0.03
 -8 -5 -6 13.92 -0.01
 -5 6 8 13.92 0.01
 -8 5 6 13.92 0.03
 -6 8 5 13.91 0.01
 -8 5 -6 13.92 0.00
 -6 8 -5 13.92 0.01
 -8 -5 6 13.92 0.01
 -5 6 -8 13.92 0.00
 -8 -6 -6 -4.21 0.00
 -6 8 6 -4.20 0.00
 -6 6 8 -4.20 0.00
 -8 6 6 -4.21 0.03
 -6 6 -8 -4.21 0.01
 -8 6 -6 -4.21 -0.01
 -8 -6 6 -4.21 -0.01
 -6 8 -6 -4.21 0.00
 -6 -6 8 -4.21 0.00
 -6 8 7 8.15 -0.03
 -7 6 8 8.15 0.00
 -8 -7 -6 8.15 0.00
 -8 7 6 8.15 0.01
 -6 8 -7 8.15 0.02
 -8 7 -6 8.15 -0.02
 -7 -6 8 8.15 0.00
 -7 6 -8 8.15 -0.02
 0 7 -8 -4.72 0.01
 -8 0 -7 -4.72 0.01
 -7 8 0 -4.72 0.00
 -8 0 7 -4.72 0.00
 1 7 -8 -6.20 -0.02
 -8 1 7 -6.20 -0.02
 -8 -1 -7 -6.19 0.17
 -7 8 1 -6.19 0.14
 -1 7 -8 -6.20 -0.04
 -8 -1 7 -6.20 0.03
 -8 1 -7 -6.19 0.10
 -7 8 -1 -6.19 0.10
 -8 2 7 -9.03 0.02
 -8 -2 -7 -9.02 0.02
 2 7 -8 -9.03 0.01
 -7 8 2 -9.03 0.04
 -2 7 8 -9.02 0.03
 -2 7 -8 -9.03 -0.01
 -8 2 -7 -9.03 0.01
 -7 8 -2 -9.02 0.01
 -8 -2 7 -9.03 0.01
 -3 7 8 -5.65 -0.01
 -8 -3 -7 -5.65 0.00
 -8 3 7 -5.66 0.01
 -7 8 3 -5.65 -0.01
 -7 8 -3 -5.66 0.02
 -3 7 -8 -5.65 0.02
 -8 3 -7 -5.66 -0.01
 -7 8 4 -8.99 0.00
 -8 -4 -7 -8.99 0.02
 -8 4 7 -8.99 0.00
 -7 8 -4 -8.99 -0.01
 -8 -4 7 -8.99 -0.01
 -8 4 -7 -8.99 -0.01
 -4 7 -8 -8.99 -0.02
 -8 5 7 -5.71 -0.03
 -8 -5 -7 -5.70 -0.01
 -8 -5 7 -5.71 0.02
 -8 5 -7 -5.71 0.01
 -7 8 -5 -5.71 -0.01
 -5 7 -8 -5.71 -0.01
 -8 -6 -7 -8.15 0.00
 -6 7 8 -8.15 0.03
 -8 6 7 -8.15 -0.01
 -7 8 6 -8.15 0.00
 -7 8 -6 -8.15 0.00
 -6 -7 8 -8.15 -0.02
 -6 7 -8 -8.15 -0.01
 -8 6 -7 -8.15 -0.01
 -8 -6 7 -8.15 0.02
 -8 7 7 -5.17 -0.04
 -8 0 -8 16.02 -0.03
 -8 0 8 16.02 -0.05
 -8 8 0 16.02 -0.05
 0 8 -8 16.02 0.00
 -8 -2 -8 13.33 0.00
 -2 8 8 13.33 -0.02
 2 8 -8 13.33 0.00
 -8 2 8 13.33 -0.03
 -8 8 2 13.33 -0.03
 -8 8 -2 13.33 -0.03
 -2 8 -8 13.33 0.00
 -8 -2 8 13.33 -0.03
 -8 -4 -8 7.58 -0.02
 -8 4 8 7.59 0.01
 -4 8 8 7.59 0.00
 -8 4 -8 7.58 0.01
 -4 8 -8 7.58 0.00
 -8 8 -4 7.59 -0.01
 -8 -6 -8 4.86 -0.01
 -8 6 8 4.86 0.00
 -8 8 -6 4.86 0.00
 -8 6 -8 4.86 -0.02
 -6 8 -8 4.86 -0.03
 -8 -6 8 4.86 0.00
 -8 8 -8 4.45 0.00
 -9 1 0 -7.98 0.00
 0 9 -1 -7.97 -0.02
 0 9 1 -7.97 0.00
 -9 -1 0 -7.97 -0.01
 0 9 -2 8.52 -0.01
 -9 2 0 8.52 -0.01
 -2 0 -9 8.53 -0.02
 0 9 2 8.52 -0.01
 0 9 -3 -14.14 -0.01
 -9 3 0 -14.15 -0.01
 -3 0 -9 -14.15 0.00
 0 9 3 -14.15 0.00
 0 9 -4 2.87 -0.01
 -4 0 -9 2.87 -0.03
 0 9 4 2.87 -0.03
 -9 4 0 2.87 -0.01
 -9 -4 0 2.87 0.01
 0 9 5 -5.77 0.00
 -5 0 9 -5.77 0.02
 -9 -5 0 -5.77 0.02
 0 9 -5 -5.77 0.02
 -9 5 0 -5.77 0.00
 -6 0 9 12.14 0.01
 -9 -6 0 12.14 -0.01
 0 9 -6 12.14 -0.01
 0 9 6 12.14 -0.02
 -9 7 0 -2.92 0.01
 0 9 -7 -2.92 -0.03
 -7 0 -9 -2.92 0.06
 -7 0 9 -2.92 -0.05
 -9 -7 0 -2.92 -0.06
 0 9 7 -2.92 0.01
 -8 0 9 -3.56 0.01
 -8 0 -9 -3.55 0.07
 0 9 8 -3.56 -0.01
 -9 -8 0 -3.56 -0.03
 0 9 -8 -3.56 -0.03
 -9 8 0 -3.55 0.07
 -9 0 -1 -7.97 -0.02
 -9 0 1 -7.98 0.00
 1 9 0 -7.98 -0.01
 -1 9 0 -7.98 -0.02
 -1 9 2 5.10 0.02
 -9 2 1 5.10 0.00
 1 9 -2 5.10 0.04
 -9 -2 -1 5.10 0.01
 1 9 2 5.10 -0.03
 -9 -2 1 5.10 0.01
 -1 9 -2 5.10 -0.02
 -2 1 -9 5.11 0.01
 -9 2 -1 5.10 -0.03
 -1 9 3 -2.38 -0.04
 1 9 -3 -2.38 -0.04
 -9 3 1 -2.38 0.01
 -9 -3 -1 -2.38 -0.03
 -3 1 -9 -2.38 0.05
 1 9 3 -2.38 0.07
 -1 9 -3 -2.38 0.03
 -9 3 -1 -2.38 0.01
 -9 -3 1 -2.38 0.02
 1 9 -4 4.97 0.03
 -1 9 4 4.97 0.03
 -9 4 1 4.97 0.03
 -9 -4 1 4.97 -0.01
 -9 4 -1 4.97 0.00
 -4 1 -9 4.97 0.00
 1 9 4 4.97 0.00
 -1 9 -4 4.97 0.01
 -5 -1 -9 4.11 -0.01
 -9 5 1 4.11 0.02
 -5 1 9 4.12 0.04
 -9 -5 -1 4.12 0.03
 1 9 -5 4.11 0.03
 -1 9 5 4.11 0.02
 -5 -1 9 4.12 0.04
 -1 9 -5 4.11 -0.01
 1 9 5 4.11 0.03
 -9 5 -1 4.11 0.03
 -9 -5 1 4.11 0.01
 -5 1 -9 4.12 -0.01
 -6 -1 -9 9.33 0.02
 1 9 -6 9.33 -0.01
 -6 1 9 9.33 0.00
 -1 9 6 9.33 0.00
 -9 -6 -1 9.33 0.00
 -9 6 1 9.33 0.01
 -9 -6 1 9.33 -0.01
 -1 9 -6 9.33 0.02
 -6 -1 9 9.33 0.00
 1 9 6 9.33 0.04
 -6 1 -9 9.33 0.00
 -7 -1 -9 -1.93 -0.03
 -1 9 7 -1.93 0.02
 -7 1 9 -1.93 0.00
 -9 -7 -1 -1.93 0.03
 1 9 -7 -1.93 0.01
 -9 -7 1 -1.93 -0.02
 -9 7 -1 -1.93 -0.03
 -1 9 -7 -1.93 0.00
 -7 -1 9 -1.93 -0.04
 -8 -1 -9 -6.15 0.06
 -9 -8 -1 -6.15 -0.05
 1 9 -8 -6.15 -0.01
 -8 1 9 -6.15 -0.02
 -1 9 8 -6.15 -0.01
 -9 8 1 -6.15 -0.01
 -9 -8 1 -6.15 0.01
 -1 9 -8 -6.15 0.00
 -9 8 -1 -6.15 0.00
 -8 -1 9 -6.15 -0.02
 2 9 0 -8.53 -0.02
 -9 0 2 -8.52 0.01
 -9 0 -2 -8.52 -0.01
 -2 9 0 -8.53 -0.01
 -9 -1 -2 5.10 0.01
 -9 1 2 5.10 0.00
 -2 9 1 5.10 0.02
 2 9 -1 5.11 -0.01
 -2 9 -1 5.10 0.00
 -9 -1 2 5.10 -0.03
 -1 2 -9 5.10 -0.04
 -9 1 -2 5.10 0.01
 2 9 1 5.10 -0.01
 2 9 -3 -3.85 -0.05
 -2 9 3 -3.85 -0.03
 -9 3 2 -3.85 -0.01
 -9 -3 -2 -3.85 -0.02
 2 9 3 -3.85 0.05
 -9 3 -2 -3.85 0.03
 -3 2 -9 -3.85 0.01
 -2 9 -3 -3.85 0.02
 -9 -3 2 -3.85 -0.01
 -4 2 9 -2.32 0.00
 -9 -4 -2 -2.32 0.01
 -9 4 2 -2.32 -0.02
 -4 -2 -9 -2.32 -0.02
 -2 9 4 -2.32 0.01
 2 9 -4 -2.33 0.02
 -4 2 -9 -2.32 -0.01
 2 9 4 -2.32 -0.03
 -9 4 -2 -2.32 0.00
 -2 9 -4 -2.32 -0.01
 -9 -4 2 -2.32 0.01
 -9 -5 -2 1.41 0.03
 -5 -2 -9 1.41 -0.02
 -9 5 2 1.41 0.00
 -2 9 5 1.41 0.04
 2 9 -5 1.41 0.02
 -5 2 9 1.41 0.03
 -9 -5 2 1.41 -0.01
 -9 5 -2 1.41 0.00
 -2 9 -5 1.41 -0.01
 -5 2 -9 1.41 -0.03
 -5 -2 9 1.41 0.01
 -6 -2 -9 7.42 0.02
 -6 2 9 7.41 0.02
 2 9 -6 7.41 -0.01
 -9 6 2 7.41 0.00
 -2 9 6 7.42 0.00
 -2 9 -6 7.41 -0.02
 -9 -6 2 7.41 0.00
 -6 2 -9 7.42 0.00
 -6 -2 9 7.41 -0.01
 -7 2 9 -0.22 -0.02
 -2 9 7 -0.23 0.02
 2 9 -7 -0.22 0.00
 -7 -2 -9 -0.22 0.00
 -9 7 -2 -0.22 0.00
 -7 -2 9 -0.22 -0.02
 -9 -7 2 -0.22 -0.01
 -2 9 -7 -0.22 0.01
 -7 2 -9 -0.22 0.02
 -8 -2 -9 -1.86 0.04
 -8 2 9 -1.87 -0.02
 2 9 -8 -1.87 -0.01
 -2 9 8 -1.86 -0.03
 -9 -8 -2 -1.86 -0.03
 -9 8 2 -1.86 0.01
 -9 8 -2 -1.86 0.01
 -8 2 -9 -1.87 0.03
 -2 9 -8 -1.87 -0.02
 -8 -2 9 -1.87 0.01
 -9 0 -3 -14.15 0.00
 -3 9 0 -14.15 -0.01
 3 9 0 -14.15 0.00
 0 3 -9 -14.15 0.01
 -9 0 3 -14.15 -0.01
 -3 9 1 2.38 0.02
 -9 1 3 2.38 -0.01
 3 9 -1 2.38 0.05
 -9 -1 -3 2.38 0.03
 -1 3 -9 2.38 -0.04
 -3 9 -1 2.38 -0.04
 -9 1 -3 2.38 -0.02
 -9 -1 3 2.38 -0.01
 3 9 1 2.38 -0.04
 3 9 -2 -3.85 -0.01
 -9 -2 -3 -3.85 -0.02
 -9 2 3 -3.85 -0.02
 -3 9 2 -3.85 -0.03
 -2 3 -9 -3.85 0.05
 -9 -2 3 -3.85 0.03
 3 9 2 -3.85 0.04
 -3 9 -2 -3.85 0.03
 -9 2 -3 -3.85 -0.01
 -4 3 9 -0.45 -0.03
 -3 9 4 -0.45 -0.05
 -9 4 3 -0.45 -0.01
 -9 -4 -3 -0.45 -0.02
 -4 3 -9 -0.44 0.03
 -9 4 -3 -0.45 -0.01
 -9 -4 3 -0.45 0.04
 -3 9 -4 -0.45 0.04
 -9 -5 -3 3.15 0.03
 -9 5 3 3.15 0.03
 -5 3 9 3.15 0.04
 -3 9 5 3.15 0.06
 -5 -3 -9 3.15 0.04
 3 9 -5 3.15 0.03
 -9 -5 3 3.15 -0.02
 -5 3 -9 3.15 -0.01
 -3 9 -5 3.15 -0.02
 -3 9 6 5.77 0.00
 -9 -6 -3 5.77 0.00
 -9 6 3 5.77 -0.01
 -6 3 9 5.76 0.02
 -6 -3 -9 5.77 0.03
 3 9 -6 5.77 -0.01
 -9 -6 3 5.76 0.01
 -6 -3 9 5.76 0.01
 -9 6 -3 5.77 0.03
 -6 3 -9 5.77 0.02
 -3 9 -6 5.77 0.00
 -7 3 9 -1.71 -0.02
 -3 9 7 -1.71 0.02
 -7 -3 -9 -1.71 0.02
 -9 -7 -3 -1.71 -0.01
 -3 9 -7 -1.71 0.01
 -9 7 -3 -1.71 0.01
 -7 3 -9 -1.71 0.03
 -7 -3 9 -1.71 -0.03
 -9 -7 3 -1.71 -0.03
 -8 -3 -9 -4.78 -0.01
 -8 3 9 -4.78 0.02
 -9 -8 -3 -4.78 0.02
 -3 9 8 -4.78 0.02
 -9 8 -3 -4.78 0.01
 -8 3 -9 -4.78 -0.01
 -3 9 -8 -4.78 0.01
 -8 -3 9 -4.78 0.02
 -9 0 -4 -2.87 -0.01
 0 4 -9 -2.87 -0.01
 -4 9 0 -2.87 -0.02
 4 9 0 -2.87 -0.03
 -9 0 4 -2.87 0.01
 -4 9 1 4.97 0.00
 -9 1 4 4.97 0.03
 4 9 -1 4.97 0.00
 -9 -1 -4 4.97 0.03
 -4 9 -1 4.97 0.01
 4 9 1 4.97 -0.02
 -9 1 -4 4.97 -0.01
 -1 4 -9 4.97 -0.03
 -9 -1 4 4.97 0.00
 -9 2 4 2.32 0.02
 -4 9 2 2.32 0.00
 -9 -2 -4 2.32 -0.01
 -2 4 -9 2.33 0.02
 -9 2 -4 2.32 -0.01
 -4 9 -2 2.32 0.00
 -9 -3 -4 -0.45 -0.02
 -4 9 3 -0.45 -0.03
 -3 4 9 -0.45 -0.05
 -9 3 4 -0.45 -0.01
 -9 -3 4 -0.45 -0.01
 -3 4 -9 -0.44 0.02
 -9 3 -4 -0.45 0.04
 -4 9 -3 -0.45 0.03
 -9 -5 -4 2.00 0.02
 -4 9 5 1.99 0.06
 -9 5 4 2.00 0.02
 -5 4 9 2.00 0.02
 -5 4 -9 2.00 0.01
 -4 9 -5 2.00 -0.02
 -9 -5 4 2.00 0.01
 -6 -4 -9 4.69 0.01
 -4 9 6 4.70 -0.01
 -9 -6 -4 4.69 0.01
 -9 6 4 4.69 0.00
 -6 4 9 4.69 0.00
 -9 -6 4 4.69 -0.02
 -4 9 -6 4.69 -0.01
 -9 6 -4 4.69 -0.02
 -6 -4 9 4.69 0.01
 -6 4 -9 4.69 -0.01
 -9 -7 -4 3.50 0.01
 -9 7 4 3.50 -0.01
 -4 9 7 3.49 -0.01
 -7 -4 -9 3.50 0.00
 -7 4 9 3.50 0.01
 -7 -4 9 3.50 0.00
 -9 7 -4 3.50 -0.01
 -7 4 -9 3.50 -0.02
 -4 9 -7 3.50 0.00
 -9 -8 -4 -4.98 0.00
 -8 4 9 -4.98 0.01
 -8 -4 -9 -4.97 0.00
 -4 9 8 -4.97 0.00
 -8 4 -9 -4.97 0.00
 -9 8 -4 -4.97 0.01
 -4 9 -8 -4.98 -0.01
 -8 -4 9 -4.98 0.00
 0 5 -9 -5.77 -0.02
 -9 0 -5 -5.77 0.01
 -9 0 5 -5.77 0.00
 5 9 0 -5.77 0.03
 -5 9 0 -5.77 0.02
 -9 1 5 -4.11 -0.02
 -5 9 1 -4.12 -0.05
 5 9 -1 -4.12 -0.01
 -9 -1 -5 -4.11 -0.03
 1 5 -9 -4.11 -0.01
 -9 -1 5 -4.11 -0.03
 -5 9 -1 -4.12 -0.04
 -1 5 -9 -4.11 0.03
 -9 1 -5 -4.11 -0.01
 -9 -2 -5 1.41 0.03
 -5 9 2 1.41 0.03
 -9 2 5 1.41 0.00
 -2 5 -9 1.41 -0.02
 -9 -2 5 1.41 0.00
 -5 9 -2 1.41 0.01
 -9 2 -5 1.41 -0.01
 -9 -3 -5 -3.15 -0.03
 -9 3 5 -3.15 -0.03
 -5 9 3 -3.15 -0.04
 -3 5 9 -3.15 -0.05
 -9 -3 5 -3.15 0.00
 -9 3 -5 -3.15 0.02
 -3 5 -9 -3.15 0.03
 -5 9 -3 -3.15 0.03
 -9 -4 -5 2.00 0.02
 -9 4 5 2.00 0.02
 -5 9 4 2.00 0.02
 -4 5 9 1.99 0.06
 -4 5 -9 2.00 -0.02
 -5 9 -4 2.00 0.00
 -9 -4 5 2.00 -0.01
 -9 -6 -5 2.93 0.00
 -5 9 6 2.93 0.01
 -9 6 5 2.93 0.01
 -6 5 9 2.93 -0.01
 -6 5 -9 2.93 0.02
 -9 6 -5 2.94 0.00
 -5 9 -6 2.93 0.00
 -9 -6 5 2.93 -0.01
 -9 -7 -5 1.89 0.00
 -5 9 7 1.89 0.02
 -7 -5 -9 1.89 0.02
 -7 5 9 1.89 0.01
 -5 9 -7 1.89 0.00
 -9 7 -5 1.89 0.02
 -7 5 -9 1.89 0.00
 -5 9 8 -2.99 0.00
 -8 -5 -9 -2.99 0.00
 -8 5 9 -3.00 -0.02
 -8 5 -9 -2.99 0.02
 -5 9 -8 -3.00 0.00
 -9 8 -5 -3.00 -0.01
 -9 0 6 -12.15 -0.01
 -9 0 -6 -12.14 0.01
 -6 9 0 -12.14 -0.01
 0 6 -9 -12.14 -0.01
 -9 1 6 9.33 0.01
 6 9 -1 9.33 0.00
 -6 9 1 9.33 -0.01
 1 6 -9 9.33 -0.02
 -9 -1 -6 9.33 0.00
 -6 9 -1 9.33 0.00
 -1 6 -9 9.33 0.00
 -9 1 -6 9.33 -0.01
 -9 -1 6 9.33 0.00
 -9 2 6 -7.42 0.00
 -6 9 2 -7.41 -0.02
 -9 -2 -6 -7.41 0.02
 -9 2 -6 -7.41 0.00
 -2 6 -9 -7.41 -0.01
 -6 9 -2 -7.41 0.01
 -9 -2 6 -7.42 0.02
 -9 3 6 5.77 -0.01
 -9 -3 -6 5.77 0.00
 -6 9 3 5.76 0.02
 -3 6 9 5.77 0.00
 -9 3 -6 5.76 0.01
 -3 6 -9 5.77 0.01
 -6 9 -3 5.76 0.01
 -6 9 4 -4.69 0.00
 -9 4 6 -4.69 0.00
 -9 -4 -6 -4.69 -0.01
 -4 6 9 -4.70 0.01
 -6 9 -4 -4.69 -0.01
 -9 -4 6 -4.69 0.02
 -4 6 -9 -4.69 0.01
 -9 4 -6 -4.69 0.01
 -6 9 5 2.93 -0.01
 -5 6 9 2.93 0.01
 -9 5 6 2.94 0.01
 -9 -5 -6 2.93 0.00
 -9 -5 6 2.93 0.00
 -6 9 -5 2.93 0.01
 -9 5 -6 2.93 -0.01
 -5 6 -9 2.93 0.01
 -7 6 9 3.57 0.00
 -6 9 7 3.57 0.01
 -9 7 6 3.57 0.01
 -9 -7 -6 3.57 0.00
 -7 -6 9 3.57 0.00
 -6 9 -7 3.57 0.00
 -9 7 -6 3.57 -0.01
 -7 6 -9 3.57 0.01
 -8 6 9 -3.32 -0.01
 -8 -6 -9 -3.32 0.01
 -6 9 -8 -3.32 -0.03
 -9 8 -6 -3.32 -0.02
 -8 6 -9 -3.32 0.02
 -7 9 0 -2.92 -0.05
 0 7 -9 -2.92 0.03
 -9 0 -7 -2.92 -0.06
 -9 0 7 -2.92 0.01
 -9 1 7 1.93 0.03
 -9 -1 -7 1.93 -0.03
 1 7 -9 1.93 0.00
 -7 9 1 1.93 0.00
 -9 1 -7 1.93 0.02
 -1 7 -9 1.93 0.01
 -7 9 -1 1.93 0.04
 -9 -1 7 1.93 0.03
 -9 -2 -7 -0.22 -0.02
 -7 9 2 -0.22 -0.02
 -9 2 7 -0.22 0.02
 -2 7 9 -0.23 0.02
 -7 9 -2 -0.22 -0.02
 -2 7 -9 -0.22 0.00
 -9 2 -7 -0.22 -0.01
 -9 -2 7 -0.22 -0.01
 -7 9 3 1.71 0.02
 -9 -3 -7 1.71 0.01
 -9 3 7 1.71 -0.02
 -9 -3 7 1.71 -0.01
 -7 9 -3 1.71 0.03
 -3 7 -9 1.71 -0.01
 -4 7 9 3.49 -0.01
 -7 9 4 3.50 0.01
 -9 -4 -7 3.50 0.01
 -9 4 7 3.50 -0.01
 -9 -4 7 3.50 -0.01
 -7 9 -4 3.50 0.00
 -4 7 -9 3.50 0.00
 -9 4 -7 3.50 0.00
 -7 9 5 -1.89 -0.01
 -9 -5 -7 -1.89 0.00
 -9 5 7 -1.89 -0.01
 -7 9 -5 -1.89 0.00
 -9 5 -7 -1.89 0.01
 -5 7 -9 -1.89 0.01
 -9 -5 7 -1.89 -0.02
 -9 6 7 3.57 0.01
 -9 -6 -7 3.57 0.00
 -6 7 -9 3.57 -0.01
 -9 6 -7 3.57 0.00
 -6 -7 9 3.57 0.00
 -7 9 -6 3.57 0.00
 -9 8 7 0.17 0.02
 -8 7 9 0.17 0.01
 -7 9 -8 0.17 0.00
 -8 7 -9 0.17 0.00
 -9 8 -7 0.17 0.00
 -8 9 0 3.56 0.00
 -9 0 8 3.55 -0.06
 -9 0 -8 3.56 0.03
 0 8 -9 3.56 -0.03
 1 8 -9 -6.15 -0.01
 -9 -1 -8 -6.15 -0.05
 -8 9 1 -6.16 -0.02
 -1 8 9 -6.15 -0.01
 -9 1 8 -6.15 -0.01
 -9 -1 8 -6.15 0.00
 -8 9 -1 -6.16 -0.02
 -9 1 -8 -6.15 0.01
 -1 8 -9 -6.15 0.01
 -9 2 8 1.86 -0.01
 -9 -2 -8 1.86 0.03
 -8 9 2 1.87 0.02
 -2 8 9 1.86 0.03
 2 8 -9 1.87 -0.02
 -2 8 -9 1.87 -0.02
 -8 9 -2 1.87 0.00
 -9 2 -8 1.87 0.01
 -9 -2 8 1.86 -0.01
 -3 8 9 -4.78 0.02
 -9 -3 -8 -4.78 0.02
 -8 9 3 -4.78 0.01
 -9 3 8 -4.78 0.00
 -3 8 -9 -4.78 -0.02
 -8 9 -3 -4.78 0.02
 -9 -3 8 -4.78 0.01
 -8 9 4 4.98 -0.01
 -9 4 8 4.98 0.01
 -9 -4 -8 4.97 0.00
 -4 8 -9 4.98 0.01
 -8 9 -4 4.98 0.00
 -9 4 -8 4.97 0.00
 -9 -5 -8 -3.00 0.01
 -9 5 8 -2.99 -0.01
 -5 8 9 -2.99 0.00
 -8 9 5 -3.00 -0.02
 -5 8 -9 -3.00 0.00
 -8 9 -5 -3.00 0.01
 -9 5 -8 -3.00 0.01
 -9 -5 8 -3.00 -0.01
 -9 -6 -8 3.32 -0.01
 -9 6 8 3.32 0.00
 -8 9 -6 3.32 0.01
 -6 8 -9 3.32 0.00
 -9 6 -8 3.32 0.01
 -9 -7 -8 0.17 -0.01
 -9 7 8 0.17 0.02
 -7 8 -9 0.17 0.03
 -9 7 -8 0.17 0.00
 -8 9 -7 0.17 0.02
 -9 0 -9 0.19 0.02
 -9 0 9 0.19 0.05
 -9 9 0 0.19 0.05
 0 9 -9 0.19 0.00
 0 9 9 0.19 0.04
 -9 -2 -9 -1.25 0.00
 2 9 -9 -1.25 0.00
 -9 2 9 -1.25 0.01
 -2 9 9 -1.26 0.00
 -9 9 2 -1.25 0.01
 -2 9 -9 -1.25 0.00
 -9 9 -2 -1.25 0.02
 -9 -4 -9 1.60 -0.01
 -4 9 9 1.60 -0.03
 -9 4 9 1.60 -0.01
 -9 9 -4 1.60 -0.02
 -9 4 -9 1.60 -0.01
 -4 9 -9 1.61 0.02
 -9 -4 9 1.60 -0.02
 -9 -6 -9 -2.57 0.00
 -9 9 6 -2.58 0.01
 -9 6 9 -2.58 0.01
 -6 9 9 -2.58 0.00
 -9 6 -9 -2.58 -0.01
 -6 9 -9 -2.58 0.02
 -9 9 -6 -2.57 -0.01
 -9 9 8 -1.60 -0.02
 -9 8 9 -1.60 -0.02
 -8 9 9 -1.61 0.00
 -9 8 -9 -1.60 0.00
 -8 9 -9 -1.61 -0.02
 -9 9 -8 -1.60 -0.02
 -10 0 0 27.71 0.01
 0 10 0 27.71 0.00
 0 10 1 3.28 0.01
 0 10 -1 3.28 0.01
 -10 1 0 3.28 0.01
 -10 -1 0 3.28 0.01
 -10 -2 0 14.36 0.00
 -10 2 0 14.36 0.01
 0 10 2 14.36 -0.01
 0 10 -2 14.36 -0.01
 -10 -3 0 6.07 -0.02
 0 10 -3 6.07 0.01
 0 10 3 6.06 0.02
 -3 0 -10 6.06 0.02
 -10 3 0 6.07 0.00
 -4 0 -10 11.89 0.00
 0 10 4 11.89 -0.02
 -10 4 0 11.89 0.00
 0 10 -4 11.89 -0.02
 -5 0 10 1.01 -0.03
 -5 0 -10 1.01 0.01
 0 10 5 1.01 -0.03
 -10 5 0 1.02 -0.03
 0 10 -5 1.01 -0.01
 -10 -6 0 1.31 0.01
 0 10 6 1.31 -0.02
 -6 0 10 1.32 0.02
 0 10 -6 1.31 0.00
 0 10 -7 2.84 0.01
 -7 0 10 2.84 0.05
 -10 -7 0 2.84 0.03
 0 10 7 2.84 0.00
 0 10 -8 9.22 0.01
 -10 -8 0 9.22 0.02
 -8 0 10 9.23 0.02
 0 10 8 9.22 -0.04
 0 10 9 5.21 0.04
 -9 0 10 5.22 0.00
 -10 9 0 5.22 0.02
 0 10 -9 5.22 0.02
 -1 10 0 -3.28 -0.02
 -10 0 -1 -3.28 -0.01
 -10 0 1 -3.27 -0.01
 1 10 0 -3.27 0.00
 -1 10 1 -13.87 -0.01
 -10 -1 -1 -13.87 0.02
 1 10 -1 -13.87 0.00
 -10 1 1 -13.87 0.00
 1 10 1 -13.87 0.03
 -1 10 -1 -13.87 0.03
 -10 -1 1 -13.87 0.00
 -10 1 -1 -13.87 0.00
 -10 -2 -1 -11.24 0.02
 -1 10 2 -11.24 0.04
 -10 2 1 -11.24 0.02
 1 10 -2 -11.24 0.06
 -2 1 -10 -11.24 -0.02
 -10 -2 1 -11.24 -0.02
 -10 2 -1 -11.24 -0.02
 1 10 2 -11.24 -0.06
 -1 10 -2 -11.24 -0.05
 -10 3 1 -7.48 0.01
 -3 -1 -10 -7.48 0.04
 -10 -3 -1 -7.48 0.02
 1 10 -3 -7.48 0.00
 -1 10 3 -7.48 0.01
 1 10 3 -7.48 -0.01
 -10 -3 1 -7.48 -0.01
 -1 10 -3 -7.48 0.00
 -10 3 -1 -7.48 -0.01
 -3 1 -10 -7.48 -0.02
 -4 -1 -10 -5.28 0.06
 1 10 -4 -5.28 0.04
 -10 -4 -1 -5.28 0.03
 -1 10 4 -5.28 0.04
 -10 4 1 -5.28 0.01
 -10 4 -1 -5.28 -0.01
 -4 1 -10 -5.28 -0.02
 -1 10 -4 -5.28 -0.02
 1 10 4 -5.28 -0.05
 -10 5 1 -6.54 -0.02
 -5 -1 -10 -6.54 0.00
 -1 10 5 -6.54 -0.02
 -5 1 10 -6.54 -0.03
 1 10 -5 -6.54 -0.02
 -10 -5 -1 -6.54 -0.02
 1 10 5 -6.54 0.00
 -10 5 -1 -6.54 -0.01
 -1 10 -5 -6.54 -0.01
 -5 1 -10 -6.54 0.00
 -5 -1 10 -6.54 0.00
 -10 -5 1 -6.54 0.01
 -10 6 1 -10.69 0.00
 1 10 -6 -10.68 -0.02
 -1 10 6 -10.68 0.00
 -6 1 10 -10.68 -0.04
 -6 1 -10 -10.69 0.00
 -6 -1 10 -10.68 -0.02
 1 10 6 -10.68 0.03
 -10 -6 1 -10.69 -0.02
 -1 10 -6 -10.68 0.02
 -1 10 7 -5.27 -0.01
 -7 1 10 -5.27 -0.01
 1 10 -7 -5.27 0.00
 -7 -1 10 -5.27 -0.01
 -10 -7 1 -5.27 -0.01
 -7 1 -10 -5.27 -0.01
 1 10 7 -5.27 0.00
 -1 10 -7 -5.27 -0.03
 -8 1 10 -1.42 -0.03
 -1 10 8 -1.43 0.01
 -8 -1 -10 -1.43 0.01
 1 10 -8 -1.43 -0.01
 -10 8 -1 -1.43 0.00
 -10 -8 1 -1.43 -0.02
 1 10 8 -1.43 0.00
 -8 -1 10 -1.42 -0.01
 -1 10 -8 -1.43 -0.02
 -9 -1 -10 -4.28 0.00
 -10 9 1 -4.28 0.01
 -9 1 10 -4.28 -0.01
 1 10 -9 -4.28 0.00
 -1 10 9 -4.28 0.01
 -1 10 -9 -4.28 0.00
 -10 9 -1 -4.28 -0.02
 -10 0 -2 14.36 0.00
 2 10 0 14.36 0.00
 -2 10 0 14.36 -0.01
 -10 0 2 14.36 0.01
 -2 10 1 11.24 -0.01
 -10 1 2 11.24 -0.02
 2 10 -1 11.24 -0.02
 -10 -1 -2 11.24 -0.02
 -10 -1 2 11.24 0.02
 -1 2 -10 11.24 0.06
 -2 10 -1 11.24 0.03
 -10 1 -2 11.24 0.02
 2 10 1 11.25 0.05
 -2 10 2 6.02 -0.02
 -10 -2 -2 6.02 -0.03
 2 10 -2 6.01 -0.02
 -10 2 2 6.02 0.00
 2 10 2 6.01 0.05
 -10 2 -2 6.02 0.03
 -10 -2 2 6.02 0.03
 -2 10 -2 6.02 0.03
 -2 2 -10 6.01 0.02
 -10 3 2 9.70 -0.01
 -10 -3 -2 9.70 -0.02
 -2 10 3 9.69 0.01
 2 10 -3 9.70 0.00
 2 10 3 9.70 0.00
 -3 2 -10 9.69 0.01
 -10 3 -2 9.70 0.00
 -2 10 -3 9.69 0.02
 -10 4 2 4.97 -0.01
 -2 10 4 4.97 -0.03
 -4 -2 -10 4.97 -0.03
 -10 -4 -2 4.97 -0.05
 2 10 -4 4.97 -0.03
 -2 10 -4 4.97 0.00
 -10 -4 2 4.97 0.01
 -10 4 -2 4.97 0.02
 -4 2 -10 4.97 0.04
 2 10 4 4.97 0.03
 -10 5 2 4.12 -0.02
 -5 2 10 4.11 -0.05
 -2 10 5 4.11 -0.05
 -5 -2 -10 4.11 -0.05
 -10 -5 -2 4.11 -0.02
 2 10 -5 4.11 -0.04
 -10 5 -2 4.11 0.01
 -10 -5 2 4.11 0.01
 -5 2 -10 4.11 0.03
 -2 10 -5 4.11 0.05
 2 10 5 4.12 0.05
 -6 -2 -10 -0.76 -0.03
 -10 -6 -2 -0.76 0.00
 -2 10 6 -0.76 -0.02
 2 10 -6 -0.76 0.00
 -10 6 2 -0.76 0.01
 -6 2 10 -0.76 0.02
 -10 -6 2 -0.76 0.02
 -6 2 -10 -0.76 -0.02
 -2 10 -6 -0.76 0.01
 2 10 6 -0.76 -0.02
 -6 -2 10 -0.76 0.01
 -2 10 7 3.65 -0.03
 2 10 -7 3.65 0.02
 -7 2 10 3.65 0.00
 -10 -7 -2 3.65 0.03
 -7 -2 -10 3.65 -0.04
 -7 2 -10 3.65 0.00
 -2 10 -7 3.66 -0.01
 -7 -2 10 3.65 0.02
 -10 -7 2 3.65 -0.02
 -8 -2 -10 9.11 -0.01
 -10 -8 -2 9.11 0.00
 -2 10 8 9.11 -0.01
 2 10 -8 9.11 0.01
 -8 2 10 9.11 0.02
 -2 10 -8 9.11 0.02
 -10 8 -2 9.11 0.01
 -8 -2 10 9.11 0.00
 -8 2 -10 9.11 -0.03
 -10 9 2 4.28 0.01
 -9 2 10 4.28 0.00
 -9 -2 -10 4.28 -0.01
 2 10 -9 4.28 0.00
 -2 10 9 4.27 0.01
 -10 9 -2 4.28 0.00
 -9 -2 10 4.28 0.01
 -2 10 -9 4.28 0.00
 -10 0 -3 -6.07 0.02
 -3 10 0 -6.06 0.00
 3 10 0 -6.06 0.02
 -10 0 3 -6.07 0.00
 -10 1 3 -7.48 0.01
 -10 -1 -3 -7.48 0.02
 -3 10 1 -7.48 0.02
 3 10 -1 -7.48 0.02
 3 10 1 -7.48 -0.03
 -10 -1 3 -7.48 -0.01
 -1 3 -10 -7.48 0.00
 -3 10 -1 -7.48 -0.02
 -10 1 -3 -7.48 -0.01
 -3 10 2 -9.69 0.00
 -10 2 3 -9.70 0.01
 -10 -2 -3 -9.70 0.02
 3 10 -2 -9.69 0.01
 -10 -2 3 -9.70 0.00
 3 10 2 -9.69 0.01
 -2 3 -10 -9.70 0.00
 -10 2 -3 -9.70 0.00
 -3 10 -2 -9.69 0.02
 3 10 -3 -2.16 0.13
 -3 10 3 -2.16 0.15
 -10 -3 -3 -2.16 0.10
 -10 3 3 -2.16 0.02
 3 10 3 -2.16 -0.19
 -10 3 -3 -2.16 -0.03
 -3 3 -10 -2.16 -0.13
 -10 -3 3 -2.16 -0.03
 -3 10 -3 -2.16 -0.11
 -3 10 4 -5.94 -0.02
 3 10 -4 -5.94 -0.02
 -4 3 10 -5.94 -0.02
 -10 -4 -3 -5.94 0.00
 -10 4 3 -5.95 -0.01
 -4 3 -10 -5.94 0.01
 -10 4 -3 -5.94 -0.02
 -3 10 -4 -5.94 -0.01
 3 10 4 -5.94 0.01
 -10 -4 3 -5.94 -0.02
 -5 -3 -10 -3.58 0.02
 -10 -5 -3 -3.58 0.03
 -5 3 10 -3.58 0.02
 -3 10 5 -3.58 0.00
 -10 5 3 -3.58 -0.01
 3 10 -5 -3.58 0.00
 -10 -5 3 -3.58 0.00
 -5 3 -10 -3.58 -0.02
 -3 10 -5 -3.58 0.00
 -10 -6 -3 -8.18 0.01
 3 10 -6 -8.17 0.00
 -3 10 6 -8.18 -0.02
 -6 3 10 -8.17 0.01
 -10 6 3 -8.18 -0.01
 -6 -3 -10 -8.18 -0.01
 -10 -6 3 -8.18 0.02
 -6 -3 10 -8.17 0.00
 -6 3 -10 -8.17 -0.03
 -3 10 -6 -8.18 0.01
 -10 -7 -3 -6.16 -0.02
 -7 -3 -10 -6.16 0.00
 -3 10 7 -6.16 -0.01
 -7 3 10 -6.16 -0.04
 3 10 -7 -6.16 -0.02
 -10 7 -3 -6.16 -0.01
 -3 10 -7 -6.16 -0.03
 -7 3 -10 -6.16 0.03
 -7 -3 10 -6.16 0.00
 -8 3 10 -2.53 0.01
 -10 -8 -3 -2.54 0.01
 -8 -3 -10 -2.54 0.00
 -3 10 8 -2.54 0.00
 -8 3 -10 -2.54 -0.01
 -10 8 -3 -2.54 0.00
 -8 -3 10 -2.53 0.01
 -3 10 -8 -2.54 0.00
 -9 -3 -10 -4.36 0.01
 -10 9 3 -4.36 -0.02
 -3 10 9 -4.35 0.02
 -9 3 10 -4.36 0.04
 -3 10 -9 -4.36 -0.01
 -9 -3 10 -4.35 -0.01
 -9 3 -10 -4.35 -0.01
 -10 9 -3 -4.36 0.03
 -10 0 4 11.89 0.00
 -4 10 0 11.89 -0.01
 0 4 -10 11.89 0.02
 -10 0 -4 11.90 -0.01
 4 10 0 11.89 0.00
 4 10 -1 5.28 -0.02
 -10 -1 -4 5.28 -0.03
 -4 10 1 5.28 -0.04
 -10 1 4 5.28 -0.01
 -1 4 -10 5.28 0.04
 -4 10 -1 5.27 0.05
 -10 -1 4 5.28 0.01
 -10 1 -4 5.28 0.01
 4 10 1 5.28 0.06
 -10 -2 -4 4.97 -0.05
 -4 10 2 4.97 -0.02
 4 10 -2 4.97 -0.04
 -10 2 4 4.97 -0.01
 -10 -2 4 4.97 0.02
 -10 2 -4 4.97 0.01
 4 10 2 4.97 0.03
 -2 4 -10 4.97 0.03
 -4 10 -2 4.97 0.00
 -4 10 3 5.94 0.02
 -10 -3 -4 5.94 0.00
 -10 3 4 5.95 0.01
 -3 4 -10 5.94 -0.02
 -10 -3 4 5.94 0.02
 -4 10 -3 5.94 0.01
 -10 3 -4 5.94 0.02
 4 10 3 5.94 0.02
 -4 10 4 0.90 -0.04
 -10 4 4 0.90 -0.03
 -4 4 10 0.90 -0.04
 -10 -4 -4 0.90 -0.05
 -4 10 -4 0.90 0.01
 -10 4 -4 0.90 -0.01
 -4 4 -10 0.89 0.02
 -10 -4 4 0.90 -0.01
 -4 10 5 6.01 -0.06
 -5 4 10 6.01 -0.05
 -10 -5 -4 6.01 -0.03
 -10 5 4 6.01 -0.01
 -5 4 -10 6.01 0.02
 -10 -5 4 6.01 0.01
 -4 10 -5 6.01 0.03
 -4 10 6 -0.87 -0.01
 -10 6 4 -0.87 0.00
 -6 4 10 -0.87 -0.03
 -10 -6 -4 -0.88 0.00
 -6 -4 -10 -0.88 -0.01
 -4 10 -6 -0.88 0.00
 -10 -6 4 -0.87 -0.02
 -6 -4 10 -0.87 -0.01
 -10 6 -4 -0.87 -0.01
 -6 4 -10 -0.88 -0.01
 -7 -4 -10 4.74 0.01
 -4 10 7 4.73 0.00
 -10 -7 -4 4.74 -0.03
 -7 4 10 4.74 -0.01
 -7 -4 10 4.74 0.00
 -7 4 -10 4.74 -0.01
 -4 10 -7 4.74 0.00
 -10 7 -4 4.74 -0.01
 -8 4 10 4.32 -0.02
 -4 10 8 4.32 0.01
 -8 -4 -10 4.32 -0.01
 -10 -8 -4 4.32 0.01
 -8 4 -10 4.32 0.01
 -10 8 -4 4.32 -0.01
 -4 10 -8 4.32 -0.01
 -8 -4 10 4.32 0.02
 -4 10 9 7.29 -0.01
 -10 9 4 7.29 0.00
 -9 4 10 7.29 0.00
 -9 -4 -10 7.29 0.02
 -9 4 -10 7.30 -0.01
 -4 10 -9 7.30 0.01
 -9 -4 10 7.29 -0.02
 -10 9 -4 7.30 0.00
 -5 10 0 -1.01 0.03
 5 10 0 -1.01 0.01
 -10 0 -5 -1.01 0.01
 -10 0 5 -1.02 0.03
 0 5 -10 -1.01 -0.01
 5 10 -1 -6.54 0.00
 -5 10 1 -6.54 -0.03
 -10 1 5 -6.54 -0.02
 -10 -1 -5 -6.54 -0.02
 -10 -1 5 -6.54 -0.01
 -10 1 -5 -6.54 0.01
 5 10 1 -6.54 -0.01
 -1 5 -10 -6.54 0.02
 -5 10 -1 -6.54 0.00
 -10 -2 -5 -4.11 0.02
 -10 2 5 -4.12 0.02
 -5 10 2 -4.11 0.05
 -10 -2 5 -4.11 -0.01
 -5 10 -2 -4.11 -0.03
 -2 5 -10 -4.11 -0.04
 -10 2 -5 -4.11 -0.01
 -10 -3 -5 -3.58 0.03
 -5 10 3 -3.58 0.02
 -3 5 10 -3.58 0.00
 -10 3 5 -3.58 -0.01
 -3 5 -10 -3.58 0.00
 -5 10 -3 -3.58 -0.02
 -10 3 -5 -3.58 0.00
 -5 10 4 -6.01 0.05
 -10 -4 -5 -6.01 0.03
 -4 5 10 -6.01 0.06
 -10 4 5 -6.01 0.01
 -4 5 -10 -6.01 -0.04
 -5 10 -4 -6.01 -0.03
 -5 10 5 -0.26 -0.03
 -10 -5 -5 -0.26 0.02
 -5 5 10 -0.26 -0.03
 -10 5 5 -0.26 -0.01
 -5 5 -10 -0.26 0.01
 -5 10 -5 -0.26 0.02
 -10 -5 5 -0.26 0.00
 -6 5 10 -8.21 0.00
 -10 6 5 -8.21 0.02
 -5 10 6 -8.21 -0.01
 -10 -6 -5 -8.21 0.04
 -10 6 -5 -8.22 -0.01
 -6 5 -10 -8.21 -0.01
 -6 -5 10 -8.21 -0.01
 -5 10 -6 -8.21 0.00
 -10 -6 5 -8.22 0.02
 -7 5 10 -4.76 0.02
 -7 -5 -10 -4.76 0.00
 -10 -7 -5 -4.76 0.00
 -5 10 7 -4.76 0.00
 -10 7 5 -4.76 -0.01
 -7 5 -10 -4.76 -0.01
 -5 10 -7 -4.76 0.00
 -7 -5 10 -4.76 0.00
 -10 7 -5 -4.77 0.02
 -8 5 10 -4.36 0.02
 -10 -8 -5 -4.36 0.00
 -5 10 8 -4.36 -0.01
 -8 -5 -10 -4.36 -0.03
 -8 -5 10 -4.36 -0.01
 -8 5 -10 -4.36 -0.02
 -10 8 -5 -4.36 -0.01
 -5 10 -8 -4.36 0.02
 -10 9 5 -1.90 -0.01
 -9 5 10 -1.90 0.00
 -5 10 9 -1.90 0.01
 -9 -5 -10 -1.90 0.00
 -5 10 -9 -1.90 -0.02
 -10 9 -5 -1.90 0.00
 -9 5 -10 -1.90 0.02
 -9 -5 10 -1.90 0.01
 -10 0 -6 1.31 0.01
 0 6 -10 1.31 0.00
 -10 0 6 1.32 0.00
 6 10 0 1.31 0.02
 -6 10 0 1.32 0.02
 -10 -1 -6 10.69 0.01
 -10 1 6 10.69 0.00
 -6 10 1 10.68 0.04
 6 10 -1 10.69 0.00
 1 6 -10 10.68 0.02
 -6 10 -1 10.68 0.02
 -1 6 -10 10.68 -0.02
 -10 1 -6 10.69 0.02
 -10 -1 6 10.69 0.01
 -6 10 2 -0.76 0.02
 -10 -2 -6 -0.76 0.00
 -10 2 6 -0.76 0.01
 -2 6 -10 -0.76 0.00
 -6 10 -2 -0.76 0.01
 -10 -2 6 -0.76 -0.01
 -10 2 -6 -0.76 0.02
 -10 3 6 8.18 0.01
 -10 -3 -6 8.17 -0.01
 -3 6 10 8.18 0.02
 -6 10 3 8.17 -0.01
 -6 10 -3 8.17 0.00
 -10 -3 6 8.18 0.00
 -10 3 -6 8.18 -0.02
 -3 6 -10 8.17 0.00
 -10 4 6 -0.87 0.01
 -6 10 4 -0.87 -0.03
 -4 6 10 -0.87 -0.01
 -10 -4 -6 -0.88 0.00
 -6 10 -4 -0.87 -0.01
 -10 -4 6 -0.87 -0.01
 -10 4 -6 -0.87 -0.02
 -4 6 -10 -0.88 -0.03
 -6 10 5 8.21 0.00
 -10 -5 -6 8.21 -0.04
 -5 6 10 8.21 0.01
 -10 5 6 8.21 -0.02
 -5 6 -10 8.21 0.00
 -10 5 -6 8.22 -0.02
 -6 10 -5 8.21 0.01
 -10 -5 6 8.22 0.01
 -6 6 10 1.23 -0.02
 -6 10 6 1.23 -0.02
 -10 6 6 1.22 -0.02
 -10 -6 -6 1.22 0.00
 -10 6 -6 1.23 0.00
 -6 10 -6 1.22 -0.01
 -6 6 -10 1.22 0.00
 -6 -6 10 1.22 -0.01
 -6 10 7 2.02 0.00
 -7 6 10 2.02 0.01
 -10 -7 -6 2.02 -0.03
 -10 7 6 2.02 -0.01
 -7 6 -10 2.02 -0.01
 -6 10 -7 2.02 0.02
 -10 7 -6 2.02 0.01
 -8 6 10 4.25 0.03
 -6 10 8 4.25 0.01
 -10 8 6 4.25 -0.01
 -10 -8 -6 4.25 -0.02
 -8 6 -10 4.25 -0.02
 -6 10 -8 4.26 0.00
 -10 8 -6 4.26 0.02
 -9 -6 -10 5.00 -0.03
 -6 10 9 5.00 0.02
 -9 6 10 5.01 -0.01
 -10 9 6 5.01 0.01
 -9 6 -10 5.01 0.02
 -6 10 -9 5.00 0.00
 -10 9 -6 5.01 0.01
 -7 10 0 -2.84 -0.05
 -10 0 7 -2.84 -0.02
 -10 0 -7 -2.84 -0.03
 0 7 -10 -2.84 0.01
 7 10 -1 -5.27 0.01
 -10 -1 -7 -5.27 0.01
 1 7 -10 -5.27 0.03
 -7 10 1 -5.27 -0.01
 -10 1 7 -5.27 -0.01
 -7 10 -1 -5.27 -0.01
 -1 7 -10 -5.27 0.00
 -10 -1 7 -5.27 0.00
 -10 1 -7 -5.27 -0.01
 -7 10 2 -3.65 0.00
 -10 2 7 -3.65 0.00
 -10 -2 -7 -3.65 -0.03
 -7 10 -2 -3.65 -0.02
 -2 7 -10 -3.65 0.02
 -10 -2 7 -3.65 0.00
 -7 10 3 -6.16 -0.04
 -10 -3 -7 -6.16 -0.02
 -10 3 7 -6.16 -0.02
 -10 -3 7 -6.16 -0.01
 -7 10 -3 -6.16 0.00
 -3 7 -10 -6.16 0.02
 -10 -4 -7 -4.74 0.02
 -10 4 7 -4.74 0.00
 -7 10 4 -4.74 0.01
 -4 7 -10 -4.74 -0.02
 -7 10 -4 -4.74 0.00
 -10 5 7 -4.76 0.00
 -10 -5 -7 -4.76 0.00
 -7 10 5 -4.76 0.02
 -10 5 -7 -4.77 0.02
 -7 10 -5 -4.77 0.00
 -5 7 -10 -4.76 0.00
 -10 -5 7 -4.77 0.02
 -10 -6 -7 -2.02 0.03
 -10 6 7 -2.02 0.01
 -7 10 6 -2.02 -0.01
 -6 7 10 -2.02 0.00
 -6 7 -10 -2.02 -0.01
 -10 6 -7 -2.02 -0.01
 -7 10 -6 -2.02 0.00
 -10 -7 -7 -7.99 0.02
 -10 7 7 -7.99 -0.01
 -7 7 10 -7.99 -0.02
 -7 10 7 -7.99 -0.02
 -10 7 -7 -8.00 0.00
 -7 7 -10 -7.99 0.00
 -7 10 -7 -7.99 0.00
 -7 10 8 -1.45 0.01
 -8 7 10 -1.45 0.00
 -10 8 7 -1.45 -0.01
 -8 7 -10 -1.45 -0.01
 -10 8 -7 -1.46 0.01
 -7 10 -8 -1.45 -0.02
 -9 7 10 -1.70 -0.01
 -10 9 7 -1.70 0.01
 -7 10 9 -1.70 0.01
 -7 10 -9 -1.70 0.00
 -10 9 -7 -1.70 -0.01
 -9 7 -10 -1.70 0.01
 -8 10 0 9.23 0.02
 -10 0 -8 9.22 0.02
 0 8 -10 9.22 -0.01
 -10 0 8 9.22 -0.01
 -10 -1 -8 1.43 0.03
 -1 8 10 1.43 -0.01
 1 8 -10 1.43 -0.02
 -8 10 1 1.42 0.03
 -10 1 8 1.43 0.00
 -8 10 -1 1.42 0.01
 -1 8 -10 1.43 -0.01
 -10 1 -8 1.43 0.02
 -10 -1 8 1.43 0.00
 -8 10 2 9.11 0.02
 -10 -2 -8 9.11 0.00
 -2 8 10 9.11 -0.01
 -10 2 8 9.11 0.01
 -10 -2 8 9.11 0.01
 -8 10 -2 9.11 0.00
 -2 8 -10 9.11 -0.01
 -10 -3 -8 2.54 -0.01
 -8 10 3 2.53 -0.01
 -10 3 8 2.54 0.01
 -10 -3 8 2.54 0.00
 -8 10 -3 2.53 -0.02
 -3 8 -10 2.54 0.00
 -10 4 8 4.32 0.04
 -8 10 4 4.32 -0.02
 -10 -4 -8 4.32 0.01
 -4 8 -10 4.32 0.00
 -8 10 -4 4.32 0.02
 -10 -4 8 4.32 -0.01
 -10 -5 -8 4.36 0.00
 -8 10 5 4.36 -0.02
 -10 5 8 4.36 0.00
 -5 8 -10 4.36 -0.01
 -10 5 -8 4.36 -0.02
 -8 10 -5 4.36 0.01
 -10 -6 -8 4.25 -0.02
 -6 8 10 4.25 0.01
 -8 10 6 4.25 0.03
 -10 6 8 4.26 -0.01
 -8 10 -6 4.26 -0.02
 -10 6 -8 4.26 0.01
 -6 8 -10 4.25 -0.02
 -7 8 10 1.45 -0.01
 -8 10 7 1.45 0.00
 -10 -7 -8 1.45 0.00
 -10 7 8 1.45 0.01
 -10 7 -8 1.46 0.00
 -8 10 -7 1.45 0.00
 -7 8 -10 1.45 0.01
 -8 10 8 2.97 0.02
 -8 8 10 2.97 0.02
 -10 8 8 2.97 0.01
 -8 8 -10 2.97 -0.02
 -10 8 -8 2.97 0.01
 -8 10 -8 2.97 0.00
 -10 9 8 3.60 0.01
 -9 8 10 3.60 0.00
 -8 10 9 3.59 -0.01
 -9 8 -10 3.59 0.01
 -10 9 -8 3.60 -0.01
 -8 10 -9 3.59 0.01
 -10 0 9 -5.22 -0.02
 0 9 -10 -5.22 0.02
 -10 0 -9 -5.22 0.01
 -9 10 0 -5.22 0.00
 -10 -1 -9 -4.28 -0.01
 -10 1 9 -4.28 0.01
 -9 10 1 -4.28 -0.01
 -1 9 10 -4.28 0.01
 1 9 -10 -4.28 0.00
 -1 9 -10 -4.28 0.00
 -9 10 -1 -4.28 0.00
 -10 -1 9 -4.28 -0.02
 -10 2 9 -4.28 -0.01
 -2 9 10 -4.27 -0.01
 -9 10 2 -4.28 0.00
 -10 -2 -9 -4.28 -0.01
 -10 -2 9 -4.28 0.00
 -2 9 -10 -4.28 0.00
 -9 10 -2 -4.28 -0.01
 -10 2 -9 -4.28 0.00
 -3 9 10 -4.35 0.02
 -10 -3 -9 -4.35 -0.01
 -10 3 9 -4.36 -0.02
 -9 10 3 -4.36 0.04
 -10 3 -9 -4.36 0.02
 -3 9 -10 -4.36 -0.01
 -10 -3 9 -4.36 0.03
 -9 10 -3 -4.35 -0.01
 -4 9 10 -7.29 0.00
 -10 -4 -9 -7.29 0.03
 -10 4 9 -7.29 0.00
 -9 10 4 -7.29 0.00
 -10 4 -9 -7.29 -0.01
 -4 9 -10 -7.29 -0.02
 -9 10 -4 -7.29 0.02
 -10 -4 9 -7.30 0.00
 -5 9 10 -1.90 0.01
 -10 5 9 -1.90 -0.01
 -10 -5 -9 -1.90 0.01
 -9 10 5 -1.90 0.00
 -5 9 -10 -1.90 0.00
 -9 10 -5 -1.90 0.01
 -10 5 -9 -1.90 -0.01
 -10 6 9 -5.01 -0.01
 -9 10 6 -5.01 0.00
 -10 -6 -9 -5.00 0.00
 -6 9 10 -5.00 -0.02
 -10 6 -9 -5.01 0.01
 -9 10 -6 -5.00 -0.03
 -6 9 -10 -5.01 -0.02
 -10 -7 -9 -1.70 0.02
 -9 10 7 -1.70 -0.01
 -10 7 9 -1.70 0.01
 -7 9 10 -1.70 0.01
 -10 7 -9 -1.70 -0.01
 -9 10 -7 -1.70 0.02
 -7 9 -10 -1.70 0.00
 -9 10 8 -3.60 0.00
 -10 8 9 -3.60 -0.01
 -8 9 10 -3.59 0.01
 -9 10 -8 -3.60 0.00
 -8 9 -10 -3.59 0.00
 -10 8 -9 -3.60 0.01
 -9 9 10 -0.48 0.01
 -10 9 9 -0.48 -0.02
 -9 10 9 -0.48 0.01
 -10 9 -9 -0.48 0.02
 -9 10 -9 -0.47 0.00
 -9 9 -10 -0.48 0.00
 -10 0 -10 8.78 0.00
 -10 0 10 8.78 -0.02
 -10 10 0 8.78 -0.02
 0 10 -10 8.78 0.00
 0 10 10 8.78 -0.03
 -10 -2 -10 9.33 -0.01
 -2 10 10 9.33 0.02
 2 10 -10 9.33 -0.01
 -10 2 10 9.33 0.01
 -10 10 2 9.33 0.01
 -10 10 -2 9.33 0.02
 -2 10 -10 9.33 0.01
 -10 -2 10 9.33 0.02
 -10 -4 -10 6.96 0.00
 -4 10 10 6.96 0.01
 -10 10 4 6.96 0.00
 -10 4 10 6.95 0.00
 -10 10 -4 6.96 0.02
 -10 4 -10 6.96 0.00
 -4 10 -10 6.95 -0.03
 -10 -4 10 6.96 0.02
 -10 -6 -10 5.68 -0.01
 -10 10 6 5.68 0.00
 -10 6 10 5.68 0.00
 -6 10 10 5.68 -0.02
 -10 6 -10 5.68 0.00
 -6 10 -10 5.67 0.00
 -10 10 -6 5.68 0.00
 -10 10 8 3.00 0.03
 -10 8 10 3.00 0.03
 -8 10 10 3.00 0.00
 -10 8 -10 3.00 -0.01
 -8 10 -10 3.00 0.02
 -10 10 -8 3.01 -0.01
 -10 10 10 1.50 -0.02
 -10 10 -10 1.51 -0.01
 0 11 1 -3.34 0.02
 -11 1 0 -3.34 0.01
 0 11 -1 -3.34 0.00
 -11 -1 0 -3.34 -0.01
 0 11 2 6.27 -0.01
 -11 2 0 6.27 0.00
 0 11 -2 6.27 -0.01
 -11 -2 0 6.27 -0.02
 -3 0 -11 -2.04 -0.06
 0 11 3 -2.03 0.03
 -11 -3 0 -2.03 -0.03
 -11 3 0 -2.03 0.04
 0 11 -3 -2.03 0.01
 -11 -4 0 4.89 -0.03
 0 11 4 4.89 0.02
 -4 0 -11 4.89 0.00
 0 11 -4 4.88 -0.01
 -11 4 0 4.89 0.04
 0 11 -5 -1.33 -0.01
 -11 5 0 -1.34 0.01
 -5 0 -11 -1.34 0.01
 -5 0 11 -1.34 0.01
 -11 -5 0 -1.34 -0.01
 0 11 5 -1.34 0.02
 -6 0 -11 5.90 0.01
 0 11 -6 5.89 -0.03
 0 11 6 5.90 -0.04
 -6 0 11 5.89 -0.02
 0 11 7 -2.13 0.03
 -7 0 11 -2.12 0.03
 0 11 -8 -1.78 -0.03
 0 11 8 -1.77 -0.08
 -8 0 11 -1.78 -0.04
 -11 -8 0 -1.78 0.00
 -11 9 0 -1.06 -0.02
 0 11 9 -1.06 -0.01
 -9 0 11 -1.06 -0.02
 0 11 -9 -1.05 0.00
 0 11 -10 -2.08 -0.04
 -10 0 -11 -2.07 0.00
 0 11 10 -2.07 -0.11
 -10 0 11 -2.08 -0.06
 -11 10 0 -2.07 -0.08
 -11 0 -1 -3.34 -0.01
 -1 11 0 -3.34 -0.01
 -11 0 1 -3.34 0.01
 1 11 0 -3.34 0.00
 -1 11 2 1.27 -0.01
 -11 2 1 1.28 -0.01
 -11 -2 -1 1.27 0.01
 1 11 -2 1.27 0.01
 -1 11 -2 1.27 -0.04
 -11 2 -1 1.28 -0.03
 1 11 2 1.27 -0.02
 -11 -2 1 1.27 0.01
 -2 1 -11 1.28 0.01
 -1 11 3 -3.49 -0.06
 -11 -3 -1 -3.49 0.00
 -11 3 1 -3.49 -0.04
 1 11 -3 -3.49 -0.04
 1 11 3 -3.49 0.02
 -11 3 -1 -3.49 0.02
 -3 1 -11 -3.49 -0.01
 -1 11 -3 -3.49 0.03
 -11 -3 1 -3.49 0.02
 -11 -4 -1 -0.93 0.03
 1 11 -4 -0.93 0.02
 -4 -1 -11 -0.92 0.04
 -1 11 4 -0.92 -0.02
 -11 4 1 -0.92 -0.02
 -1 11 -4 -0.93 0.01
 -11 4 -1 -0.92 -0.02
 -4 1 -11 -0.92 -0.01
 -11 -4 1 -0.93 0.03
 1 11 4 -0.93 -0.01
 -5 1 11 -1.80 0.02
 -11 5 1 -1.81 -0.01
 -5 -1 -11 -1.81 -0.01
 -11 -5 -1 -1.81 0.01
 -1 11 5 -1.80 0.02
 1 11 -5 -1.81 0.02
 -11 5 -1 -1.81 0.00
 -5 1 -11 -1.80 -0.02
 -1 11 -5 -1.80 -0.01
 1 11 5 -1.81 -0.02
 -1 11 6 3.69 0.02
 1 11 -6 3.70 0.02
 -6 1 11 3.69 0.00
 -11 -6 -1 3.70 -0.01
 -11 6 1 3.70 0.01
 -6 1 -11 3.70 0.01
 1 11 6 3.70 0.01
 -6 -1 11 3.69 -0.01
 -1 11 -6 3.69 0.03
 -11 -7 -1 1.56 -0.02
 1 11 -7 1.56 0.03
 -7 1 11 1.56 0.05
 -1 11 7 1.56 0.08
 -7 1 -11 1.56 0.00
 -1 11 -7 1.56 0.03
 -11 -7 1 1.56 0.03
 -7 -1 11 1.56 0.02
 1 11 7 1.56 0.02
 -11 -8 -1 -0.85 0.01
 -11 8 -1 -0.85 0.02
 -9 1 11 0.13 0.01
 -9 -1 -11 0.13 -0.02
 1 11 -9 0.12 -0.01
 -11 9 1 0.12 0.01
 -1 11 9 0.12 0.00
 -11 9 -1 0.13 -0.01
 -9 1 -11 0.12 0.01
 1 11 9 0.13 0.00
 -1 11 -9 0.13 0.00
 -9 -1 11 0.12 0.01
 -11 10 1 -3.80 0.04
 -10 1 11 -3.81 -0.01
 -10 -1 -11 -3.80 -0.01
 -1 11 10 -3.80 0.02
 1 11 -10 -3.80 0.01
 -11 10 -1 -3.80 -0.01
 -10 1 -11 -3.81 0.04
 -10 -1 11 -3.81 0.02
 1 11 10 -3.80 0.01
 -1 11 -10 -3.80 -0.01
 -11 0 -2 -6.27 0.02
 2 11 0 -6.27 -0.02
 -2 11 0 -6.27 0.01
 -11 0 2 -6.27 0.00
 2 11 -1 1.28 -0.01
 -2 11 1 1.27 0.03
 -11 1 2 1.27 -0.01
 -11 -1 -2 1.27 0.01
 -11 -1 2 1.27 -0.03
 -2 11 -1 1.27 0.00
 -11 1 -2 1.27 0.01
 2 11 1 1.28 -0.05
 -11 -3 -2 -0.19 -0.03
 2 11 -3 -0.18 -0.02
 -11 3 2 -0.19 0.01
 -2 11 3 -0.19 -0.01
 -11 3 -2 -0.19 0.00
 -2 11 -3 -0.19 0.02
 -11 -3 2 -0.19 0.00
 -3 2 -11 -0.19 0.01
 2 11 3 -0.18 0.03
 2 11 -4 1.92 -0.01
 -2 11 4 1.92 0.00
 -11 -4 -2 1.92 0.00
 -11 4 2 1.92 0.03
 -4 2 -11 1.93 -0.01
 -11 -4 2 1.92 -0.01
 -11 4 -2 1.92 0.00
 -2 11 -4 1.92 -0.01
 2 11 4 1.92 0.01
 -11 -5 -2 -0.43 0.03
 -2 11 5 -0.43 0.00
 -11 5 2 -0.43 0.01
 -5 2 11 -0.43 -0.03
 2 11 -5 -0.43 0.03
 2 11 5 -0.43 0.00
 -5 2 -11 -0.43 0.03
 -2 11 -5 -0.43 -0.03
 -6 2 11 1.89 -0.01
 -2 11 6 1.90 0.00
 -11 -6 -2 1.89 0.01
 -11 6 2 1.89 0.00
 2 11 -6 1.89 0.01
 -6 -2 -11 1.90 0.02
 -11 6 -2 1.90 0.00
 -11 -6 2 1.90 0.00
 -2 11 -6 1.89 -0.03
 -6 -2 11 1.89 0.02
 -6 2 -11 1.90 0.03
 2 11 6 1.89 -0.01
 -2 11 7 -0.48 0.00
 2 11 -7 -0.47 -0.01
 -7 2 11 -0.47 0.01
 -11 -7 -2 -0.47 0.01
 -7 2 -11 -0.47 0.02
 2 11 7 -0.47 0.00
 -7 -2 11 -0.47 0.00
 -2 11 -7 -0.47 -0.01
 -11 -7 2 -0.47 0.01
 -2 11 8 -2.48 0.00
 -11 8 2 -2.48 0.01
 -8 -2 -11 -2.48 0.04
 -11 -8 -2 -2.49 -0.01
 -8 2 11 -2.49 0.02
 -2 11 -8 -2.49 0.01
 -8 -2 11 -2.49 0.00
 -11 8 -2 -2.49 0.03
 2 11 8 -2.48 0.03
 -8 2 -11 -2.48 -0.01
 -9 2 11 -0.75 -0.01
 -2 11 9 -0.75 -0.07
 -11 -9 -2 -0.75 0.00
 -9 -2 -11 -0.75 0.02
 -11 9 2 -0.75 -0.07
 -2 11 -9 -0.75 0.00
 -9 2 -11 -0.75 -0.04
 -9 -2 11 -0.75 -0.05
 -11 9 -2 -0.75 -0.03
 -10 -2 -11 -3.61 0.02
 -10 2 11 -3.61 0.00
 -11 10 2 -3.61 0.01
 -2 11 10 -3.61 -0.01
 -2 11 -10 -3.61 0.01
 -11 10 -2 -3.61 0.02
 -10 -2 11 -3.61 0.00
 -10 2 -11 -3.61 0.02
 -11 0 3 -2.03 0.04
 -11 0 -3 -2.03 -0.03
 -3 11 0 -2.03 -0.01
 3 11 0 -2.04 0.06
 -11 -1 -3 3.49 0.00
 -11 1 3 3.49 0.04
 3 11 -1 3.49 -0.01
 -3 11 1 3.49 0.03
 -3 11 -1 3.49 -0.03
 -11 1 -3 3.49 -0.02
 -1 3 -11 3.49 -0.04
 3 11 1 3.49 -0.06
 -11 -1 3 3.49 -0.02
 -11 -2 -3 -0.19 -0.03
 -3 11 2 -0.19 -0.07
 3 11 -2 -0.19 -0.01
 -11 2 3 -0.19 0.01
 -3 11 -2 -0.19 0.04
 -11 -2 3 -0.19 0.00
 -11 2 -3 -0.19 0.00
 3 11 2 -0.19 0.09
 -2 3 -11 -0.18 0.02
 -3 11 4 1.06 -0.03
 -4 3 11 1.06 -0.03
 3 11 -4 1.06 -0.04
 -11 -4 -3 1.06 -0.02
 -11 4 3 1.06 0.01
 -11 4 -3 1.06 0.01
 -3 11 -4 1.06 0.04
 3 11 4 1.06 0.04
 -4 3 -11 1.06 0.03
 -11 -5 -3 -1.43 0.02
 -5 3 11 -1.43 0.05
 3 11 -5 -1.43 0.06
 -3 11 5 -1.43 0.06
 -11 5 3 -1.43 0.00
 -3 11 -5 -1.43 -0.02
 -11 -5 3 -1.43 0.00
 -11 5 -3 -1.43 -0.01
 -5 3 -11 -1.43 -0.03
 3 11 5 -1.43 -0.06
 -11 -6 -3 3.85 -0.03
 -6 3 11 3.85 0.02
 -6 -3 -11 3.85 0.02
 -11 6 3 3.85 0.01
 -3 11 6 3.85 0.00
 -3 11 -6 3.85 0.02
 -11 -6 3 3.85 0.02
 -6 3 -11 3.85 -0.02
 -6 -3 11 3.85 0.01
 3 11 6 3.85 0.02
 -11 -7 -3 2.42 -0.02
 -11 7 3 2.42 0.01
 -7 -3 -11 2.42 0.01
 -3 11 7 2.42 0.04
 -7 3 11 2.42 0.03
 -7 3 -11 2.42 -0.02
 -7 -3 11 2.42 -0.01
 -3 11 -7 2.42 0.04
 -8 3 11 0.62 0.02
 -8 -3 -11 0.63 0.01
 -11 -8 -3 0.62 -0.01
 -3 11 8 0.62 0.02
 -8 3 -11 0.62 -0.01
 -11 8 -3 0.62 0.00
 -3 11 -8 0.63 0.01
 -8 -3 11 0.62 -0.01
 -9 3 11 -0.73 -0.01
 -11 9 3 -0.73 0.00
 -3 11 9 -0.73 0.00
 -9 -3 -11 -0.73 -0.03
 -9 -3 11 -0.74 -0.01
 -3 11 -9 -0.73 -0.01
 -9 3 -11 -0.74 0.02
 -11 9 -3 -0.73 -0.03
 -10 -3 -11 -3.78 0.03
 -3 11 10 -3.78 -0.01
 -11 10 3 -3.78 0.00
 -10 3 11 -3.78 -0.02
 -3 11 -10 -3.78 0.00
 -10 3 -11 -3.78 0.01
 -11 10 -3 -3.78 -0.01
 -10 -3 11 -3.78 -0.03
 -11 0 4 -4.89 -0.04
 -11 0 -4 -4.89 0.03
 -4 11 0 -4.88 -0.01
 4 11 0 -4.89 0.00
 -11 1 4 -0.92 -0.02
 -4 11 1 -0.93 0.05
 4 11 -1 -0.92 0.00
 -11 -1 -4 -0.93 0.02
 4 11 1 -0.92 -0.04
 -4 11 -1 -0.93 -0.01
 -11 -1 4 -0.92 -0.03
 -11 1 -4 -0.93 0.03
 -1 4 -11 -0.93 -0.02
 -4 11 2 -1.92 -0.01
 -11 -2 -4 -1.92 0.00
 -11 2 4 -1.92 -0.03
 4 11 -2 -1.93 -0.01
 4 11 2 -1.93 -0.01
 -11 2 -4 -1.92 0.01
 -4 11 -2 -1.92 -0.01
 -11 -2 4 -1.92 0.00
 -2 4 -11 -1.92 -0.01
 -11 3 4 1.06 0.01
 -11 -3 -4 1.06 -0.02
 -4 11 3 1.06 -0.03
 -4 11 -3 1.06 0.03
 -11 3 -4 1.06 0.00
 -3 4 -11 1.06 0.03
 4 11 3 1.07 0.06
 -11 -3 4 1.06 0.01
 -11 -5 -4 -0.96 0.01
 -11 5 4 -0.96 0.00
 -5 4 11 -0.97 0.01
 -4 11 5 -0.97 0.02
 -5 4 -11 -0.96 -0.01
 -11 -5 4 -0.96 0.01
 -4 11 -5 -0.97 -0.02
 -11 -6 -4 -0.99 0.00
 -6 4 11 -1.00 -0.02
 -4 11 6 -0.99 0.00
 -11 6 4 -1.00 -0.01
 -11 -6 4 -0.99 -0.03
 -6 4 -11 -1.00 0.05
 -4 11 -6 -0.99 -0.04
 -6 -4 11 -1.00 0.02
 -7 -4 -11 2.30 0.00
 -7 4 11 2.30 0.02
 -11 7 4 2.30 0.00
 -11 -7 -4 2.30 0.01
 -4 11 7 2.30 0.02
 -7 4 -11 2.30 0.01
 -7 -4 11 2.30 0.00
 -11 7 -4 2.30 0.00
 -4 11 -7 2.30 0.02
 -11 -8 -4 -1.91 0.05
 -8 4 11 -1.92 -0.05
 -11 8 4 -1.92 -0.01
 -4 11 8 -1.91 -0.01
 -8 -4 -11 -1.91 -0.03
 -8 -4 11 -1.92 0.03
 -11 8 -4 -1.91 -0.03
 -8 4 -11 -1.92 0.04
 -4 11 -8 -1.92 -0.05
 -4 11 9 -0.26 -0.03
 -9 4 11 -0.26 -0.02
 -11 9 4 -0.26 0.00
 -11 -9 -4 -0.26 0.01
 -9 -4 -11 -0.26 -0.02
 -9 4 -11 -0.26 0.00
 -11 9 -4 -0.26 -0.01
 -4 11 -9 -0.26 0.03
 -9 -4 11 -0.26 0.00
 -11 10 4 -2.63 -0.02
 -10 4 11 -2.63 -0.04
 -4 11 10 -2.62 -0.05
 -10 -4 -11 -2.63 -0.01
 -4 11 -10 -2.63 -0.03
 -10 -4 11 -2.63 0.01
 -10 4 -11 -2.63 0.01
 -11 10 -4 -2.62 -0.04
 -5 11 0 -1.34 0.01
 -11 0 -5 -1.34 -0.01
 0 5 -11 -1.33 0.01
 5 11 0 -1.34 -0.01
 -11 0 5 -1.34 0.01
 -5 11 1 1.81 -0.01
 -11 1 5 1.80 0.01
 -11 -1 -5 1.80 -0.01
 5 11 -1 1.80 -0.02
 5 11 1 1.80 -0.01
 -1 5 -11 1.81 0.02
 -5 11 -1 1.80 -0.01
 -11 1 -5 1.81 -0.01
 -11 -1 5 1.81 0.00
 -11 -2 -5 -0.43 0.03
 -11 2 5 -0.43 0.01
 -5 11 2 -0.43 -0.03
 -11 2 -5 -0.43 -0.06
 5 11 2 -0.43 -0.02
 -2 5 -11 -0.43 -0.03
 -5 11 -2 -0.43 0.00
 -11 -2 5 -0.42 -0.03
 -3 5 11 1.43 -0.06
 -11 3 5 1.43 0.00
 -5 11 3 1.43 -0.04
 -11 -3 -5 1.43 -0.02
 -3 5 -11 1.43 0.06
 -11 -3 5 1.43 0.01
 -5 11 -3 1.43 0.03
 -11 3 -5 1.43 0.00
 5 11 3 1.43 0.03
 -4 5 11 -0.97 0.02
 -11 -4 -5 -0.96 0.01
 -5 11 4 -0.97 0.01
 -11 4 5 -0.96 0.00
 -5 11 -4 -0.96 -0.01
 -4 5 -11 -0.96 -0.01
 -5 11 6 -1.27 0.02
 -11 6 5 -1.27 0.01
 -11 -6 -5 -1.27 -0.03
 -6 5 11 -1.27 0.03
 -6 5 -11 -1.27 0.00
 -5 11 -6 -1.27 0.00
 -6 -5 11 -1.27 0.01
 -7 5 11 4.96 0.03
 -11 -7 -5 4.96 0.00
 -5 11 7 4.96 0.02
 -11 7 5 4.96 0.00
 -11 7 -5 4.96 0.03
 -7 5 -11 4.96 -0.02
 -5 11 -7 4.96 0.01
 -7 -5 11 4.96 -0.02
 -8 5 11 -1.49 0.00
 -5 11 8 -1.49 0.00
 -11 8 5 -1.49 0.01
 -11 -8 -5 -1.49 -0.01
 -8 -5 -11 -1.49 0.03
 -8 5 -11 -1.49 -0.01
 -5 11 -8 -1.49 0.01
 -8 -5 11 -1.50 -0.01
 -11 8 -5 -1.49 0.02
 -9 -5 -11 -1.82 0.01
 -5 11 9 -1.82 0.02
 -9 5 11 -1.81 0.01
 -11 9 5 -1.82 0.00
 -9 5 -11 -1.82 0.00
 -11 9 -5 -1.82 0.03
 -5 11 -9 -1.82 0.01
 -10 5 11 -3.93 0.03
 -5 11 10 -3.93 0.01
 -10 -5 -11 -3.93 0.03
 -11 10 5 -3.93 0.02
 -11 10 -5 -3.93 0.02
 -5 11 -10 -3.93 0.02
 -10 5 -11 -3.93 -0.02
 -11 0 -6 -5.89 0.00
 6 11 0 -5.90 0.01
 -6 11 0 -5.89 0.02
 0 6 -11 -5.89 -0.03
 -11 0 6 -5.89 0.02
 -6 11 1 3.69 0.00
 -11 -1 -6 3.69 0.00
 -11 1 6 3.69 0.01
 -1 6 -11 3.70 -0.02
 -11 -1 6 3.69 0.01
 -11 1 -6 3.69 0.02
 -6 11 -1 3.69 -0.01
 6 11 1 3.70 0.01
 -6 11 2 -1.89 0.01
 -11 -2 -6 -1.89 -0.01
 -11 2 6 -1.89 0.00
 -6 11 -2 -1.89 -0.02
 -11 -2 6 -1.90 0.00
 -2 6 -11 -1.89 0.01
 -11 2 -6 -1.90 0.00
 -11 3 6 3.85 0.01
 -6 11 3 3.84 0.02
 -11 -3 -6 3.85 -0.03
 -3 6 -11 3.85 0.00
 -6 11 -3 3.85 0.01
 -11 -3 6 3.85 0.03
 -11 -4 -6 1.00 0.00
 -4 6 11 0.99 0.00
 -11 4 6 1.00 0.01
 -6 11 4 1.00 0.02
 -6 11 -4 1.00 -0.02
 -4 6 -11 1.00 0.02
 -11 -4 6 0.99 0.01
 -11 -5 -6 -1.27 -0.03
 -6 11 5 -1.27 0.03
 -11 5 6 -1.27 0.01
 -5 6 11 -1.27 0.02
 -6 11 -5 -1.27 0.01
 -5 6 -11 -1.27 0.00
 -11 7 6 2.72 0.00
 -6 11 7 2.72 0.00
 -11 -7 -6 2.72 0.02
 -7 6 11 2.72 -0.02
 -7 6 -11 2.72 0.01
 -6 11 -7 2.72 -0.01
 -11 7 -6 2.72 -0.03
 -11 -8 -6 0.83 0.01
 -8 6 11 0.83 -0.02
 -11 8 6 0.83 -0.01
 -6 11 8 0.84 -0.02
 -6 11 -8 0.83 -0.01
 -11 8 -6 0.83 -0.02
 -8 6 -11 0.83 0.00
 -11 9 6 -1.18 -0.02
 -9 6 11 -1.18 -0.03
 -6 11 9 -1.19 -0.03
 -9 6 -11 -1.19 0.01
 -11 9 -6 -1.18 -0.04
 -6 11 -9 -1.18 -0.01
 -6 11 10 -0.08 -0.01
 -10 6 11 -0.09 0.01
 -11 10 6 -0.08 -0.01
 -10 -6 -11 -0.08 0.03
 -11 10 -6 -0.08 0.01
 -6 11 -10 -0.08 -0.01
 -10 6 -11 -0.08 -0.02
 -11 0 7 -2.12 0.02
 -11 0 -7 -2.12 0.01
 0 7 -11 -2.12 0.00
 -7 11 0 -2.12 0.03
 7 11 0 -2.12 -0.03
 -7 11 1 -1.56 -0.05
 -11 1 7 -1.56 -0.06
 -11 -1 -7 -1.56 0.02
 1 7 -11 -1.56 0.03
 -11 1 -7 -1.56 -0.03
 -7 11 -1 -1.56 -0.02
 -11 -1 7 -1.56 -0.05
 -1 7 -11 -1.56 0.03
 -11 -2 -7 -0.48 0.01
 -11 2 7 -0.47 -0.02
 -7 11 2 -0.47 0.01
 -11 2 -7 -0.47 0.01
 -11 -2 7 -0.47 0.00
 -7 11 -2 -0.47 0.00
 -2 7 -11 -0.47 0.01
 -11 -3 -7 -2.42 0.02
 -11 3 7 -2.42 -0.01
 -7 11 3 -2.42 -0.03
 -3 7 -11 -2.42 -0.01
 -11 -3 7 -2.42 -0.02
 -7 11 -3 -2.42 0.01
 -7 11 4 2.30 0.02
 -11 4 7 2.30 0.00
 -11 -4 -7 2.30 0.01
 -11 -4 7 2.30 0.00
 -7 11 -4 2.30 0.00
 -4 7 -11 2.30 0.02
 -5 7 11 -4.96 -0.02
 -11 -5 -7 -4.96 0.00
 -11 5 7 -4.96 0.00
 -7 11 5 -4.96 -0.04
 -7 11 -5 -4.96 0.02
 -5 7 -11 -4.96 0.01
 -11 5 -7 -4.96 0.01
 -11 6 7 2.72 0.00
 -7 11 6 2.72 -0.02
 -6 7 11 2.72 0.00
 -11 -6 -7 2.72 0.02
 -11 6 -7 2.72 -0.03
 -6 7 -11 2.72 0.01
 -7 11 -6 2.72 0.02
 -11 -8 -7 1.37 0.01
 -7 11 8 1.37 0.00
 -11 8 7 1.37 -0.01
 -8 7 11 1.36 -0.01
 -11 8 -7 1.37 0.00
 -8 7 -11 1.37 0.00
 -7 11 -8 1.37 0.00
 -11 9 7 -3.61 0.00
 -9 7 11 -3.61 0.01
 -7 11 9 -3.61 -0.01
 -11 9 -7 -3.61 0.00
 -9 7 -11 -3.61 0.00
 -7 11 -9 -3.61 0.02
 -11 10 7 -2.38 -0.01
 -10 7 11 -2.38 0.00
 -7 11 10 -2.38 0.00
 -11 10 -7 -2.38 0.01
 -10 7 -11 -2.38 -0.02
 -7 11 -10 -2.38 -0.01
 -8 11 0 1.78 0.04
 -11 0 8 1.78 0.08
 -11 0 -8 1.78 0.00
 0 8 -11 1.78 -0.03
 -8 11 1 -0.85 -0.01
 -11 -1 -8 -0.85 0.01
 1 8 -11 -0.85 -0.01
 -11 1 8 -0.85 0.04
 -11 1 -8 -0.85 -0.03
 -1 8 -11 -0.85 -0.02
 -8 11 -1 -0.85 0.02
 -11 -1 8 -0.85 0.02
 -11 2 8 2.48 -0.01
 -2 8 11 2.48 0.00
 -11 -2 -8 2.48 0.01
 -8 11 2 2.49 -0.02
 -11 2 -8 2.48 -0.02
 -11 -2 8 2.49 -0.03
 -2 8 -11 2.48 0.00
 -8 11 -2 2.49 0.00
 -11 -3 -8 0.62 -0.01
 -11 3 8 0.63 0.01
 -8 11 3 0.62 0.02
 -8 11 -3 0.62 -0.01
 -3 8 -11 0.63 0.00
 -11 -3 8 0.62 0.00
 -11 4 8 1.92 0.00
 -8 11 4 1.92 0.05
 -4 8 11 1.91 0.01
 -11 -4 -8 1.92 -0.05
 -11 4 -8 1.92 0.03
 -4 8 -11 1.92 0.03
 -11 -4 8 1.91 0.03
 -8 11 -4 1.92 -0.03
 -11 5 8 -1.49 0.01
 -8 11 5 -1.49 0.00
 -11 -5 -8 -1.49 -0.01
 -5 8 11 -1.49 0.00
 -8 11 -5 -1.50 -0.01
 -5 8 -11 -1.49 0.01
 -11 5 -8 -1.49 0.01
 -6 8 11 -0.84 0.02
 -8 11 6 -0.83 0.02
 -11 6 8 -0.83 0.01
 -11 -6 -8 -0.83 -0.01
 -8 11 -6 -0.83 0.00
 -6 8 -11 -0.83 0.00
 -11 6 -8 -0.84 0.00
 -11 7 8 1.37 0.00
 -11 -7 -8 1.37 0.01
 -8 11 7 1.37 -0.01
 -7 8 11 1.37 0.00
 -7 8 -11 1.37 -0.01
 -8 11 -7 1.36 -0.01
 -11 7 -8 1.37 0.00
 -8 11 9 -0.62 -0.01
 -11 9 8 -0.61 0.00
 -9 8 11 -0.61 0.00
 -11 9 -8 -0.61 -0.01
 -8 11 -9 -0.62 0.01
 -9 8 -11 -0.61 0.00
 -11 10 8 -0.15 0.03
 -10 8 11 -0.15 0.01
 -8 11 10 -0.15 0.04
 -10 8 -11 -0.15 0.01
 -8 11 -10 -0.15 -0.01
 -11 10 -8 -0.15 0.01
 -9 11 0 -1.06 -0.02
 -11 0 -9 -1.06 0.00
 0 9 -11 -1.05 0.00
 -11 0 9 -1.06 -0.02
 -9 11 1 -0.12 -0.01
 -11 1 9 -0.12 -0.01
 1 9 -11 -0.13 0.00
 -11 -1 -9 -0.13 -0.01
 -1 9 11 -0.12 0.00
 -1 9 -11 -0.12 -0.01
 -9 11 -1 -0.12 -0.01
 -11 1 -9 -0.13 0.01
 -11 -1 9 -0.13 0.01
 -11 -2 -9 -0.75 0.00
 -9 11 2 -0.76 -0.01
 -11 2 9 -0.75 -0.07
 -2 9 11 -0.75 -0.07
 -11 2 -9 -0.75 0.01
 -9 11 -2 -0.75 -0.05
 -2 9 -11 -0.75 0.04
 -11 -2 9 -0.75 -0.03
 -3 9 11 0.73 0.00
 -11 -3 -9 0.73 -0.02
 -11 3 9 0.73 0.00
 -9 11 3 0.73 0.01
 -3 9 -11 0.74 0.00
 -9 11 -3 0.74 0.01
 -11 -3 9 0.73 0.03
 -11 3 -9 0.73 0.04
 -9 11 4 -0.26 -0.02
 -11 4 9 -0.26 -0.01
 -11 -4 -9 -0.26 0.01
 -4 9 11 -0.26 -0.03
 -9 11 -4 -0.26 0.00
 -4 9 -11 -0.26 -0.01
 -11 -4 9 -0.26 -0.01
 -11 4 -9 -0.26 -0.01
 -11 5 9 1.82 0.00
 -11 -5 -9 1.82 0.02
 -9 11 5 1.81 -0.01
 -5 9 11 1.82 -0.02
 -9 11 -5 1.82 0.01
 -5 9 -11 1.82 0.00
 -11 5 -9 1.82 0.00
 -11 -6 -9 -1.18 0.02
 -9 11 6 -1.18 -0.03
 -11 6 9 -1.18 -0.02
 -6 9 11 -1.19 -0.03
 -11 6 -9 -1.18 -0.02
 -9 11 -6 -1.18 0.00
 -6 9 -11 -1.18 0.01
 -9 11 7 3.61 -0.01
 -11 7 9 3.61 0.00
 -7 9 11 3.61 0.01
 -11 -7 -9 3.61 0.02
 -9 11 -7 3.61 0.02
 -7 9 -11 3.61 0.00
 -8 9 11 -0.62 -0.01
 -11 8 9 -0.61 0.00
 -9 11 8 -0.61 0.00
 -11 8 -9 -0.61 0.01
 -8 9 -11 -0.61 0.01
 -9 11 -8 -0.61 -0.01
 -10 9 11 -1.35 0.00
 -9 11 10 -1.35 0.00
 -11 10 9 -1.35 0.01
 -10 9 -11 -1.35 0.00
 -9 11 -10 -1.35 -0.01
 -11 10 -9 -1.35 0.00
 -10 11 0 2.08 0.06
 0 10 -11 2.07 -0.04
 -11 0 10 2.07 0.08
 -11 0 -10 2.07 0.01
 0 10 11 2.07 0.11
 -11 1 10 -3.80 0.04
 -10 11 1 -3.81 -0.01
 -1 10 11 -3.80 0.02
 1 10 -11 -3.80 0.02
 -11 -1 -10 -3.80 0.02
 -1 10 -11 -3.80 -0.02
 -11 -1 10 -3.80 0.00
 -11 1 -10 -3.80 -0.05
 -10 11 -1 -3.81 0.02
 -11 -2 -10 3.61 0.01
 -11 2 10 3.61 -0.01
 -2 10 11 3.61 0.01
 -10 11 2 3.61 0.00
 -11 -2 10 3.61 -0.02
 -2 10 -11 3.61 -0.01
 -10 11 -2 3.61 0.00
 -11 2 -10 3.61 0.00
 -11 -3 -10 -3.78 -0.02
 -3 10 11 -3.78 -0.01
 -11 3 10 -3.78 0.00
 -10 11 3 -3.78 -0.02
 -10 11 -3 -3.78 -0.03
 -3 10 -11 -3.78 0.01
 -11 3 -10 -3.77 -0.01
 -11 -3 10 -3.78 -0.01
 -11 -4 -10 2.63 -0.04
 -4 10 11 2.62 0.05
 -11 4 10 2.63 0.02
 -10 11 4 2.63 0.04
 -4 10 -11 2.63 0.00
 -10 11 -4 2.63 -0.01
 -11 4 -10 2.63 0.03
 -11 -5 -10 -3.93 -0.02
 -11 5 10 -3.93 0.02
 -10 11 5 -3.93 0.03
 -5 10 11 -3.93 0.01
 -10 11 -5 -3.93 -0.01
 -11 5 -10 -3.93 0.02
 -5 10 -11 -3.93 0.01
 -6 10 11 0.08 0.01
 -11 -6 -10 0.08 0.01
 -10 11 6 0.09 -0.01
 -11 6 10 0.08 0.01
 -10 11 -6 0.08 0.03
 -11 6 -10 0.08 -0.02
 -6 10 -11 0.08 0.02
 -10 11 7 -2.38 0.00
 -11 -7 -10 -2.38 0.01
 -7 10 11 -2.38 0.00
 -11 7 10 -2.38 -0.01
 -10 11 -7 -2.38 0.00
 -11 7 -10 -2.38 0.00
 -7 10 -11 -2.38 -0.02
 -10 11 8 0.15 -0.01
 -8 10 11 0.15 -0.04
 -11 8 10 0.15 -0.03
 -10 11 -8 0.16 -0.01
 -8 10 -11 0.15 0.00
 -11 8 -10 0.15 0.00
 -9 10 11 -1.35 0.00
 -11 9 10 -1.35 0.01
 -10 11 9 -1.35 -0.01
 -9 10 -11 -1.35 0.01
 -10 11 -9 -1.35 0.01
 -11 9 -10 -1.35 -0.01
 -11 0 -11 -0.67 0.01
 -11 0 11 -0.67 0.02
 -11 11 0 -0.67 0.02
 0 11 -11 -0.67 0.00
 0 11 11 -0.67 0.05
 -2 11 11 1.59 -0.05
 -11 11 2 1.59 -0.03
 -11 2 11 1.59 -0.03
 -11 11 -2 1.59 -0.02
 -11 2 -11 1.59 0.00
 -2 11 -11 1.59 0.01
 -11 -2 11 1.59 -0.02
 -11 -4 -11 1.77 0.00
 -11 11 4 1.77 0.01
 -11 4 11 1.77 0.01
 -4 11 11 1.76 0.03
 -11 4 -11 1.77 0.01
 -4 11 -11 1.77 0.01
 -11 11 -4 1.77 0.01
 -11 -6 -11 2.67 0.00
 -11 11 6 2.67 -0.01
 -11 6 11 2.67 -0.01
 -6 11 11 2.67 0.00
 -11 6 -11 2.67 0.01
 -6 11 -11 2.68 0.00
 -11 11 -6 2.67 -0.01
 -11 11 8 3.17 0.00
 -11 8 11 3.17 0.00
 -8 11 11 3.17 -0.02
 -11 8 -11 3.17 0.00
 -8 11 -11 3.16 0.02
 -11 11 -8 3.17 0.00
 -11 11 10 1.05 0.01
 -11 10 11 1.05 0.01
 -10 11 11 1.05 -0.01
 -11 10 -11 1.05 0.00
 -10 11 -11 1.04 0.00
 -11 11 -10 1.05 0.01
 -12 0 0 -2.64 -0.02
 0 12 0 -2.65 -0.02
 -12 1 0 -10.13 0.01
 0 12 -1 -10.14 0.03
 0 12 1 -10.14 0.03
 -12 -1 0 -10.14 -0.01
 -12 2 0 -3.43 0.00
 0 12 2 -3.44 -0.02
 0 12 -2 -3.44 -0.01
 -12 -2 0 -3.44 0.00
 0 12 -3 -3.93 0.00
 0 12 3 -3.93 0.02
 -12 -3 0 -3.93 0.03
 -12 3 0 -3.92 -0.02
 -4 0 -12 -0.40 0.00
 0 12 4 -0.39 -0.01
 -12 4 0 -0.39 0.01
 -12 -4 0 -0.39 0.01
 0 12 -4 -0.40 -0.01
 -5 0 12 -2.34 0.02
 -5 0 -12 -2.34 -0.02
 -12 5 0 -2.34 0.06
 0 12 -5 -2.34 0.02
 -12 -5 0 -2.34 -0.01
 0 12 5 -2.34 0.05
 0 12 -6 0.09 -0.02
 -6 0 -12 0.10 -0.02
 -12 -6 0 0.10 -0.01
 -6 0 12 0.10 -0.02
 -12 6 0 0.10 -0.03
 0 12 6 0.10 -0.05
 -7 0 12 -3.23 -0.01
 -12 -7 0 -3.23 0.01
 0 12 -7 -3.22 0.01
 -12 7 0 -3.23 -0.01
 0 12 7 -3.23 -0.01
 -12 8 0 -0.65 -0.02
 0 12 -8 -0.66 -0.02
 -8 0 12 -0.65 -0.01
 0 12 8 -0.65 -0.03
 0 12 -9 -6.62 0.02
 -12 9 0 -6.62 0.04
 -9 0 -12 -6.63 0.00
 -9 0 12 -6.62 0.04
 0 12 9 -6.63 0.03
 0 12 10 0.17 -0.03
 -10 0 12 0.18 0.00
 -10 0 -12 0.17 -0.02
 -12 10 0 0.18 -0.02
 -12 11 0 -4.33 0.02
 -11 0 -12 -4.33 -0.01
 -11 0 12 -4.33 0.04
 0 12 11 -4.33 0.05
 -1 12 0 10.14 0.00
 -12 0 -1 10.14 0.01
 1 12 0 10.14 -0.04
 -12 0 1 10.13 -0.01
 1 12 -1 4.46 0.03
 -12 -1 -1 4.46 -0.02
 -12 1 1 4.46 0.00
 -1 12 1 4.46 -0.02
 1 12 1 4.46 0.02
 -12 1 -1 4.46 0.01
 -1 12 -1 4.46 0.00
 -12 -1 1 4.46 0.01
 -12 -2 -1 5.36 0.00
 1 12 -2 5.36 -0.01
 -12 2 1 5.35 0.01
 -1 12 2 5.36 -0.03
 -1 12 -2 5.36 0.01
 -12 2 -1 5.35 0.00
 -12 -2 1 5.35 0.03
 1 12 2 5.36 0.01
 -12 -3 -1 2.65 0.02
 -12 3 1 2.65 -0.05
 -1 12 3 2.66 0.01
 1 12 -3 2.66 -0.02
 -3 1 -12 2.66 0.04
 -1 12 -3 2.66 0.01
 -12 3 -1 2.65 0.00
 -12 -3 1 2.65 0.00
 -1 12 4 0.17 -0.05
 -4 -1 -12 0.17 0.01
 -12 4 1 0.17 0.00
 -12 -4 -1 0.17 -0.01
 1 12 -4 0.17 0.00
 -1 12 -4 0.17 0.02
 -4 1 -12 0.17 0.01
 -12 4 -1 0.17 -0.04
 1 12 4 0.17 0.05
 -12 -4 1 0.17 0.03
 1 12 -5 0.53 0.00
 -5 1 12 0.53 -0.03
 -5 -1 -12 0.53 -0.02
 -1 12 5 0.53 0.05
 -12 -5 -1 0.52 -0.03
 -12 5 1 0.53 0.01
 -1 12 -5 0.53 0.01
 -12 -5 1 0.53 -0.02
 -12 5 -1 0.52 0.06
 -5 1 -12 0.53 -0.02
 1 12 5 0.53 -0.02
 -1 12 6 0.08 -0.03
 -12 6 1 0.08 -0.02
 -12 -6 -1 0.08 -0.01
 1 12 -6 0.08 -0.02
 -6 1 12 0.08 0.01
 -12 6 -1 0.08 -0.01
 -6 -1 12 0.08 -0.02
 -6 1 -12 0.08 0.01
 -12 -6 1 0.08 -0.01
 1 12 6 0.08 0.03
 -1 12 -6 0.08 0.01
 -1 12 7 2.49 -0.04
 -12 -7 -1 2.48 -0.01
 -12 7 1 2.49 -0.03
 1 12 -7 2.49 0.00
 -7 1 12 2.49 0.00
 -12 7 -1 2.48 -0.02
 -7 1 -12 2.48 -0.04
 -1 12 -7 2.48 0.00
 -7 -1 12 2.49 -0.04
 1 12 7 2.49 -0.01
 -12 -8 -1 3.93 0.02
 -8 1 12 3.94 -0.01
 -12 8 1 3.94 0.01
 -8 -1 -12 3.93 -0.01
 -1 12 8 3.93 0.01
 -1 12 -8 3.93 -0.01
 -8 1 -12 3.93 0.01
 -8 -1 12 3.94 0.01
 -12 8 -1 3.93 0.00
 1 12 8 3.93 0.01
 -9 -1 -12 2.67 0.00
 -9 1 12 2.67 -0.01
 -1 12 9 2.67 0.01
 -12 9 1 2.67 -0.01
 -9 1 -12 2.67 0.02
 -12 9 -1 2.67 0.01
 1 12 9 2.67 0.02
 -9 -1 12 2.67 0.02
 -1 12 -9 2.67 -0.01
 -12 10 1 6.03 0.01
 -10 -1 -12 6.03 -0.01
 -10 1 12 6.03 0.00
 -1 12 10 6.03 0.01
 -10 -1 12 6.03 0.01
 -12 10 -1 6.03 -0.01
 -1 12 -10 6.03 0.01
 -10 1 -12 6.03 0.00
 1 12 10 6.03 0.01
 -11 -1 -12 2.99 0.00
 -11 1 12 2.99 0.02
 -1 12 11 2.99 0.01
 -12 11 1 3.00 -0.03
 1 12 11 3.00 0.00
 -11 -1 12 2.99 0.01
 -12 11 -1 3.00 -0.02
 -1 12 -11 3.00 -0.03
 -11 1 -12 3.00 -0.01
 2 12 0 -3.44 0.00
 -12 0 2 -3.43 0.00
 -2 12 0 -3.44 0.00
 -12 0 -2 -3.44 0.00
 -12 1 2 -5.35 -0.01
 -12 -1 -2 -5.35 0.00
 -2 12 1 -5.36 0.00
 2 12 -1 -5.35 0.03
 2 12 1 -5.35 -0.01
 -2 12 -1 -5.36 -0.01
 -12 -1 2 -5.35 0.00
 -12 1 -2 -5.36 -0.03
 -12 -2 -2 -2.93 0.03
 2 12 -2 -2.93 0.01
 -12 2 2 -2.93 0.01
 -2 12 2 -2.93 0.01
 -2 12 -2 -2.93 -0.03
 -12 2 -2 -2.93 -0.01
 2 12 2 -2.93 -0.04
 -12 -2 2 -2.93 -0.01
 -2 2 -12 -2.93 -0.02
 -2 12 3 -0.82 0.04
 -12 -3 -2 -0.82 0.05
 2 12 -3 -0.82 0.03
 -12 3 2 -0.82 0.02
 2 12 3 -0.82 -0.05
 -12 -3 2 -0.82 -0.01
 -3 2 -12 -0.82 0.01
 -12 3 -2 -0.82 -0.03
 -2 12 -3 -0.82 -0.02
 2 12 -4 -1.77 0.02
 -12 -4 -2 -1.76 0.01
 -2 12 4 -1.76 0.02
 -12 4 2 -1.76 0.01
 -12 4 -2 -1.76 0.01
 -12 -4 2 -1.76 0.00
 -2 12 -4 -1.76 -0.02
 -4 2 -12 -1.77 -0.03
 2 12 4 -1.77 -0.04
 -12 -5 -2 1.26 -0.02
 -5 2 12 1.26 0.01
 -2 12 5 1.26 0.03
 2 12 -5 1.26 -0.02
 -5 -2 -12 1.26 -0.01
 -12 5 2 1.26 0.01
 -12 5 -2 1.26 0.04
 -12 -5 2 1.26 0.00
 -5 2 -12 1.26 -0.01
 2 12 5 1.26 -0.01
 -2 12 -5 1.26 0.01
 -12 -6 -2 -2.51 0.00
 -12 6 2 -2.51 0.02
 -6 2 12 -2.51 0.03
 -2 12 6 -2.51 0.01
 2 12 6 -2.51 0.02
 -2 12 -6 -2.51 0.00
 -6 -2 12 -2.51 0.01
 -6 2 -12 -2.51 -0.01
 -2 12 7 -1.69 -0.07
 -12 7 2 -1.69 -0.04
 -7 2 12 -1.69 -0.03
 -12 -7 -2 -1.68 -0.03
 -7 -2 -12 -1.69 -0.02
 2 12 7 -1.69 -0.02
 -7 2 -12 -1.69 -0.01
 -7 -2 12 -1.69 -0.03
 -12 7 -2 -1.69 -0.03
 -2 12 -7 -1.69 0.01
 -12 8 2 -3.72 0.04
 -12 -8 -2 -3.71 0.03
 -8 -2 -12 -3.71 -0.03
 -2 12 8 -3.71 0.00
 -8 2 12 -3.71 -0.03
 -8 -2 12 -3.71 0.05
 -12 8 -2 -3.71 0.01
 2 12 8 -3.71 0.00
 -8 2 -12 -3.71 0.03
 -2 12 -8 -3.72 -0.03
 -9 -2 -12 -3.24 0.01
 -12 9 2 -3.24 0.01
 -9 2 12 -3.24 0.03
 -2 12 9 -3.24 0.03
 -9 2 -12 -3.24 -0.02
 -9 -2 12 -3.24 0.02
 -2 12 -9 -3.24 -0.02
 -12 9 -2 -3.24 0.01
 2 12 9 -3.24 0.01
 -2 12 10 -2.31 0.03
 -10 2 12 -2.31 0.01
 -10 -2 -12 -2.31 -0.04
 -12 10 2 -2.32 0.05
 -2 12 -10 -2.32 0.00
 -10 -2 12 -2.31 0.05
 -10 2 -12 -2.31 0.01
 2 12 10 -2.31 0.01
 -12 10 -2 -2.31 0.03
 -11 2 12 -1.87 0.02
 -2 12 11 -1.87 -0.02
 -11 -2 -12 -1.86 0.01
 -12 11 2 -1.86 -0.03
 2 12 11 -1.86 -0.03
 -2 12 -11 -1.86 0.00
 -12 11 -2 -1.86 -0.03
 -11 2 -12 -1.86 -0.02
 -11 -2 12 -1.86 -0.03
 3 12 0 3.93 0.06
 -12 0 3 3.92 0.02
 -12 0 -3 3.93 -0.03
 -3 12 0 3.93 -0.02
 3 12 -1 2.66 -0.04
 -12 -1 -3 2.65 0.02
 -3 12 1 2.66 -0.01
 -12 1 3 2.65 -0.05
 -12 -1 3 2.65 0.00
 -3 12 -1 2.65 0.02
 -12 1 -3 2.65 0.00
 3 12 1 2.66 -0.01
 -3 12 2 0.82 -0.04
 -12 2 3 0.82 -0.02
 -12 -2 -3 0.82 -0.05
 3 12 -2 0.82 0.00
 -12 -2 3 0.82 0.03
 3 12 2 0.82 0.06
 -2 3 -12 0.82 0.03
 -12 2 -3 0.82 0.01
 -3 12 -2 0.82 0.01
 -3 12 3 0.80 0.01
 -12 -3 -3 0.79 0.03
 -12 3 3 0.79 -0.02
 3 12 -3 0.80 0.00
 -3 12 -3 0.80 0.01
 -12 -3 3 0.79 0.00
 3 12 3 0.80 -0.02
 -3 3 -12 0.80 0.00
 -12 3 -3 0.79 0.00
 -3 12 4 -1.54 -0.02
 -12 -4 -3 -1.55 -0.03
 -12 4 3 -1.54 0.00
 -4 3 12 -1.54 -0.04
 -3 12 -4 -1.54 0.04
 3 12 4 -1.54 0.05
 -12 4 -3 -1.54 0.02
 -12 -4 3 -1.54 0.00
 -4 3 -12 -1.54 0.01
 -12 -5 -3 1.05 -0.03
 -3 12 5 1.06 0.02
 -12 5 3 1.06 -0.03
 -5 3 12 1.06 0.01
 3 12 5 1.06 0.01
 -5 3 -12 1.06 0.01
 -12 5 -3 1.05 0.02
 -12 -5 3 1.05 0.03
 -3 12 -5 1.06 0.01
 -3 12 6 1.47 -0.01
 -12 6 3 1.47 0.02
 -6 3 12 1.48 0.01
 -12 -6 -3 1.47 0.01
 -3 12 -6 1.47 0.02
 -6 3 -12 1.47 -0.03
 -6 -3 12 1.48 -0.03
 3 12 6 1.48 0.03
 -7 -3 -12 0.83 -0.02
 -12 -7 -3 0.83 0.02
 -3 12 7 0.83 -0.02
 -12 7 3 0.83 -0.01
 -7 3 12 0.83 -0.04
 -12 7 -3 0.83 -0.04
 -3 12 -7 0.83 -0.01
 -7 -3 12 0.83 0.00
 3 12 7 0.83 -0.02
 -7 3 -12 0.83 0.00
 -8 -3 -12 3.80 0.01
 -8 3 12 3.80 0.00
 -12 8 3 3.80 -0.02
 -3 12 8 3.80 -0.03
 -12 -8 -3 3.80 0.00
 -8 -3 12 3.80 -0.03
 -8 3 -12 3.80 -0.02
 -3 12 -8 3.80 0.01
 -12 8 -3 3.80 -0.01
 3 12 8 3.80 0.00
 -3 12 9 3.65 0.00
 -9 -3 -12 3.65 -0.01
 -12 -9 -3 3.65 0.02
 -9 3 12 3.65 0.00
 -12 9 3 3.65 0.00
 -12 9 -3 3.65 -0.02
 -9 3 -12 3.65 0.00
 -3 12 -9 3.65 -0.03
 -9 -3 12 3.65 0.01
 -12 10 3 5.41 -0.01
 -3 12 10 5.41 0.01
 -10 -3 -12 5.41 -0.01
 -10 3 12 5.41 0.00
 -10 -3 12 5.41 0.00
 -12 10 -3 5.41 -0.01
 -10 3 -12 5.41 -0.01
 -3 12 -10 5.41 0.00
 -3 12 11 2.12 0.00
 -11 3 12 2.12 0.00
 -12 11 3 2.12 0.00
 -11 -3 -12 2.12 -0.03
 -12 11 -3 2.12 -0.04
 -3 12 -11 2.12 -0.02
 -11 -3 12 2.12 0.03
 -11 3 -12 2.12 0.03
 4 12 0 -0.40 0.00
 -4 12 0 -0.39 -0.01
 -12 0 4 -0.39 0.01
 -12 0 -4 -0.39 0.01
 -12 -1 -4 -0.17 0.01
 4 12 -1 -0.17 0.01
 -4 12 1 -0.18 0.01
 -12 1 4 -0.17 0.00
 -1 4 -12 -0.17 0.00
 -12 -1 4 -0.17 0.04
 -4 12 -1 -0.18 0.02
 -12 1 -4 -0.17 -0.03
 4 12 1 -0.17 0.01
 -12 2 4 -1.76 0.01
 -12 -2 -4 -1.76 0.01
 -4 12 2 -1.76 0.02
 -12 2 -4 -1.76 0.00
 4 12 2 -1.77 -0.02
 -4 12 -2 -1.76 -0.03
 -12 -2 4 -1.76 0.01
 -2 4 -12 -1.77 -0.02
 -4 12 3 1.54 0.04
 -12 3 4 1.54 0.00
 -12 -3 -4 1.55 0.03
 -12 -3 4 1.54 -0.02
 -4 12 -3 1.54 -0.02
 -3 4 -12 1.54 -0.03
 4 12 3 1.54 -0.06
 -12 3 -4 1.54 -0.01
 -4 12 4 -2.14 0.01
 -12 -4 -4 -2.13 0.03
 -12 4 4 -2.14 0.02
 -4 4 12 -2.14 0.01
 4 12 4 -2.14 -0.01
 -4 12 -4 -2.14 -0.01
 -12 4 -4 -2.14 0.00
 -12 -4 4 -2.13 0.00
 -4 4 -12 -2.14 -0.03
 -12 5 4 2.55 0.01
 -5 4 12 2.54 0.02
 -4 12 5 2.54 0.01
 -12 -5 -4 2.55 -0.02
 -4 12 -5 2.54 0.02
 -12 5 -4 2.54 0.02
 -12 -5 4 2.55 0.01
 -5 4 -12 2.54 -0.01
 4 12 5 2.55 0.01
 -12 -6 -4 -2.18 0.01
 -6 4 12 -2.18 -0.02
 -12 6 4 -2.19 0.00
 -4 12 6 -2.18 -0.03
 4 12 6 -2.19 -0.02
 -6 4 -12 -2.19 0.00
 -6 -4 12 -2.18 -0.01
 -4 12 -6 -2.18 -0.02
 -4 12 7 -4.22 0.01
 -12 7 4 -4.22 0.01
 -7 4 12 -4.22 -0.01
 -12 -7 -4 -4.22 -0.01
 -4 12 -7 -4.22 0.03
 -7 4 -12 -4.22 0.00
 -12 7 -4 -4.22 0.01
 -7 -4 12 -4.22 0.03
 -12 8 4 -3.51 -0.01
 -8 -4 -12 -3.51 -0.02
 -12 -8 -4 -3.50 -0.01
 -4 12 8 -3.50 -0.02
 -8 4 12 -3.50 0.01
 -12 8 -4 -3.50 0.01
 -8 -4 12 -3.50 0.02
 -8 4 -12 -3.51 0.00
 -4 12 -8 -3.51 -0.01
 -4 12 9 -2.39 0.03
 -9 4 12 -2.39 0.02
 -12 -9 -4 -2.39 -0.03
 -9 -4 -12 -2.39 0.02
 -12 9 4 -2.39 0.02
 -9 4 -12 -2.39 -0.01
 -9 -4 12 -2.39 0.00
 -4 12 -9 -2.39 0.02
 -12 9 -4 -2.39 0.04
 -10 -4 -12 -0.61 -0.01
 -12 10 4 -0.61 0.01
 -4 12 10 -0.61 0.01
 -10 4 12 -0.61 0.01
 -12 10 -4 -0.61 0.01
 -10 4 -12 -0.61 -0.01
 -4 12 -10 -0.61 -0.02
 -12 11 4 -3.28 0.03
 -11 4 12 -3.28 0.00
 -11 -4 -12 -3.28 -0.03
 -4 12 11 -3.28 0.02
 -11 4 -12 -3.27 0.03
 -4 12 -11 -3.27 0.01
 -12 11 -4 -3.28 0.00
 -12 0 5 2.34 -0.06
 -5 12 0 2.34 -0.02
 -12 0 -5 2.34 0.01
 5 12 0 2.34 -0.02
 -5 12 1 0.53 -0.03
 -12 -1 -5 0.52 -0.03
 -12 1 5 0.53 0.01
 -12 1 -5 0.53 -0.02
 5 12 1 0.53 0.02
 -5 12 -1 0.53 0.01
 -12 -1 5 0.52 0.06
 -1 5 -12 0.53 0.00
 -12 -2 -5 -1.26 0.02
 -5 12 2 -1.26 -0.01
 -12 2 5 -1.26 -0.01
 -12 -2 5 -1.26 -0.03
 -12 2 -5 -1.26 0.00
 5 12 2 -1.26 -0.01
 -5 12 -2 -1.26 0.00
 -2 5 -12 -1.26 -0.01
 -12 -3 -5 1.05 -0.03
 -5 12 3 1.06 0.01
 -12 3 5 1.06 -0.03
 -12 3 -5 1.05 0.03
 -12 -3 5 1.05 0.02
 -3 5 -12 1.06 0.01
 -5 12 -3 1.06 0.00
 5 12 3 1.06 -0.01
 -4 5 12 -2.54 -0.01
 -12 -4 -5 -2.55 0.02
 -12 4 5 -2.55 -0.01
 -5 12 4 -2.54 -0.02
 5 12 4 -2.54 0.01
 -4 5 -12 -2.55 -0.02
 -12 -4 5 -2.54 -0.02
 -12 4 -5 -2.55 -0.01
 -5 12 -4 -2.54 0.00
 -12 -5 -5 5.72 0.00
 -5 12 5 5.72 0.01
 -12 5 5 5.72 0.01
 -5 5 12 5.72 0.01
 -5 5 -12 5.72 0.02
 -5 12 -5 5.72 0.01
 -6 5 12 0.16 -0.02
 -12 6 5 0.15 -0.01
 -5 12 6 0.15 -0.01
 -12 -6 -5 0.15 0.01
 -6 -5 12 0.16 -0.01
 -5 12 -6 0.15 -0.01
 -6 5 -12 0.15 -0.01
 -12 6 -5 0.15 -0.01
 -12 -7 -5 2.10 0.02
 -12 7 5 2.10 -0.01
 -7 5 12 2.09 -0.01
 -5 12 7 2.10 0.00
 -7 5 -12 2.10 0.01
 -12 7 -5 2.09 -0.02
 -5 12 -7 2.10 -0.02
 -7 -5 12 2.09 0.00
 -12 -8 -5 1.83 0.00
 -8 5 12 1.83 0.02
 -5 12 8 1.83 -0.01
 -12 8 5 1.83 0.01
 -8 5 -12 1.83 0.00
 -5 12 -8 1.83 0.00
 -12 8 -5 1.83 -0.01
 -9 -5 -12 4.37 0.00
 -12 -9 -5 4.37 -0.01
 -12 9 5 4.37 -0.01
 -5 12 9 4.37 0.01
 -9 5 12 4.37 0.00
 -12 9 -5 4.37 -0.01
 -5 12 -9 4.37 -0.01
 -9 5 -12 4.37 0.02
 -12 10 5 3.63 -0.01
 -10 5 12 3.63 0.00
 -10 -5 -12 3.63 0.00
 -5 12 10 3.63 -0.01
 -10 5 -12 3.63 0.00
 -5 12 -10 3.63 -0.02
 -12 10 -5 3.63 -0.01
 -11 -5 -12 0.35 -0.03
 -5 12 11 0.35 -0.03
 -11 5 12 0.35 -0.01
 -12 11 5 0.35 -0.02
 -5 12 -11 0.35 0.00
 -11 5 -12 0.35 0.00
 -12 11 -5 0.35 -0.01
 0 6 -12 0.09 0.02
 -6 12 0 0.10 -0.02
 -12 0 6 0.10 -0.03
 -12 0 -6 0.10 -0.01
 -12 1 6 -0.08 0.02
 -6 12 1 -0.08 -0.01
 -12 -1 -6 -0.08 0.01
 -6 12 -1 -0.08 0.02
 -1 6 -12 -0.08 -0.02
 -12 1 -6 -0.08 0.01
 6 12 1 -0.08 0.02
 -12 -1 6 -0.08 0.01
 -6 12 2 -2.51 0.03
 -12 2 6 -2.51 0.02
 -12 -2 -6 -2.51 0.00
 -6 12 -2 -2.51 0.00
 -12 2 -6 -2.51 0.00
 6 12 2 -2.51 0.01
 -12 -2 6 -2.51 0.02
 -2 6 -12 -2.51 0.02
 -12 3 6 -1.47 -0.02
 -3 6 12 -1.47 0.01
 -6 12 3 -1.48 -0.01
 -12 -3 -6 -1.47 -0.01
 -12 3 -6 -1.47 0.02
 6 12 3 -1.47 0.02
 -6 12 -3 -1.48 0.03
 -12 -3 6 -1.47 0.01
 -3 6 -12 -1.47 -0.02
 -12 -4 -6 -2.18 0.01
 -12 4 6 -2.19 0.00
 -4 6 12 -2.18 -0.03
 -6 12 4 -2.18 -0.02
 -6 12 -4 -2.18 -0.01
 -12 -4 6 -2.18 -0.01
 -12 4 -6 -2.18 -0.02
 -4 6 -12 -2.19 0.00
 -12 -5 -6 -0.15 -0.01
 -6 12 5 -0.16 0.02
 -12 5 6 -0.15 0.01
 -5 6 12 -0.15 0.01
 -6 12 -5 -0.16 0.01
 -12 5 -6 -0.15 0.01
 -5 6 -12 -0.15 0.00
 -6 12 6 -2.14 -0.01
 -12 -6 -6 -2.14 0.00
 -6 6 12 -2.14 -0.01
 -12 6 6 -2.14 0.00
 -6 6 -12 -2.14 -0.01
 -6 -6 12 -2.14 0.00
 -12 6 -6 -2.14 0.01
 -6 12 -6 -2.14 0.00
 -12 7 6 -5.30 0.00
 -12 -7 -6 -5.30 0.00
 -7 6 12 -5.30 -0.01
 -6 12 7 -5.31 -0.01
 -12 7 -6 -5.30 -0.01
 -7 6 -12 -5.30 0.01
 -6 12 -7 -5.31 -0.01
 -12 -8 -6 -2.57 -0.04
 -6 12 8 -2.57 0.03
 -8 6 12 -2.57 0.04
 -12 8 6 -2.57 0.02
 -6 12 -8 -2.57 0.02
 -12 8 -6 -2.57 0.03
 -8 6 -12 -2.57 -0.02
 -12 9 6 -1.77 0.02
 -6 12 9 -1.78 0.01
 -12 -9 -6 -1.77 0.02
 -9 6 12 -1.77 -0.02
 -9 6 -12 -1.77 0.03
 -12 9 -6 -1.77 -0.02
 -6 12 -9 -1.77 0.00
 -10 6 12 0.06 0.02
 -6 12 10 0.06 0.02
 -12 10 6 0.06 0.01
 -6 12 -10 0.05 0.00
 -10 6 -12 0.06 -0.02
 -12 10 -6 0.05 0.03
 -11 -6 -12 -2.47 -0.02
 -11 6 12 -2.47 -0.02
 -12 11 6 -2.47 0.00
 -6 12 11 -2.48 -0.03
 -12 11 -6 -2.47 -0.02
 -11 6 -12 -2.47 0.01
 -6 12 -11 -2.47 -0.02
 -12 0 -7 3.22 -0.01
 -12 0 7 3.23 0.01
 -7 12 0 3.23 0.01
 0 7 -12 3.22 0.01
 -12 -1 -7 2.48 -0.01
 -12 1 7 2.49 -0.03
 -7 12 1 2.49 0.00
 -7 12 -1 2.49 -0.04
 -1 7 -12 2.48 0.00
 -12 1 -7 2.48 0.01
 -12 -1 7 2.48 -0.02
 -12 -2 -7 1.68 0.03
 -7 12 2 1.69 0.03
 -2 7 12 1.69 0.07
 -12 2 7 1.69 0.04
 -2 7 -12 1.69 -0.03
 -12 2 -7 1.69 -0.01
 7 12 2 1.69 -0.02
 -12 -2 7 1.69 0.03
 -7 12 -2 1.69 0.03
 -12 -3 -7 0.83 0.02
 -3 7 12 0.83 -0.02
 -12 3 7 0.83 -0.01
 -7 12 3 0.83 -0.04
 -7 12 -3 0.83 0.00
 -12 -3 7 0.83 -0.04
 -3 7 -12 0.83 -0.01
 -12 3 -7 0.83 -0.02
 -7 12 4 4.22 0.01
 -4 7 12 4.22 -0.01
 -12 -4 -7 4.22 0.01
 -12 4 7 4.22 -0.01
 -12 4 -7 4.22 -0.02
 -12 -4 7 4.22 -0.01
 -4 7 -12 4.22 -0.01
 -7 12 -4 4.22 -0.03
 -5 7 12 2.10 0.00
 -12 -5 -7 2.10 0.02
 -7 12 5 2.09 -0.01
 -12 5 7 2.10 -0.01
 -5 7 -12 2.09 -0.01
 -7 12 -5 2.09 0.00
 -12 5 -7 2.09 -0.01
 -12 6 7 5.30 0.01
 -12 -6 -7 5.30 0.00
 -7 12 6 5.30 0.01
 -6 7 12 5.31 0.01
 -6 7 -12 5.30 -0.01
 -12 6 -7 5.30 0.00
 -7 12 -6 5.31 0.00
 -12 -7 -7 -0.60 -0.01
 -12 7 7 -0.60 0.00
 -7 12 7 -0.60 0.00
 -7 7 12 -0.60 0.00
 -12 7 -7 -0.60 0.01
 -7 7 -12 -0.60 0.00
 -7 12 -7 -0.60 0.01
 -8 7 12 3.39 0.00
 -12 -8 -7 3.39 0.01
 -7 12 8 3.39 0.00
 -12 8 -7 3.39 0.00
 -7 12 -8 3.39 -0.01
 -8 7 -12 3.39 -0.02
 -7 12 9 2.68 0.00
 -9 7 12 2.69 0.01
 -12 9 7 2.68 0.01
 -12 9 -7 2.68 0.01
 -7 12 -9 2.69 0.00
 -9 7 -12 2.68 0.02
 -10 7 12 2.04 0.01
 -7 12 10 2.04 -0.01
 -12 10 7 2.04 -0.03
 -10 7 -12 2.04 -0.01
 -12 10 -7 2.04 -0.01
 -7 12 -10 2.04 -0.01
 -12 11 7 -0.92 -0.01
 -11 7 12 -0.93 -0.01
 -7 12 11 -0.93 -0.02
 -12 11 -7 -0.93 -0.01
 -7 12 -11 -0.93 -0.01
 -11 7 -12 -0.93 0.00
 -12 0 -8 -0.65 0.00
 0 8 -12 -0.66 0.02
 -8 12 0 -0.65 -0.01
 -12 0 8 -0.65 -0.02
 -12 1 8 -3.94 -0.01
 -8 12 1 -3.94 0.01
 -12 -1 -8 -3.93 -0.02
 -8 12 -1 -3.94 -0.01
 -12 1 -8 -3.93 0.04
 -12 -1 8 -3.93 0.00
 -1 8 -12 -3.94 0.01
 -12 -2 -8 -3.71 0.03
 -12 2 8 -3.72 0.04
 -8 12 2 -3.71 -0.03
 -2 8 12 -3.71 0.00
 -2 8 -12 -3.72 -0.03
 -12 2 -8 -3.71 -0.04
 -12 -2 8 -3.71 0.01
 -8 12 -2 -3.71 0.05
 -8 12 3 -3.80 0.00
 -12 -3 -8 -3.80 0.00
 -3 8 12 -3.80 0.03
 -12 3 8 -3.80 0.02
 -3 8 -12 -3.80 0.00
 -12 -3 8 -3.80 0.01
 -12 3 -8 -3.80 0.00
 -8 12 -3 -3.80 0.03
 -4 8 12 -3.50 -0.02
 -12 4 8 -3.51 -0.01
 -12 -4 -8 -3.50 -0.01
 -8 12 4 -3.50 0.00
 -8 12 -4 -3.51 0.02
 -12 4 -8 -3.50 0.01
 -12 -4 8 -3.50 0.01
 -4 8 -12 -3.51 -0.01
 -12 -5 -8 -1.83 0.00
 -12 5 8 -1.83 -0.01
 -5 8 12 -1.83 0.01
 -8 12 5 -1.83 -0.02
 -8 12 -5 -1.83 -0.02
 -12 5 -8 -1.82 0.00
 -5 8 -12 -1.83 -0.01
 -6 8 12 -2.57 0.03
 -12 6 8 -2.57 0.02
 -8 12 6 -2.57 0.04
 -12 -6 -8 -2.57 -0.04
 -8 12 -6 -2.57 -0.01
 -12 6 -8 -2.57 0.04
 -6 8 -12 -2.57 0.01
 -8 12 7 -3.39 0.00
 -12 7 8 -3.39 0.02
 -7 8 12 -3.39 0.00
 -12 -7 -8 -3.39 -0.01
 -12 7 -8 -3.39 -0.01
 -7 8 -12 -3.39 0.03
 -8 12 -7 -3.40 -0.01
 -12 -8 -8 -3.48 -0.01
 -12 8 8 -3.48 -0.01
 -8 8 12 -3.48 0.00
 -8 12 8 -3.48 0.00
 -12 8 -8 -3.48 0.01
 -8 12 -8 -3.48 -0.01
 -8 8 -12 -3.48 0.00
 -12 9 8 0.13 0.01
 -8 12 9 0.12 -0.01
 -9 8 12 0.13 0.00
 -12 9 -8 0.13 0.03
 -9 8 -12 0.13 -0.01
 -8 12 -9 0.12 0.02
 -8 12 10 -1.29 0.03
 -10 8 12 -1.30 0.01
 -12 10 8 -1.30 0.02
 -10 8 -12 -1.29 0.01
 -8 12 -10 -1.29 0.00
 -12 10 -8 -1.29 0.01
 -12 11 8 -0.82 0.00
 -8 12 11 -0.81 -0.03
 -11 8 12 -0.81 -0.02
 -12 11 -8 -0.81 0.00
 -8 12 -11 -0.82 0.01
 -11 8 -12 -0.81 -0.02
 -9 12 0 6.62 -0.04
 -12 0 9 6.62 -0.04
 0 9 -12 6.62 0.01
 -12 0 -9 6.62 -0.01
 -12 1 9 2.67 -0.01
 -12 -1 -9 2.66 0.00
 -9 12 1 2.67 -0.01
 -1 9 12 2.67 0.01
 1 9 -12 2.67 0.01
 -9 12 -1 2.67 0.02
 -12 1 -9 2.67 0.00
 -12 -1 9 2.67 0.01
 -1 9 -12 2.67 -0.01
 -9 12 2 3.24 -0.03
 -2 9 12 3.24 -0.03
 -12 -2 -9 3.24 0.03
 -12 2 9 3.24 -0.01
 -12 2 -9 3.23 -0.03
 -12 -2 9 3.24 -0.01
 -9 12 -2 3.24 -0.02
 -2 9 -12 3.24 -0.01
 -12 3 9 3.65 0.00
 -12 -3 -9 3.65 0.02
 -3 9 12 3.65 0.00
 -9 12 3 3.65 0.00
 -12 3 -9 3.65 -0.01
 -3 9 -12 3.65 0.00
 -9 12 -3 3.65 0.01
 -12 -3 9 3.65 -0.02
 -12 -4 -9 2.39 0.03
 -4 9 12 2.39 -0.03
 -12 4 9 2.39 -0.02
 -9 12 4 2.39 -0.02
 -9 12 -4 2.39 0.00
 -12 4 -9 2.38 -0.01
 -4 9 -12 2.38 0.00
 -12 5 9 4.37 -0.01
 -5 9 12 4.37 0.01
 -9 12 5 4.37 0.00
 -12 -5 -9 4.37 -0.01
 -9 12 -5 4.37 -0.01
 -12 5 -9 4.37 0.01
 -5 9 -12 4.37 0.01
 -9 12 6 1.77 0.02
 -6 9 12 1.78 -0.01
 -12 6 9 1.77 -0.02
 -12 -6 -9 1.77 -0.02
 -12 6 -9 1.77 0.03
 -9 12 -6 1.77 -0.02
 -6 9 -12 1.77 -0.02
 -12 7 9 2.68 0.01
 -9 12 7 2.69 0.01
 -12 -7 -9 2.68 0.02
 -7 9 12 2.68 0.00
 -12 7 -9 2.68 -0.03
 -9 12 -7 2.68 0.02
 -7 9 -12 2.68 0.01
 -12 8 9 -0.12 -0.01
 -8 9 12 -0.12 0.01
 -12 -8 -9 -0.13 0.00
 -9 12 8 -0.13 0.00
 -12 8 -9 -0.13 -0.01
 -9 12 -8 -0.13 0.00
 -8 9 -12 -0.13 0.00
 -9 12 9 2.95 -0.01
 -9 9 12 2.95 -0.01
 -12 9 9 2.95 -0.03
 -9 9 -12 2.95 -0.02
 -12 9 -9 2.94 -0.01
 -9 12 -9 2.95 -0.01
 -12 10 9 0.30 -0.01
 -9 12 10 0.29 0.02
 -10 9 12 0.29 0.01
 -9 12 -10 0.29 0.00
 -10 9 -12 0.30 0.03
 -12 10 -9 0.29 -0.02
 -11 9 12 -1.07 -0.01
 -12 11 9 -1.07 -0.01
 -9 12 11 -1.07 0.01
 -11 9 -12 -1.07 0.01
 -12 11 -9 -1.08 -0.02
 -9 12 -11 -1.07 -0.01
 0 10 12 0.17 -0.03
 -12 0 -10 0.18 0.00
 -12 0 10 0.18 -0.02
 -10 12 0 0.18 0.00
 0 10 -12 0.17 0.00
 -12 -1 -10 -6.03 -0.01
 1 10 -12 -6.03 0.01
 -12 1 10 -6.03 -0.01
 -10 12 1 -6.03 0.00
 -1 10 12 -6.03 -0.01
 -1 10 -12 -6.03 0.01
 -10 12 -1 -6.03 -0.01
 -12 -1 10 -6.03 0.01
 -12 1 -10 -6.03 0.00
 -2 10 12 -2.31 0.03
 -12 2 10 -2.32 0.05
 -12 -2 -10 -2.31 0.02
 -10 12 2 -2.31 0.01
 -10 12 -2 -2.31 0.05
 -12 2 -10 -2.31 -0.02
 -12 -2 10 -2.31 0.02
 -2 10 -12 -2.32 -0.04
 -10 12 3 -5.41 0.00
 -12 3 10 -5.41 0.01
 -12 -3 -10 -5.41 0.01
 -3 10 12 -5.41 -0.01
 -3 10 -12 -5.41 0.00
 -10 12 -3 -5.41 0.00
 -12 3 -10 -5.41 -0.03
 -12 -3 10 -5.41 0.01
 -12 -4 -10 -0.61 0.00
 -10 12 4 -0.61 0.02
 -4 10 12 -0.61 0.01
 -12 4 10 -0.61 0.01
 -10 12 -4 -0.61 0.02
 -4 10 -12 -0.61 -0.01
 -12 4 -10 -0.61 0.01
 -5 10 12 -3.63 0.01
 -10 12 5 -3.63 0.00
 -12 5 10 -3.63 0.01
 -12 -5 -10 -3.63 0.00
 -5 10 -12 -3.63 0.00
 -12 5 -10 -3.63 0.00
 -10 12 -5 -3.63 -0.01
 -10 12 6 0.06 0.02
 -12 6 10 0.06 0.01
 -12 -6 -10 0.05 -0.02
 -6 10 12 0.06 0.02
 -6 10 -12 0.06 -0.01
 -10 12 -6 0.06 0.00
 -12 6 -10 0.06 0.02
 -10 12 7 -2.04 -0.01
 -7 10 12 -2.04 0.01
 -12 -7 -10 -2.04 -0.01
 -12 7 10 -2.04 0.03
 -10 12 -7 -2.04 -0.01
 -7 10 -12 -2.04 0.00
 -12 7 -10 -2.04 0.00
 -10 12 8 -1.30 0.01
 -8 10 12 -1.29 0.03
 -12 8 10 -1.30 0.02
 -12 8 -10 -1.29 0.00
 -10 12 -8 -1.29 0.01
 -8 10 -12 -1.30 -0.01
 -10 12 9 -0.29 -0.01
 -12 9 10 -0.30 0.01
 -9 10 12 -0.29 -0.02
 -12 9 -10 -0.29 0.02
 -9 10 -12 -0.29 -0.02
 -10 12 -9 -0.30 0.00
 -10 12 10 -0.75 0.00
 -10 10 12 -0.75 0.00
 -12 10 10 -0.75 0.00
 -10 10 -12 -0.74 -0.02
 -10 12 -10 -0.74 0.01
 -12 10 -10 -0.74 0.01
 -12 11 10 0.77 0.03
 -11 10 12 0.78 0.01
 -10 12 11 0.78 0.00
 -12 11 -10 0.78 0.02
 -10 12 -11 0.77 0.00
 -11 10 -12 0.78 0.01
 -12 0 11 4.33 -0.02
 0 11 12 4.34 -0.05
 -12 0 -11 4.33 0.00
 -11 12 0 4.33 -0.04
 0 11 -12 4.33 -0.02
 -1 11 12 2.99 0.01
 -11 12 1 2.99 0.02
 -12 1 11 3.00 -0.03
 -12 -1 -11 2.99 0.01
 -12 -1 11 2.99 -0.01
 -11 12 -1 2.99 0.01
 -12 1 -11 2.99 0.01
 -1 11 -12 2.99 0.04
 1 11 12 3.00 0.00
 -11 12 2 1.86 -0.02
 -12 -2 -11 1.86 0.02
 -12 2 11 1.86 0.03
 -2 11 12 1.86 0.02
 -11 12 -2 1.86 0.04
 -12 2 -11 1.86 -0.01
 -12 -2 11 1.86 0.03
 -2 11 -12 1.86 -0.04
 -12 3 11 2.12 0.00
 -3 11 12 2.12 0.00
 -12 -3 -11 2.12 0.05
 -11 12 3 2.12 0.00
 -3 11 -12 2.12 0.01
 -12 3 -11 2.12 -0.02
 -11 12 -3 2.12 0.03
 -12 -4 -11 3.28 -0.02
 -11 12 4 3.28 0.00
 -4 11 12 3.28 -0.02
 -12 4 11 3.28 -0.03
 -11 12 -4 3.28 -0.03
 -4 11 -12 3.28 -0.01
 -12 4 -11 3.27 0.02
 -12 -5 -11 0.35 0.03
 -12 5 11 0.35 -0.02
 -5 11 12 0.35 -0.03
 -11 12 5 0.35 -0.01
 -5 11 -12 0.35 0.00
 -11 12 -5 0.35 -0.01
 -12 5 -11 0.35 -0.01
 -11 12 6 2.47 0.02
 -6 11 12 2.48 0.03
 -12 -6 -11 2.47 0.00
 -12 6 11 2.47 0.00
 -12 6 -11 2.47 0.02
 -11 12 -6 2.47 -0.01
 -6 11 -12 2.47 -0.02
 -7 11 12 -0.93 -0.02
 -12 -7 -11 -0.93 -0.02
 -12 7 11 -0.93 -0.01
 -11 12 7 -0.93 -0.02
 -7 11 -12 -0.93 0.01
 -12 7 -11 -0.93 0.00
 -11 12 -7 -0.93 -0.02
 -11 12 8 0.81 0.02
 -12 8 11 0.82 0.00
 -8 11 12 0.81 0.03
 -8 11 -12 0.82 0.00
 -11 12 -8 0.81 0.01
 -12 8 -11 0.81 -0.01
 -9 11 12 -1.07 0.01
 -12 9 11 -1.07 -0.01
 -11 12 9 -1.07 -0.01
 -9 11 -12 -1.07 0.00
 -12 9 -11 -1.08 0.00
 -11 12 -9 -1.07 0.01
 -10 11 12 -0.78 0.00
 -11 12 10 -0.78 -0.01
 -12 10 11 -0.77 -0.03
 -12 10 -11 -0.79 0.00
 -11 12 -10 -0.78 -0.01
 -10 11 -12 -0.78 -0.01
 -11 11 12 -0.65 0.01
 -12 11 11 -0.64 -0.03
 -11 12 11 -0.65 0.01
 -12 11 -11 -0.65 -0.02
 -11 12 -11 -0.65 -0.02
 -11 11 -12 -0.65 0.03
 -12 0 -12 -3.05 -0.01
 -12 0 12 -3.05 -0.04
 -12 12 0 -3.05 -0.04
 0 12 12 -3.05 -0.09
 -12 -2 -12 -4.85 0.00
 -2 12 12 -4.85 0.00
 -12 12 2 -4.85 0.02
 -12 2 12 -4.85 0.02
 -12 12 -2 -4.85 0.01
 -12 2 -12 -4.85 0.01
 -2 12 -12 -4.85 0.00
 -12 -2 12 -4.85 0.01
 2 12 12 -4.85 0.03
 -12 -4 -12 -1.93 -0.01
 -12 12 4 -1.93 -0.03
 -12 4 12 -1.93 -0.03
 -4 12 12 -1.92 -0.04
 -12 4 -12 -1.93 -0.01
 -4 12 -12 -1.93 -0.03
 -12 12 -4 -1.93 0.00
 -12 -6 -12 -0.01 -0.02
 -12 12 6 -0.02 0.02
 -12 6 12 -0.02 0.02
 -6 12 12 -0.01 0.04
 -12 6 -12 -0.01 0.01
 -6 12 -12 -0.02 -0.02
 -12 12 -6 -0.01 0.02
 -12 12 8 0.56 0.03
 -12 8 12 0.56 0.03
 -8 12 12 0.56 0.01
 -12 8 -12 0.57 -0.01
 -8 12 -12 0.57 0.00
 -12 12 -8 0.56 0.02
 -12 12 10 1.14 0.01
 -12 10 12 1.14 0.01
 -10 12 12 1.14 -0.02
 -12 10 -12 1.15 -0.01
 -10 12 -12 1.15 0.02
 -12 12 -10 1.15 0.00
 -12 12 12 3.87 0.01
 -12 12 -12 3.88 0.02
 -13 -1 0 -0.12 0.05
 -13 1 0 -0.12 -0.02
 0 13 -1 -0.12 0.02
 0 13 1 -0.12 0.04
 0 13 2 1.18 -0.02
 -13 -2 0 1.18 0.02
 -13 2 0 1.18 -0.03
 0 13 -2 1.18 -0.01
 -13 -3 0 -2.66 0.00
 -13 3 0 -2.66 0.00
 0 13 -3 -2.67 0.02
 0 13 3 -2.66 0.00
 -13 4 0 3.38 -0.02
 0 13 -4 3.38 -0.01
 -4 0 -13 3.38 0.05
 0 13 4 3.38 -0.02
 -13 -4 0 3.38 0.03
 -13 -5 0 -1.82 0.05
 -5 0 -13 -1.82 0.06
 -13 5 0 -1.82 -0.03
 0 13 5 -1.82 0.02
 0 13 -5 -1.81 0.01
 0 13 -6 2.40 0.00
 -13 -6 0 2.40 0.00
 0 13 6 2.40 0.00
 -6 0 -13 2.41 0.02
 -6 0 13 2.40 0.00
 -13 6 0 2.40 0.01
 0 13 -7 -2.75 0.00
 -7 0 -13 -2.75 0.03
 0 13 7 -2.76 0.03
 -7 0 13 -2.76 0.00
 -13 7 0 -2.76 0.02
 -13 -7 0 -2.76 -0.01
 -8 0 13 2.48 -0.03
 0 13 8 2.49 -0.03
 -13 8 0 2.48 -0.02
 -8 0 -13 2.49 0.00
 -9 0 -13 1.19 -0.05
 -13 9 0 1.19 -0.11
 0 13 9 1.19 -0.13
 -9 0 13 1.19 -0.04
 -10 0 -13 1.39 0.01
 -10 0 13 1.39 0.01
 0 13 10 1.39 0.02
 -13 10 0 1.39 0.01
 0 13 11 -0.98 -0.05
 -11 0 -13 -0.98 -0.03
 -11 0 13 -0.98 -0.02
 -13 11 0 -0.98 -0.07
 -12 0 13 2.24 -0.04
 -13 12 0 2.24 -0.04
 -12 0 -13 2.24 -0.01
 0 13 12 2.24 -0.07
 -13 0 1 -0.12 -0.02
 -1 13 0 -0.12 0.03
 1 13 0 -0.12 -0.05
 -13 0 -1 -0.12 0.05
 -13 2 1 0.68 0.03
 -13 -2 -1 0.68 -0.03
 1 13 -2 0.68 -0.04
 -1 13 2 0.68 0.01
 -1 13 -2 0.68 0.02
 -13 -2 1 0.68 -0.02
 1 13 2 0.69 0.01
 -13 2 -1 0.68 0.03
 1 13 -3 -1.76 0.01
 -13 -3 -1 -1.76 -0.05
 -1 13 3 -1.75 0.08
 -13 3 1 -1.76 0.02
 -13 3 -1 -1.76 0.09
 -1 13 -3 -1.76 -0.02
 1 13 3 -1.76 -0.07
 -3 1 -13 -1.76 -0.09
 -13 -3 1 -1.75 -0.11
 1 13 -4 1.96 -0.01
 -1 13 4 1.95 -0.06
 -13 4 1 1.96 0.04
 -13 -4 -1 1.96 -0.03
 -13 -4 1 1.95 -0.01
 -4 1 -13 1.96 -0.03
 1 13 4 1.96 0.05
 -13 4 -1 1.96 -0.01
 -1 13 -4 1.96 0.00
 -1 13 5 -0.56 -0.02
 -5 -1 -13 -0.56 -0.04
 -13 -5 -1 -0.56 0.05
 -13 5 1 -0.56 -0.06
 1 13 -5 -0.56 0.00
 -5 1 -13 -0.56 -0.02
 -13 -5 1 -0.56 -0.01
 -1 13 -5 -0.56 -0.03
 1 13 5 -0.56 -0.08
 -13 5 -1 -0.56 -0.04
 -6 -1 -13 -1.03 -0.01
 -1 13 6 -1.04 -0.03
 -13 -6 -1 -1.04 0.00
 -6 1 13 -1.04 -0.01
 -13 6 1 -1.04 -0.01
 -13 6 -1 -1.04 -0.04
 -6 1 -13 -1.04 0.01
 -13 -6 1 -1.04 0.00
 -6 -1 13 -1.04 0.01
 1 13 6 -1.04 -0.02
 -1 13 -6 -1.04 -0.01
 -1 13 7 -2.92 0.03
 -13 7 1 -2.92 0.01
 -7 1 13 -2.92 0.03
 -7 -1 -13 -2.92 0.02
 -13 -7 -1 -2.92 0.00
 -13 7 -1 -2.92 0.01
 -7 1 -13 -2.92 0.00
 1 13 7 -2.92 0.00
 -7 -1 13 -2.92 0.02
 -1 13 -7 -2.92 -0.02
 -8 -1 -13 -1.43 0.07
 -1 13 8 -1.43 0.04
 -13 8 1 -1.42 0.01
 -8 1 13 -1.43 0.05
 1 13 8 -1.43 0.03
 -1 13 -8 -1.43 0.05
 -8 1 -13 -1.42 -0.02
 -13 8 -1 -1.43 0.04
 -8 -1 13 -1.42 -0.03
 -1 13 9 1.08 0.11
 -13 9 1 1.09 0.07
 -9 -1 -13 1.08 0.15
 -9 1 13 1.08 0.14
 -9 1 -13 1.09 -0.07
 1 13 9 1.08 0.11
 -13 9 -1 1.07 0.17
 -1 13 -9 1.08 0.15
 -9 -1 13 1.09 -0.08
 -13 10 1 -1.35 0.08
 -10 -1 -13 -1.35 0.12
 -1 13 10 -1.35 0.10
 -10 1 13 -1.35 0.08
 -10 -1 13 -1.34 -0.05
 1 13 10 -1.35 0.10
 -10 1 -13 -1.34 -0.01
 -13 10 -1 -1.35 0.12
 -11 1 13 -1.13 -0.02
 -1 13 11 -1.13 0.02
 -13 11 1 -1.13 0.01
 -11 -1 -13 -1.13 0.00
 -11 -1 13 -1.13 0.01
 -13 11 -1 -1.13 0.01
 -11 1 -13 -1.13 0.01
 1 13 11 -1.13 0.01
 -12 1 13 0.53 0.03
 -12 -1 -13 0.53 0.02
 -13 12 1 0.53 0.02
 -1 13 12 0.53 0.03
 1 13 12 0.53 0.02
 -12 -1 13 0.53 -0.02
 -13 12 -1 0.53 0.00
 -12 1 -13 0.52 0.00
 -2 13 0 -1.18 -0.03
 2 13 0 -1.18 0.05
 -13 0 2 -1.18 0.03
 -13 0 -2 -1.18 -0.02
 -13 -1 -2 0.68 -0.03
 -2 13 1 0.68 -0.01
 -13 1 2 0.68 0.03
 2 13 -1 0.69 0.03
 -13 1 -2 0.68 -0.02
 -13 -1 2 0.68 0.04
 -2 13 -1 0.68 0.00
 2 13 1 0.69 0.05
 -13 3 2 -0.36 0.01
 -2 13 3 -0.36 0.00
 -13 -3 -2 -0.36 -0.02
 2 13 -3 -0.36 0.02
 -3 2 -13 -0.36 0.00
 2 13 3 -0.36 0.04
 -2 13 -3 -0.36 0.00
 -13 3 -2 -0.36 -0.01
 -13 -3 2 -0.36 0.02
 -13 -4 -2 0.75 -0.02
 -2 13 4 0.75 -0.02
 -13 4 2 0.75 -0.01
 -2 13 -4 0.75 -0.01
 2 13 4 0.75 0.01
 -13 4 -2 0.75 0.00
 -13 -4 2 0.75 0.02
 -4 2 -13 0.75 0.02
 -13 -5 -2 1.52 0.02
 -2 13 5 1.52 -0.05
 -13 5 2 1.52 -0.01
 -5 2 13 1.52 0.01
 -2 13 -5 1.52 0.01
 -13 5 -2 1.52 -0.04
 -13 -5 2 1.52 0.02
 2 13 5 1.52 0.03
 -5 2 -13 1.52 0.02
 -6 -2 -13 -0.50 0.00
 -2 13 6 -0.50 0.04
 -6 2 13 -0.51 -0.01
 -13 6 2 -0.51 0.04
 -13 -6 -2 -0.51 0.01
 -13 6 -2 -0.51 0.03
 -6 -2 13 -0.51 0.03
 2 13 6 -0.51 0.02
 -13 -6 2 -0.51 -0.01
 -2 13 -6 -0.51 0.01
 -6 2 -13 -0.50 0.03
 -2 13 7 2.36 -0.02
 -7 -2 -13 2.36 -0.02
 -13 7 2 2.36 -0.02
 -13 -7 -2 2.37 0.03
 -7 2 13 2.36 -0.02
 -13 7 -2 2.37 -0.01
 -7 -2 13 2.36 0.00
 2 13 7 2.36 -0.03
 -7 2 -13 2.36 0.02
 -2 13 -7 2.37 -0.02
 -8 -2 -13 -0.36 -0.13
 -2 13 8 -0.36 -0.13
 -8 2 13 -0.37 -0.17
 -13 -8 -2 -0.36 0.17
 -13 8 2 -0.38 -0.07
 -8 2 -13 -0.38 0.11
 2 13 8 -0.37 -0.11
 -13 8 -2 -0.36 -0.15
 -2 13 -8 -0.37 -0.15
 -8 -2 13 -0.38 0.05
 -2 13 9 3.76 0.05
 -9 2 13 3.76 0.06
 -13 9 2 3.77 0.01
 -9 -2 -13 3.76 0.04
 -9 -2 13 3.77 -0.05
 2 13 9 3.76 0.03
 -2 13 -9 3.76 0.09
 -9 2 -13 3.77 -0.02
 -13 9 -2 3.76 0.05
 -2 13 10 -1.83 -0.16
 -10 2 13 -1.84 -0.19
 -10 -2 -13 -1.84 -0.17
 -13 10 2 -1.85 -0.08
 -2 13 -10 -1.84 -0.17
 2 13 10 -1.84 -0.12
 -10 -2 13 -1.86 0.08
 -13 10 -2 -1.83 -0.17
 -10 2 -13 -1.85 0.12
 -11 2 13 1.83 -0.07
 -13 11 2 1.83 -0.06
 -11 -2 -13 1.83 -0.03
 -2 13 11 1.83 -0.05
 -11 -2 13 1.83 0.01
 -2 13 -11 1.84 -0.06
 -11 2 -13 1.83 -0.01
 2 13 11 1.83 -0.04
 -13 11 -2 1.83 -0.03
 -12 2 13 0.61 -0.02
 -12 -2 -13 0.61 0.00
 -2 13 12 0.61 0.00
 -13 12 2 0.61 0.02
 -12 -2 13 0.61 0.00
 -13 12 -2 0.61 0.02
 -12 2 -13 0.61 0.02
 2 13 12 0.61 0.02
 3 13 0 -2.67 0.01
 -3 13 0 -2.66 -0.02
 -13 0 3 -2.66 0.00
 -13 0 -3 -2.66 0.00
 -13 -1 -3 1.76 0.05
 3 13 -1 1.76 -0.09
 -3 13 1 1.76 0.07
 -13 1 3 1.76 -0.02
 3 13 1 1.76 -0.11
 -13 1 -3 1.75 0.11
 -3 13 -1 1.75 0.04
 -13 -1 3 1.76 -0.09
 -13 2 3 -0.36 0.01
 3 13 -2 -0.36 0.00
 -3 13 2 -0.36 0.01
 -13 -2 -3 -0.36 -0.02
 -2 3 -13 -0.36 -0.02
 -13 2 -3 -0.36 0.02
 -3 13 -2 -0.36 0.01
 -13 -2 3 -0.36 -0.01
 3 13 2 -0.36 -0.02
 -13 -4 -3 0.73 -0.02
 -3 13 4 0.73 -0.01
 -13 4 3 0.73 0.00
 -13 4 -3 0.73 0.01
 3 13 4 0.73 -0.02
 -3 13 -4 0.73 -0.02
 -4 3 -13 0.74 -0.01
 -13 -4 3 0.73 -0.04
 -5 3 13 -2.22 -0.04
 -13 5 3 -2.23 -0.04
 -3 13 5 -2.22 -0.05
 -13 -5 -3 -2.22 0.04
 -13 -5 3 -2.23 -0.01
 -5 3 -13 -2.23 0.02
 -3 13 -5 -2.22 -0.04
 3 13 5 -2.23 -0.02
 -13 5 -3 -2.22 -0.07
 -6 3 13 -1.70 -0.01
 -13 6 3 -1.69 0.01
 -3 13 6 -1.70 0.01
 -13 -6 -3 -1.69 0.02
 -3 13 -6 -1.69 0.00
 -13 6 -3 -1.69 -0.01
 3 13 6 -1.69 -0.01
 -6 3 -13 -1.69 0.01
 -6 -3 13 -1.70 0.01
 -13 -7 -3 -1.26 0.01
 -3 13 7 -1.26 0.04
 -7 -3 -13 -1.26 -0.01
 -13 7 3 -1.26 -0.01
 -7 3 13 -1.26 0.01
 -13 7 -3 -1.26 0.00
 3 13 7 -1.26 -0.04
 -7 3 -13 -1.26 0.02
 -7 -3 13 -1.26 0.01
 -3 13 -7 -1.26 -0.03
 -8 -3 -13 -1.47 0.08
 -8 3 13 -1.48 0.07
 -13 8 3 -1.47 0.03
 -3 13 8 -1.48 0.06
 -13 -8 -3 -1.48 -0.07
 3 13 8 -1.48 0.06
 -8 -3 13 -1.47 -0.03
 -3 13 -8 -1.48 0.05
 -13 8 -3 -1.48 0.06
 -8 3 -13 -1.47 -0.03
 -9 3 13 0.09 0.16
 -3 13 9 0.09 0.13
 -9 -3 -13 0.09 0.14
 -13 9 3 0.10 0.08
 3 13 9 0.10 0.11
 -3 13 -9 0.09 0.15
 -9 -3 13 0.11 -0.05
 -9 3 -13 0.10 -0.09
 -13 9 -3 0.09 0.16
 -13 10 3 -1.55 0.02
 -10 -3 -13 -1.55 0.07
 -3 13 10 -1.55 0.03
 -10 3 13 -1.55 0.05
 -10 3 -13 -1.55 -0.04
 -10 -3 13 -1.55 -0.04
 -13 10 -3 -1.55 0.05
 -3 13 -10 -1.55 0.06
 3 13 10 -1.55 0.03
 -11 -3 -13 0.57 0.01
 -11 3 13 0.57 0.02
 -3 13 11 0.57 0.02
 -13 11 3 0.57 0.02
 3 13 11 0.57 0.02
 -3 13 -11 0.57 0.01
 -13 11 -3 0.57 0.01
 -11 3 -13 0.57 0.00
 -13 12 3 0.54 0.02
 -12 -3 -13 0.54 0.00
 -12 3 13 0.55 0.00
 -3 13 12 0.54 0.02
 -3 13 -12 0.54 0.01
 -12 3 -13 0.54 0.01
 -13 12 -3 0.55 -0.03
 3 13 12 0.54 0.01
 -13 0 4 -3.38 0.02
 4 13 0 -3.38 0.05
 -4 13 0 -3.38 -0.02
 -13 0 -4 -3.38 -0.03
 -13 -1 -4 1.96 -0.03
 -13 1 4 1.96 0.04
 -4 13 1 1.95 0.01
 -4 13 -1 1.95 0.00
 -13 1 -4 1.95 -0.01
 -13 -1 4 1.96 -0.01
 4 13 1 1.96 0.02
 -13 2 4 -0.75 0.01
 -4 13 2 -0.74 -0.03
 -13 -2 -4 -0.75 0.02
 4 13 2 -0.75 0.05
 -13 2 -4 -0.75 -0.02
 -4 13 -2 -0.75 0.00
 -13 -2 4 -0.75 -0.01
 -2 4 -13 -0.74 -0.02
 -13 -3 -4 0.73 -0.02
 -4 13 3 0.73 -0.01
 -13 3 4 0.73 0.00
 -4 13 -3 0.73 -0.01
 -3 4 -13 0.73 0.02
 4 13 3 0.74 0.02
 -13 -3 4 0.73 0.01
 -13 3 -4 0.73 -0.04
 -4 13 5 -0.76 -0.01
 -13 -5 -4 -0.76 -0.01
 -13 5 4 -0.76 0.00
 -5 4 13 -0.76 -0.01
 -5 4 -13 -0.76 -0.01
 -13 5 -4 -0.76 0.00
 -4 13 -5 -0.76 0.04
 4 13 5 -0.76 0.01
 -13 -5 4 -0.76 0.00
 -6 4 13 0.72 0.01
 -13 6 4 0.73 0.01
 -13 -6 -4 0.73 -0.01
 -4 13 6 0.73 -0.01
 -13 6 -4 0.73 0.03
 -6 -4 13 0.72 0.01
 4 13 6 0.72 0.00
 -4 13 -6 0.73 -0.01
 -6 4 -13 0.73 0.00
 -13 -7 -4 1.90 0.00
 -13 7 4 1.90 -0.01
 -4 13 7 1.90 0.00
 -7 4 13 1.90 0.00
 -7 4 -13 1.90 0.00
 -4 13 -7 1.90 0.02
 -13 7 -4 1.90 0.01
 -7 -4 13 1.91 -0.02
 4 13 7 1.90 0.02
 -13 -8 -4 0.91 0.00
 -4 13 8 0.92 -0.02
 -8 4 13 0.91 -0.01
 -13 8 4 0.91 -0.01
 -8 -4 -13 0.92 0.04
 -13 8 -4 0.91 0.01
 -8 -4 13 0.91 -0.02
 4 13 8 0.91 0.00
 -8 4 -13 0.91 0.00
 -4 13 -8 0.91 0.00
 -9 4 13 -0.09 -0.06
 -13 -9 -4 -0.09 0.05
 -9 -4 -13 -0.10 -0.04
 -4 13 9 -0.10 -0.03
 -13 9 4 -0.10 -0.03
 -13 9 -4 -0.10 -0.03
 -4 13 -9 -0.09 -0.03
 -9 4 -13 -0.10 0.04
 -9 -4 13 -0.10 0.01
 -10 -4 -13 -0.61 -0.01
 -10 4 13 -0.61 -0.02
 -4 13 10 -0.60 -0.02
 -13 10 4 -0.61 -0.01
 -13 10 -4 -0.61 -0.01
 -4 13 -10 -0.61 0.00
 -10 4 -13 -0.61 0.02
 -13 11 4 -0.63 0.01
 -11 4 13 -0.63 -0.01
 -4 13 11 -0.63 0.00
 -11 -4 -13 -0.63 0.00
 -13 11 -4 -0.63 0.02
 -11 4 -13 -0.63 0.01
 -4 13 -11 -0.63 0.01
 -13 12 4 0.93 -0.02
 -12 -4 -13 0.93 0.04
 -12 4 13 0.93 -0.02
 -4 13 12 0.94 -0.02
 -4 13 -12 0.93 -0.02
 -12 4 -13 0.93 -0.03
 -13 12 -4 0.93 0.02
 -13 0 5 -1.82 -0.03
 -5 13 0 -1.82 0.03
 -13 0 -5 -1.82 0.05
 -5 13 1 0.56 0.03
 -13 1 5 0.56 0.06
 -13 -1 -5 0.56 -0.04
 -5 13 -1 0.56 -0.01
 5 13 1 0.56 -0.04
 -13 1 -5 0.56 0.01
 -13 -1 5 0.56 0.04
 -1 5 -13 0.56 0.00
 -5 13 2 1.52 0.01
 -13 2 5 1.52 -0.01
 -13 -2 -5 1.52 0.02
 -2 5 -13 1.53 0.01
 -13 -2 5 1.52 -0.04
 5 13 2 1.52 -0.03
 -13 2 -5 1.52 0.02
 -5 13 -2 1.52 0.01
 -13 3 5 2.23 0.04
 -13 -3 -5 2.22 -0.04
 -5 13 3 2.22 0.04
 -5 13 -3 2.23 -0.02
 -13 3 -5 2.23 0.01
 -3 5 -13 2.23 0.02
 5 13 3 2.22 -0.01
 -13 -3 5 2.22 0.07
 -4 5 13 -0.76 -0.01
 -13 4 5 -0.76 0.00
 -5 13 4 -0.76 -0.01
 -13 -4 -5 -0.76 -0.01
 -5 13 -4 -0.76 -0.01
 -4 5 -13 -0.76 0.01
 -13 -4 5 -0.76 0.00
 -13 4 -5 -0.76 0.00
 5 13 4 -0.76 0.00
 -13 -6 -5 -2.01 0.01
 -6 5 13 -2.02 -0.01
 -5 13 6 -2.01 -0.01
 -13 6 5 -2.02 -0.01
 -13 6 -5 -2.02 -0.01
 -6 -5 13 -2.02 0.01
 -5 13 -6 -2.01 -0.03
 -6 5 -13 -2.01 0.01
 5 13 6 -2.01 -0.01
 -7 5 13 1.45 0.01
 -13 7 5 1.45 0.00
 -13 -7 -5 1.45 0.01
 -5 13 7 1.45 0.00
 -13 7 -5 1.45 -0.02
 -7 5 -13 1.45 0.01
 -7 -5 13 1.45 -0.01
 -5 13 -7 1.45 0.00
 -5 13 8 -0.19 -0.02
 -8 5 13 -0.20 -0.02
 -13 -8 -5 -0.20 0.03
 -13 8 5 -0.20 0.00
 -13 8 -5 -0.20 -0.03
 -8 5 -13 -0.20 -0.01
 -5 13 -8 -0.20 0.00
 -13 -9 -5 0.45 0.01
 -9 5 13 0.45 0.00
 -5 13 9 0.45 -0.01
 -13 9 5 0.45 -0.02
 -5 13 -9 0.45 -0.01
 -9 5 -13 0.45 -0.02
 -13 9 -5 0.45 -0.01
 -10 5 13 0.35 -0.01
 -5 13 10 0.36 -0.02
 -13 10 5 0.35 -0.01
 -10 -5 -13 0.36 0.01
 -5 13 -10 0.36 -0.03
 -10 5 -13 0.35 0.00
 -13 10 -5 0.36 -0.02
 -11 -5 -13 0.87 0.01
 -11 5 13 0.87 0.01
 -13 11 5 0.87 0.00
 -5 13 11 0.87 0.02
 -11 5 -13 0.87 0.00
 -13 11 -5 0.87 -0.01
 -5 13 -11 0.87 0.00
 -12 -5 -13 1.34 0.00
 -5 13 12 1.34 -0.01
 -12 5 13 1.34 -0.02
 -13 12 5 1.34 -0.01
 -13 12 -5 1.34 -0.04
 -12 5 -13 1.34 0.02
 -5 13 -12 1.34 -0.03
 -13 0 6 -2.40 -0.01
 -6 13 0 -2.40 0.00
 -13 0 -6 -2.40 0.00
 -13 -1 -6 -1.04 0.00
 -13 1 6 -1.04 -0.01
 -6 13 1 -1.04 -0.01
 -6 13 -1 -1.04 0.01
 -13 1 -6 -1.04 0.00
 -1 6 -13 -1.04 0.01
 -13 -1 6 -1.04 -0.04
 -13 -2 -6 0.51 -0.01
 -13 2 6 0.51 -0.04
 -6 13 2 0.51 0.01
 -6 13 -2 0.51 -0.03
 -13 2 -6 0.51 0.01
 -2 6 -13 0.51 0.03
 -13 -2 6 0.51 -0.03
 6 13 2 0.50 0.00
 -6 13 3 -1.70 -0.01
 -13 -3 -6 -1.69 0.02
 -13 3 6 -1.69 0.01
 -3 6 13 -1.70 0.01
 6 13 3 -1.69 0.02
 -3 6 -13 -1.70 -0.02
 -13 -3 6 -1.69 -0.01
 -6 13 -3 -1.70 0.01
 -13 3 -6 -1.69 0.00
 -13 -4 -6 -0.73 0.01
 -4 6 13 -0.73 0.01
 -6 13 4 -0.72 -0.01
 -13 4 6 -0.73 -0.01
 -6 13 -4 -0.72 -0.01
 6 13 4 -0.73 0.00
 -13 4 -6 -0.73 -0.01
 -4 6 -13 -0.72 0.01
 -13 -4 6 -0.73 -0.03
 -13 -5 -6 -2.01 0.01
 -5 6 13 -2.01 -0.01
 -6 13 5 -2.02 -0.01
 -13 5 6 -2.01 -0.01
 -6 13 -5 -2.02 0.01
 -13 5 -6 -2.01 0.00
 6 13 5 -2.01 0.01
 -5 6 -13 -2.02 0.00
 -6 13 7 0.25 0.00
 -13 -7 -6 0.26 -0.01
 -13 7 6 0.26 0.00
 -7 6 13 0.26 -0.01
 -13 7 -6 0.26 0.02
 -7 6 -13 0.26 0.01
 -6 13 -7 0.25 0.01
 -6 13 8 1.00 0.03
 -13 8 6 1.00 0.01
 -13 -8 -6 1.00 -0.04
 -8 6 13 1.00 0.02
 -13 8 -6 1.00 0.04
 -8 6 -13 1.00 0.00
 -6 13 -8 1.00 0.02
 -9 6 13 -1.89 -0.02
 -6 13 9 -1.89 -0.01
 -13 9 6 -1.89 -0.01
 -13 -9 -6 -1.89 0.01
 -13 9 -6 -1.89 0.00
 -9 6 -13 -1.89 0.01
 -6 13 -9 -1.89 0.01
 -13 10 6 -0.59 0.04
 -6 13 10 -0.59 0.04
 -10 6 13 -0.59 0.02
 -6 13 -10 -0.59 0.04
 -10 6 -13 -0.59 -0.02
 -13 10 -6 -0.59 0.04
 -13 11 6 -1.48 0.04
 -11 6 13 -1.47 0.01
 -6 13 11 -1.48 0.01
 -6 13 -11 -1.47 0.05
 -13 11 -6 -1.47 0.00
 -11 6 -13 -1.47 0.03
 -13 12 6 -0.84 0.02
 -12 -6 -13 -0.84 0.02
 -12 6 13 -0.83 0.01
 -6 13 12 -0.83 0.02
 -6 13 -12 -0.83 0.02
 -12 6 -13 -0.84 -0.01
 -13 12 -6 -0.84 0.02
 -7 13 0 -2.76 0.00
 -13 0 7 -2.76 0.02
 0 7 -13 -2.75 0.00
 -13 0 -7 -2.76 -0.01
 -7 13 1 2.92 -0.03
 -13 -1 -7 2.92 0.00
 -13 1 7 2.92 -0.01
 -13 -1 7 2.92 -0.01
 -7 13 -1 2.92 -0.02
 -1 7 -13 2.92 -0.01
 -13 1 -7 2.92 0.00
 -13 -2 -7 2.37 0.03
 -13 2 7 2.36 -0.02
 -7 13 2 2.36 -0.02
 -13 2 -7 2.37 -0.05
 -13 -2 7 2.37 -0.01
 -2 7 -13 2.36 0.00
 -7 13 -2 2.36 0.00
 -7 13 3 1.26 -0.01
 -13 3 7 1.26 0.01
 -13 -3 -7 1.26 -0.01
 -3 7 13 1.26 -0.04
 7 13 3 1.26 -0.01
 -7 13 -3 1.26 -0.01
 -13 -3 7 1.26 0.01
 -3 7 -13 1.26 0.00
 -13 3 -7 1.26 -0.01
 -4 7 13 1.90 0.00
 -13 -4 -7 1.90 0.00
 -13 4 7 1.91 -0.01
 -7 13 4 1.90 0.00
 -13 4 -7 1.90 -0.01
 -4 7 -13 1.91 0.01
 -7 13 -4 1.91 -0.02
 -13 5 7 -1.45 0.00
 -5 7 13 -1.45 0.00
 -7 13 5 -1.45 -0.01
 -13 -5 -7 -1.45 -0.01
 -7 13 -5 -1.45 0.01
 -5 7 -13 -1.45 0.00
 -13 5 -7 -1.45 0.02
 -13 -6 -7 0.26 -0.01
 -6 7 13 0.25 0.00
 -7 13 6 0.26 -0.01
 -13 6 7 0.26 0.00
 -13 6 -7 0.26 -0.01
 -6 7 -13 0.26 -0.01
 -7 13 -6 0.26 0.00
 -13 -8 -7 1.42 0.01
 -13 8 7 1.41 0.00
 -7 13 8 1.42 -0.01
 -8 7 13 1.41 -0.01
 -8 7 -13 1.41 0.00
 -7 13 -8 1.42 0.00
 -13 8 -7 1.41 -0.02
 -13 9 7 0.09 -0.01
 -9 7 13 0.09 -0.01
 -13 -9 -7 0.09 0.01
 -7 13 9 0.09 -0.02
 -7 13 -9 0.09 -0.01
 -9 7 -13 0.09 0.01
 -13 9 -7 0.09 -0.02
 -13 10 7 0.71 0.00
 -10 7 13 0.70 -0.01
 -7 13 10 0.70 0.00
 -13 10 -7 0.70 -0.01
 -7 13 -10 0.70 -0.01
 -10 7 -13 0.70 -0.01
 -7 13 11 2.32 0.01
 -11 7 13 2.32 0.01
 -13 11 7 2.32 -0.01
 -11 7 -13 2.32 0.00
 -13 11 -7 2.33 0.02
 -7 13 -11 2.32 -0.02
 -12 7 13 0.41 0.00
 -13 12 7 0.41 -0.02
 -7 13 12 0.41 0.00
 -7 13 -12 0.41 -0.01
 -13 12 -7 0.41 -0.01
 -12 7 -13 0.41 -0.01
 0 8 -13 -2.48 0.02
 -13 0 -8 -2.48 0.00
 -8 13 0 -2.48 0.03
 -13 0 8 -2.48 0.02
 -13 1 8 -1.42 0.01
 -13 -1 -8 -1.43 -0.06
 -8 13 1 -1.43 0.05
 -1 8 -13 -1.42 0.03
 -13 1 -8 -1.42 0.07
 -13 -1 8 -1.43 0.05
 -8 13 -1 -1.42 -0.03
 -8 13 2 0.36 0.17
 -13 2 8 0.38 0.07
 -2 8 13 0.36 0.13
 -13 -2 -8 0.36 -0.17
 -13 -2 8 0.36 0.15
 -2 8 -13 0.38 0.05
 -13 2 -8 0.37 0.16
 -8 13 -2 0.38 -0.05
 -13 -3 -8 -1.48 -0.07
 -8 13 3 -1.48 0.07
 -13 3 8 -1.47 0.03
 -3 8 13 -1.48 0.06
 -13 3 -8 -1.48 0.09
 -13 -3 8 -1.48 0.06
 -3 8 -13 -1.47 0.02
 -8 13 -3 -1.47 -0.03
 -8 13 4 -0.91 0.01
 -13 4 8 -0.91 0.01
 -4 8 13 -0.92 0.02
 -13 -4 -8 -0.91 0.00
 -4 8 -13 -0.91 0.01
 -13 4 -8 -0.92 -0.01
 -8 13 -4 -0.91 0.02
 -13 -5 -8 -0.20 0.03
 -5 8 13 -0.20 -0.02
 -8 13 5 -0.20 -0.02
 -13 5 8 -0.20 0.00
 -13 5 -8 -0.20 -0.02
 -8 13 -5 -0.20 0.00
 -5 8 -13 -0.20 0.00
 -8 13 6 -1.00 -0.02
 -6 8 13 -1.00 -0.03
 -13 6 8 -1.00 -0.01
 -13 -6 -8 -1.00 0.04
 -6 8 -13 -1.00 0.00
 -13 6 -8 -1.00 -0.03
 -8 13 -6 -1.00 0.02
 -13 -7 -8 1.42 0.01
 -8 13 7 1.41 -0.01
 -13 7 8 1.41 0.00
 -7 8 13 1.42 -0.01
 -7 8 -13 1.42 0.01
 -13 7 -8 1.42 0.00
 -8 13 -7 1.41 -0.01
 -13 9 8 0.10 0.01
 -8 13 9 0.10 -0.01
 -9 8 13 0.10 0.01
 -13 9 -8 0.10 -0.01
 -9 8 -13 0.10 -0.01
 -8 13 -9 0.10 0.00
 -8 13 10 -1.44 0.00
 -13 10 8 -1.44 -0.01
 -10 8 13 -1.44 -0.02
 -13 10 -8 -1.44 0.00
 -10 8 -13 -1.44 0.00
 -8 13 -10 -1.44 -0.01
 -11 8 13 0.21 -0.01
 -13 11 8 0.21 -0.01
 -8 13 11 0.21 -0.02
 -11 8 -13 0.21 0.00
 -13 11 -8 0.21 0.00
 -8 13 -11 0.20 0.00
 -12 8 13 -2.49 0.00
 -13 12 8 -2.49 0.01
 -8 13 12 -2.49 0.03
 -13 12 -8 -2.49 0.01
 -8 13 -12 -2.49 -0.01
 -12 8 -13 -2.49 0.02
 -13 0 -9 1.19 0.02
 -13 0 9 1.19 -0.11
 -9 13 0 1.19 -0.04
 0 9 -13 1.19 0.04
 -13 -1 -9 -1.08 0.17
 -1 9 13 -1.08 -0.12
 -13 1 9 -1.09 -0.07
 -9 13 1 -1.08 -0.14
 -9 13 -1 -1.09 0.07
 -13 -1 9 -1.07 -0.17
 -13 1 -9 -1.08 -0.13
 -1 9 -13 -1.09 -0.02
 -13 -2 -9 3.76 -0.07
 -9 13 2 3.76 0.06
 -2 9 13 3.76 0.05
 -13 2 9 3.77 0.01
 -2 9 -13 3.77 0.02
 -9 13 -2 3.77 -0.05
 -13 -2 9 3.76 0.05
 -13 2 -9 3.76 0.06
 -13 3 9 -0.10 -0.08
 -9 13 3 -0.09 -0.16
 -3 9 13 -0.09 -0.13
 -13 -3 -9 -0.09 0.16
 -13 -3 9 -0.09 -0.16
 -3 9 -13 -0.11 -0.02
 -9 13 -3 -0.11 0.05
 -13 3 -9 -0.09 -0.15
 -9 13 4 -0.09 -0.06
 -4 9 13 -0.10 -0.03
 -13 -4 -9 -0.10 0.05
 -13 4 9 -0.10 -0.03
 -4 9 -13 -0.10 -0.02
 -13 4 -9 -0.10 -0.06
 -9 13 -4 -0.10 0.01
 -13 5 9 -0.45 0.02
 -13 -5 -9 -0.45 -0.02
 -9 13 5 -0.45 0.00
 -5 9 13 -0.45 0.01
 -9 13 -5 -0.45 0.00
 -5 9 -13 -0.44 0.02
 -13 5 -9 -0.45 -0.01
 -6 9 13 -1.89 -0.01
 -13 -6 -9 -1.89 0.01
 -13 6 9 -1.89 -0.01
 -9 13 6 -1.89 -0.02
 -9 13 -6 -1.89 0.00
 -6 9 -13 -1.89 -0.01
 -13 6 -9 -1.89 0.00
 -7 9 13 -0.09 0.02
 -13 7 9 -0.09 0.01
 -9 13 7 -0.09 0.01
 -13 -7 -9 -0.09 0.00
 -13 7 -9 -0.09 0.02
 -9 13 -7 -0.09 0.01
 -7 9 -13 -0.09 0.00
 -13 8 9 0.10 0.01
 -8 9 13 0.10 -0.01
 -13 -8 -9 0.10 -0.01
 -9 13 8 0.10 0.01
 -13 8 -9 0.10 0.00
 -9 13 -8 0.10 0.01
 -8 9 -13 0.10 0.01
 -9 13 10 0.97 0.00
 -10 9 13 0.97 0.00
 -13 10 9 0.97 0.00
 -9 13 -10 0.97 0.01
 -10 9 -13 0.97 0.01
 -13 10 -9 0.97 0.01
 -13 11 9 0.32 0.00
 -11 9 13 0.32 0.00
 -9 13 11 0.32 -0.01
 -11 9 -13 0.32 -0.01
 -13 11 -9 0.32 0.00
 -9 13 -11 0.32 0.00
 -9 13 12 -0.14 0.00
 -13 12 9 -0.14 0.00
 -12 9 13 -0.13 0.00
 -13 12 -9 -0.14 0.00
 -9 13 -12 -0.14 0.00
 -12 9 -13 -0.14 0.00
 -10 13 0 -1.39 -0.01
 -13 0 10 -1.40 -0.01
 0 10 -13 -1.39 0.00
 -13 0 -10 -1.39 0.00
 0 10 13 -1.40 -0.02
 -13 1 10 -1.35 0.08
 -10 13 1 -1.35 0.08
 -1 10 13 -1.35 0.10
 -13 -1 -10 -1.35 -0.11
 -1 10 -13 -1.34 0.00
 -13 -1 10 -1.35 0.12
 -13 1 -10 -1.34 0.08
 -10 13 -1 -1.34 -0.05
 -13 -2 -10 1.84 -0.23
 -10 13 2 1.84 0.19
 -13 2 10 1.85 0.08
 -2 10 13 1.83 0.16
 -10 13 -2 1.86 -0.08
 -13 2 -10 1.84 0.21
 -2 10 -13 1.85 0.06
 -13 -2 10 1.83 0.17
 -10 13 3 -1.55 0.05
 -3 10 13 -1.55 0.03
 -13 3 10 -1.55 0.02
 -13 -3 -10 -1.55 -0.07
 -13 3 -10 -1.55 0.06
 -3 10 -13 -1.54 0.02
 -10 13 -3 -1.55 -0.04
 -13 -4 -10 0.61 -0.01
 -10 13 4 0.61 0.02
 -13 4 10 0.61 0.01
 -4 10 13 0.60 0.01
 -10 13 -4 0.61 0.01
 -13 4 -10 0.60 0.01
 -4 10 -13 0.61 -0.01
 -5 10 13 0.36 -0.02
 -13 5 10 0.35 -0.01
 -10 13 5 0.35 -0.01
 -13 -5 -10 0.36 0.01
 -13 5 -10 0.35 -0.02
 -5 10 -13 0.36 0.00
 -10 13 -5 0.35 0.00
 -13 6 10 0.59 -0.04
 -6 10 13 0.59 -0.04
 -13 -6 -10 0.59 0.02
 -10 13 6 0.59 -0.02
 -10 13 -6 0.59 0.00
 -13 6 -10 0.59 -0.03
 -6 10 -13 0.59 0.00
 -7 10 13 0.70 0.00
 -13 7 10 0.71 0.00
 -10 13 7 0.70 -0.01
 -13 -7 -10 0.70 0.00
 -10 13 -7 0.70 0.01
 -7 10 -13 0.70 0.00
 -13 7 -10 0.70 0.01
 -10 13 8 1.44 0.02
 -13 -8 -10 1.44 0.01
 -13 8 10 1.44 0.01
 -8 10 13 1.44 0.00
 -13 8 -10 1.44 0.01
 -8 10 -13 1.44 0.00
 -10 13 -8 1.44 0.01
 -10 13 9 0.97 0.00
 -13 9 10 0.97 0.00
 -9 10 13 0.97 0.00
 -10 13 -9 0.96 -0.01
 -9 10 -13 0.97 0.01
 -13 9 -10 0.97 0.01
 -11 10 13 0.27 -0.01
 -13 11 10 0.27 0.00
 -10 13 11 0.28 0.00
 -11 10 -13 0.27 0.00
 -10 13 -11 0.27 0.01
 -13 11 -10 0.27 0.01
 -13 12 10 -1.44 0.00
 -10 13 12 -1.44 0.02
 -12 10 13 -1.43 -0.01
 -10 13 -12 -1.43 0.00
 -13 12 -10 -1.44 0.00
 -12 10 -13 -1.44 0.01
 0 11 13 -0.98 -0.05
 -11 13 0 -0.98 -0.02
 -13 0 11 -0.98 -0.07
 -13 0 -11 -0.99 0.02
 -13 1 11 1.13 -0.01
 -13 -1 -11 1.13 -0.02
 -1 11 13 1.13 -0.02
 -11 13 1 1.13 0.02
 -13 -1 11 1.13 -0.01
 -1 11 -13 1.13 0.02
 -11 13 -1 1.13 -0.01
 -13 1 -11 1.13 0.01
 -13 -2 -11 1.83 0.05
 -13 2 11 1.83 -0.06
 -11 13 2 1.83 -0.07
 -2 11 13 1.83 -0.05
 -2 11 -13 1.83 -0.04
 -11 13 -2 1.83 0.01
 -13 2 -11 1.83 -0.05
 -13 -2 11 1.83 -0.03
 -13 -3 -11 -0.57 0.02
 -3 11 13 -0.57 -0.02
 -11 13 3 -0.57 -0.02
 -13 3 11 -0.57 -0.02
 -11 13 -3 -0.57 0.00
 -3 11 -13 -0.57 -0.01
 -13 3 -11 -0.57 -0.01
 -13 4 11 -0.63 0.01
 -4 11 13 -0.63 0.01
 -11 13 4 -0.63 -0.01
 -13 -4 -11 -0.63 0.00
 -4 11 -13 -0.62 -0.01
 -13 4 -11 -0.63 -0.01
 -11 13 -4 -0.63 0.00
 -13 -5 -11 -0.87 0.00
 -13 5 11 -0.87 0.01
 -5 11 13 -0.87 -0.02
 -11 13 5 -0.87 -0.01
 -11 13 -5 -0.87 0.01
 -5 11 -13 -0.87 -0.01
 -13 5 -11 -0.87 -0.01
 -6 11 13 -1.48 0.01
 -13 -6 -11 -1.47 0.02
 -13 6 11 -1.48 0.04
 -11 13 6 -1.47 0.01
 -11 13 -6 -1.48 0.02
 -13 6 -11 -1.47 -0.02
 -6 11 -13 -1.47 0.02
 -13 -7 -11 -2.32 0.00
 -7 11 13 -2.32 0.00
 -11 13 7 -2.32 -0.01
 -13 7 11 -2.32 0.01
 -13 7 -11 -2.32 -0.01
 -7 11 -13 -2.32 0.00
 -11 13 -7 -2.32 0.01
 -11 13 8 0.21 -0.01
 -13 8 11 0.21 -0.01
 -8 11 13 0.21 -0.02
 -8 11 -13 0.21 0.00
 -13 8 -11 0.21 -0.01
 -11 13 -8 0.21 -0.01
 -11 13 9 -0.32 0.00
 -13 9 11 -0.32 0.00
 -9 11 13 -0.32 0.01
 -9 11 -13 -0.32 0.00
 -11 13 -9 -0.32 0.00
 -13 9 -11 -0.32 0.00
 -11 13 10 0.27 -0.01
 -10 11 13 0.28 0.00
 -13 10 11 0.27 0.00
 -13 10 -11 0.27 0.00
 -10 11 -13 0.27 -0.01
 -11 13 -10 0.27 -0.01
 -12 11 13 -1.86 -0.01
 -11 13 12 -1.86 0.00
 -13 12 11 -1.86 0.00
 -11 13 -12 -1.86 -0.02
 -12 11 -13 -1.87 -0.01
 -13 12 -11 -1.86 0.00
 -13 0 12 -2.24 0.04
 0 12 13 -2.24 0.07
 -12 13 0 -2.24 0.04
 -13 0 -12 -2.24 0.01
 -13 -1 -12 0.53 -0.03
 -12 13 1 0.53 0.03
 -1 12 13 0.53 0.03
 -13 1 12 0.53 0.02
 -13 -1 12 0.53 0.00
 -12 13 -1 0.53 -0.02
 -13 1 -12 0.53 0.03
 1 12 13 0.53 0.02
 -12 13 2 -0.61 0.02
 -13 -2 -12 -0.61 -0.02
 -13 2 12 -0.61 -0.02
 -2 12 13 -0.61 0.00
 -13 2 -12 -0.61 0.02
 -12 13 -2 -0.61 0.00
 -2 12 -13 -0.61 0.02
 -13 3 12 0.54 0.02
 -3 12 13 0.54 0.02
 -12 13 3 0.55 0.00
 -13 -3 -12 0.54 0.02
 -13 3 -12 0.54 0.00
 -12 13 -3 0.54 0.01
 -3 12 -13 0.54 0.03
 -13 -4 -12 -0.94 0.03
 -13 4 12 -0.93 0.02
 -4 12 13 -0.94 0.02
 -12 13 4 -0.94 0.02
 -4 12 -13 -0.93 0.02
 -12 13 -4 -0.93 0.02
 -13 4 -12 -0.93 -0.01
 -5 12 13 1.34 -0.01
 -13 -5 -12 1.34 0.02
 -12 13 5 1.34 -0.02
 -13 5 12 1.34 -0.01
 -13 5 -12 1.34 -0.02
 -5 12 -13 1.34 0.01
 -12 13 -5 1.34 0.01
 -13 6 12 0.84 -0.02
 -12 13 6 0.83 -0.01
 -13 -6 -12 0.83 0.02
 -6 12 13 0.83 -0.02
 -12 13 -6 0.84 0.01
 -6 12 -13 0.83 0.00
 -13 6 -12 0.83 -0.01
 -7 12 13 0.41 0.00
 -13 -7 -12 0.41 0.00
 -13 7 12 0.41 -0.02
 -12 13 7 0.41 0.00
 -13 7 -12 0.41 0.01
 -12 13 -7 0.41 -0.01
 -7 12 -13 0.41 0.01
 -13 8 12 2.49 -0.01
 -12 13 8 2.49 0.00
 -8 12 13 2.49 -0.03
 -13 8 -12 2.49 0.01
 -8 12 -13 2.49 0.00
 -12 13 -8 2.49 0.00
 -13 9 12 -0.14 0.00
 -9 12 13 -0.14 0.00
 -12 13 9 -0.13 0.00
 -12 13 -9 -0.14 0.00
 -13 9 -12 -0.14 0.02
 -9 12 -13 -0.14 -0.01
 -13 10 12 1.44 0.00
 -12 13 10 1.43 0.01
 -10 12 13 1.44 -0.02
 -10 12 -13 1.43 0.01
 -13 10 -12 1.44 0.00
 -12 13 -10 1.44 0.02
 -11 12 13 -1.86 0.00
 -13 11 12 -1.86 0.00
 -12 13 11 -1.86 -0.01
 -11 12 -13 -1.86 -0.01
 -12 13 -11 -1.87 0.01
 -13 11 -12 -1.86 0.00
 -13 0 -13 0.99 -0.01
 -13 0 13 0.99 0.03
 -13 13 0 0.99 0.03
 0 13 13 0.99 0.03
 -13 -2 -13 0.11 -0.01
 -2 13 13 0.10 -0.02
 -13 2 13 0.11 -0.03
 -13 13 2 0.11 -0.03
 -13 13 -2 0.11 -0.01
 -13 2 -13 0.11 0.00
 2 13 13 0.11 -0.04
 -13 -4 -13 -1.21 -0.02
 -13 13 4 -1.21 0.03
 -13 4 13 -1.21 0.03
 -4 13 13 -1.22 -0.01
 -13 4 -13 -1.21 0.01
 -4 13 -13 -1.21 0.02
 -13 13 -4 -1.21 0.00
 -13 -6 -13 -1.41 0.00
 -13 13 6 -1.41 -0.01
 -13 6 13 -1.41 -0.01
 -6 13 13 -1.41 -0.02
 -13 6 -13 -1.41 -0.01
 -6 13 -13 -1.41 0.01
 -13 13 -6 -1.41 -0.01
 -13 13 8 -0.25 0.00
 -13 8 13 -0.25 -0.01
 -8 13 13 -0.25 0.00
 -13 8 -13 -0.25 0.00
 -8 13 -13 -0.25 0.00
 -13 13 -8 -0.25 0.00
 -13 13 10 1.55 0.01
 -13 10 13 1.55 0.01
 -10 13 13 1.55 -0.01
 -13 10 -13 1.55 0.00
 -10 13 -13 1.55 0.01
 -13 13 -10 1.55 0.00
 -13 13 12 -0.30 0.00
 -13 12 13 -0.30 0.00
 -12 13 13 -0.30 0.01
 -13 12 -13 -0.30 -0.01
 -12 13 -13 -0.30 -0.01
 -13 13 -12 -0.30 0.00
 -14 0 0 2.20 -0.01
 0 14 0 2.20 -0.03
 -14 -1 0 -1.52 -0.02
 -14 1 0 -1.51 0.01
 0 14 -1 -1.52 0.00
 0 14 1 -1.52 0.01
 0 14 2 -1.21 -0.02
 0 14 -2 -1.21 0.00
 -14 2 0 -1.21 0.00
 -14 -2 0 -1.21 0.01
 0 14 -3 -5.67 0.01
 -14 3 0 -5.67 -0.02
 0 14 3 -5.67 0.00
 -14 -3 0 -5.67 0.06
 0 14 4 -6.66 -0.03
 -14 -4 0 -6.66 0.01
 -14 4 0 -6.66 -0.01
 0 14 -4 -6.67 -0.02
 -5 0 -14 -10.80 0.00
 0 14 -5 -10.80 0.04
 0 14 5 -10.81 0.08
 -14 -5 0 -10.80 -0.01
 -14 5 0 -10.80 0.09
 -6 0 -14 -4.75 -0.01
 -6 0 14 -4.74 0.01
 0 14 6 -4.74 -0.01
 -14 6 0 -4.74 0.01
 -14 -6 0 -4.74 0.02
 0 14 7 -5.15 0.03
 -7 0 -14 -5.15 0.01
 -7 0 14 -5.15 0.01
 -14 7 0 -5.15 0.01
 0 14 8 -0.75 0.20
 -8 0 14 -0.74 0.10
 -8 0 -14 -0.75 0.02
 -14 8 0 -0.75 0.21
 -9 0 14 -5.48 -0.11
 -14 9 0 -5.47 -0.29
 -9 0 -14 -5.48 -0.09
 0 14 9 -5.47 -0.30
 -10 0 14 0.96 0.03
 0 14 10 0.95 0.09
 -10 0 -14 0.96 0.03
 -14 10 0 0.95 0.12
 -11 0 14 -0.68 -0.01
 -14 11 0 -0.68 0.00
 -11 0 -14 -0.68 -0.01
 0 14 11 -0.68 -0.01
 -12 0 14 -0.88 0.01
 -12 0 -14 -0.88 -0.01
 0 14 12 -0.88 0.01
 -14 12 0 -0.89 0.04
 -13 0 -14 0.81 0.02
 -14 13 0 0.81 0.05
 0 14 13 0.80 0.06
 -13 0 14 0.81 0.02
 -14 0 1 1.51 -0.01
 1 14 0 1.52 -0.02
 -1 14 0 1.52 0.01
 -14 0 -1 1.52 0.02
 -1 14 1 -0.98 -0.02
 -14 -1 -1 -0.98 -0.02
 1 14 -1 -0.98 0.01
 -14 1 1 -0.98 -0.01
 -14 1 -1 -0.98 -0.03
 1 14 1 -0.98 -0.01
 -14 -1 1 -0.98 -0.03
 -1 14 -1 -0.98 -0.03
 1 14 -2 3.62 -0.01
 -14 -2 -1 3.62 -0.01
 -14 2 1 3.62 0.00
 -1 14 2 3.62 -0.03
 -14 -2 1 3.62 0.03
 -1 14 -2 3.62 0.02
 1 14 2 3.62 0.03
 -14 2 -1 3.62 0.00
 -1 14 3 5.58 0.05
 -14 3 1 5.58 -0.07
 1 14 -3 5.58 0.00
 -14 -3 -1 5.58 0.03
 1 14 3 5.58 -0.05
 -14 3 -1 5.58 0.01
 -1 14 -3 5.58 -0.02
 -14 -3 1 5.58 -0.01
 -1 14 4 6.86 -0.04
 -14 -4 -1 6.86 -0.04
 -14 4 1 6.86 0.01
 -1 14 -4 6.86 0.01
 1 14 4 6.86 0.06
 -14 4 -1 6.86 -0.03
 -4 1 -14 6.85 0.00
 -14 -4 1 6.86 0.02
 -14 5 1 7.77 0.00
 -14 -5 -1 7.76 -0.02
 -1 14 5 7.77 0.07
 -5 1 14 7.77 -0.03
 1 14 5 7.77 -0.03
 -14 5 -1 7.77 0.05
 -5 1 -14 7.77 0.00
 -1 14 -5 7.77 0.01
 -14 -5 1 7.76 -0.07
 -6 1 14 8.50 -0.01
 -14 6 1 8.50 -0.03
 -6 -1 -14 8.49 -0.02
 -1 14 6 8.49 -0.03
 -14 -6 -1 8.49 -0.01
 -14 -6 1 8.49 0.00
 -6 1 -14 8.49 0.00
 -14 6 -1 8.50 -0.03
 -1 14 -6 8.50 0.00
 -6 -1 14 8.50 -0.02
 1 14 6 8.49 -0.01
 -7 -1 -14 6.62 0.04
 -1 14 7 6.62 0.01
 -14 7 1 6.63 -0.01
 -7 1 14 6.62 0.03
 1 14 7 6.63 0.03
 -1 14 -7 6.62 0.07
 -7 1 -14 6.63 -0.05
 -7 -1 14 6.63 -0.05
 -14 7 -1 6.62 0.03
 -1 14 8 4.07 0.03
 -8 -1 -14 4.06 0.00
 -14 8 1 4.07 0.03
 -8 1 14 4.07 0.01
 -8 -1 14 4.07 0.01
 -8 1 -14 4.06 0.00
 1 14 8 4.07 0.01
 -14 8 -1 4.07 0.00
 -9 -1 -14 -1.47 -0.13
 -1 14 9 -1.46 -0.14
 -9 1 14 -1.46 -0.14
 -14 9 1 -1.47 -0.11
 -9 1 -14 -1.47 0.06
 -14 9 -1 -1.46 -0.19
 1 14 9 -1.46 -0.11
 -9 -1 14 -1.47 0.05
 -1 14 10 0.61 -0.01
 -10 1 14 0.61 0.04
 -10 -1 -14 0.61 0.04
 -14 10 1 0.61 -0.04
 -10 -1 14 0.61 -0.03
 -14 10 -1 0.62 -0.02
 1 14 10 0.61 -0.02
 -10 1 -14 0.61 -0.04
 -1 14 11 -0.10 0.06
 -14 11 1 -0.09 0.04
 -11 1 14 -0.10 0.06
 -11 -1 -14 -0.09 0.06
 -11 1 -14 -0.09 -0.01
 -14 11 -1 -0.10 0.06
 -11 -1 14 -0.09 0.00
 1 14 11 -0.09 0.05
 -1 14 12 0.65 0.02
 -12 1 14 0.65 0.03
 -12 -1 -14 0.66 0.02
 -14 12 1 0.65 0.01
 1 14 12 0.65 0.00
 -14 12 -1 0.66 0.03
 -12 1 -14 0.66 -0.01
 -12 -1 14 0.65 -0.01
 -13 -1 -14 1.14 0.00
 -14 13 1 1.14 -0.02
 -1 14 13 1.14 -0.01
 -13 1 14 1.14 -0.01
 -14 13 -1 1.14 0.00
 1 14 13 1.14 0.00
 -13 1 -14 1.14 0.01
 -14 0 2 -1.21 0.00
 2 14 0 -1.21 0.00
 -2 14 0 -1.21 0.00
 -14 0 -2 -1.21 0.01
 -14 -1 -2 -3.62 0.01
 2 14 -1 -3.62 0.01
 -2 14 1 -3.62 -0.01
 -14 1 2 -3.62 0.00
 -14 1 -2 -3.62 -0.03
 2 14 1 -3.62 0.00
 -14 -1 2 -3.62 0.00
 -14 2 2 -4.88 0.02
 2 14 -2 -4.89 -0.01
 -2 14 2 -4.88 -0.02
 -14 -2 -2 -4.89 0.02
 2 14 2 -4.89 -0.01
 -2 14 -2 -4.88 -0.02
 -14 -2 2 -4.88 -0.02
 -14 2 -2 -4.88 -0.02
 -2 14 3 -4.93 0.01
 -14 -3 -2 -4.93 0.04
 -14 3 2 -4.93 0.02
 -3 2 -14 -4.93 0.02
 2 14 3 -4.93 0.03
 -14 -3 2 -4.93 0.02
 -14 3 -2 -4.93 0.00
 -2 14 -3 -4.93 0.01
 -14 -4 -2 -10.13 0.01
 -14 4 2 -10.14 0.02
 -2 14 4 -10.14 -0.01
 2 14 4 -10.14 -0.01
 -4 2 -14 -10.14 -0.01
 -2 14 -4 -10.14 0.01
 -14 -4 2 -10.14 0.03
 -14 4 -2 -10.14 0.00
 -14 -5 -2 -6.03 0.02
 -14 5 2 -6.03 0.02
 -5 2 14 -6.03 0.00
 -2 14 5 -6.03 0.02
 2 14 5 -6.03 -0.02
 -14 -5 2 -6.03 -0.01
 -2 14 -5 -6.03 0.00
 -5 2 -14 -6.03 -0.01
 -14 5 -2 -6.03 0.01
 -14 -6 -2 -7.79 0.03
 -14 6 2 -7.79 0.02
 -6 2 14 -7.78 0.00
 -2 14 6 -7.79 0.02
 -2 14 -6 -7.79 -0.03
 2 14 6 -7.79 0.02
 -6 2 -14 -7.79 0.01
 -14 6 -2 -7.79 0.03
 -6 -2 14 -7.79 0.01
 -14 -7 -2 -2.45 -0.18
 -7 -2 -14 -2.45 0.13
 -7 2 14 -2.45 0.17
 -14 7 2 -2.44 0.08
 -2 14 7 -2.45 0.12
 -7 2 -14 -2.44 -0.12
 -7 -2 14 -2.43 -0.06
 2 14 7 -2.44 0.12
 -14 7 -2 -2.46 0.16
 -2 14 -7 -2.45 0.16
 -8 -2 -14 -3.66 -0.13
 -8 2 14 -3.65 -0.12
 -14 8 2 -3.66 -0.06
 -2 14 8 -3.65 -0.11
 -8 2 -14 -3.66 0.05
 -8 -2 14 -3.66 0.06
 -14 8 -2 -3.65 -0.12
 2 14 8 -3.66 -0.11
 -2 14 -8 -3.65 -0.14
 -9 2 14 -1.50 -0.01
 -14 9 2 -1.50 0.04
 -9 -2 -14 -1.50 -0.03
 -2 14 9 -1.50 0.03
 -9 2 -14 -1.50 0.02
 -9 -2 14 -1.50 0.02
 2 14 9 -1.50 0.04
 -14 9 -2 -1.50 0.02
 -2 14 10 -2.49 -0.19
 -10 2 14 -2.49 -0.15
 -10 -2 -14 -2.50 -0.15
 -14 10 2 -2.50 -0.11
 2 14 10 -2.50 -0.17
 -14 10 -2 -2.49 -0.19
 -10 2 -14 -2.50 0.05
 -10 -2 14 -2.50 0.05
 -2 14 11 0.25 0.15
 -11 -2 -14 0.26 0.17
 -11 2 14 0.26 0.17
 -14 11 2 0.27 0.09
 2 14 11 0.26 0.12
 -14 11 -2 0.25 0.19
 -11 -2 14 0.27 -0.07
 -11 2 -14 0.27 -0.10
 -2 14 12 -1.17 -0.01
 -14 12 2 -1.18 0.03
 -12 2 14 -1.18 -0.03
 -12 -2 -14 -1.17 -0.04
 2 14 12 -1.18 0.00
 -14 12 -2 -1.18 0.00
 -12 2 -14 -1.17 0.03
 -13 2 14 -0.58 -0.02
 -13 -2 -14 -0.58 0.01
 -14 13 2 -0.58 -0.03
 -2 14 13 -0.58 -0.01
 -13 2 -14 -0.58 -0.01
 -14 13 -2 -0.58 0.01
 2 14 13 -0.58 0.00
 -14 0 -3 5.67 -0.05
 -14 0 3 5.66 0.02
 -3 14 0 5.67 -0.03
 3 14 0 5.67 0.04
 -14 1 3 5.58 -0.07
 -3 14 1 5.58 0.00
 -14 -1 -3 5.58 0.03
 -3 14 -1 5.58 0.03
 -14 1 -3 5.58 -0.01
 3 14 1 5.58 -0.03
 -14 -1 3 5.58 0.01
 -3 14 2 4.92 -0.02
 -14 -2 -3 4.93 -0.04
 -14 2 3 4.93 -0.02
 -14 -2 3 4.93 0.00
 3 14 2 4.93 0.00
 -14 2 -3 4.93 -0.02
 -3 14 -2 4.93 -0.03
 -14 -3 -3 8.22 0.03
 -3 14 3 8.22 0.00
 -14 3 3 8.22 -0.01
 3 14 3 8.22 0.02
 -3 3 -14 8.22 0.01
 -14 -3 3 8.21 0.00
 -3 14 -3 8.22 0.02
 -14 3 -3 8.21 0.00
 -14 -4 -3 7.29 -0.01
 -14 4 3 7.29 0.00
 -3 14 4 7.29 0.01
 -14 -4 3 7.29 -0.01
 -14 4 -3 7.29 0.02
 -4 3 -14 7.28 -0.01
 3 14 4 7.29 0.00
 -3 14 -4 7.29 0.01
 -14 5 3 8.60 -0.02
 -3 14 5 8.60 0.03
 -5 3 14 8.59 0.01
 -14 -5 -3 8.59 -0.02
 -14 -5 3 8.59 0.00
 -5 3 -14 8.59 0.02
 -3 14 -5 8.59 -0.01
 -14 5 -3 8.59 0.01
 3 14 5 8.59 -0.02
 -14 -6 -3 6.52 0.00
 -3 14 6 6.53 -0.02
 -6 3 14 6.53 -0.01
 -14 6 3 6.53 0.00
 -6 3 -14 6.52 -0.01
 -6 -3 14 6.53 -0.01
 3 14 6 6.53 0.04
 -3 14 -6 6.52 0.02
 -14 6 -3 6.52 -0.01
 -14 -7 -3 5.02 -0.08
 -7 3 14 5.03 0.04
 -3 14 7 5.03 0.05
 -14 7 3 5.04 0.04
 -7 3 -14 5.03 -0.02
 -3 14 -7 5.03 0.05
 3 14 7 5.03 0.03
 -14 7 -3 5.03 0.05
 -7 -3 14 5.04 0.00
 -8 -3 -14 2.40 0.00
 -8 3 14 2.40 0.00
 -14 8 3 2.40 -0.01
 -14 -8 -3 2.39 0.00
 -3 14 8 2.40 -0.01
 -8 -3 14 2.40 0.01
 3 14 8 2.40 0.00
 -8 3 -14 2.40 -0.01
 -14 8 -3 2.40 -0.01
 -3 14 -8 2.40 -0.01
 -3 14 9 0.95 -0.10
 -14 9 3 0.95 -0.05
 -9 3 14 0.95 -0.12
 -9 -3 -14 0.95 -0.11
 -9 -3 14 0.94 0.05
 -9 3 -14 0.94 0.06
 -14 9 -3 0.96 -0.12
 -3 14 -9 0.95 -0.11
 3 14 9 0.95 -0.06
 -3 14 10 -0.07 0.01
 -14 10 3 -0.07 0.00
 -10 -3 -14 -0.07 -0.02
 -10 3 14 -0.07 0.02
 -3 14 -10 -0.07 0.00
 -10 3 -14 -0.07 -0.01
 -14 10 -3 -0.07 -0.01
 3 14 10 -0.07 0.00
 -11 -3 -14 1.71 0.10
 -14 11 3 1.71 0.03
 -3 14 11 1.71 0.09
 -11 3 14 1.71 0.09
 3 14 11 1.71 0.07
 -11 3 -14 1.71 -0.04
 -14 11 -3 1.71 0.09
 -12 3 14 0.20 -0.01
 -14 12 3 0.21 -0.03
 -12 -3 -14 0.20 -0.01
 -3 14 12 0.20 -0.02
 3 14 12 0.20 -0.03
 -14 12 -3 0.20 -0.02
 -12 3 -14 0.21 0.00
 -13 -3 -14 1.46 -0.01
 -3 14 13 1.46 -0.01
 -13 3 14 1.47 -0.01
 -14 13 3 1.47 -0.01
 3 14 13 1.47 -0.01
 -14 13 -3 1.46 0.00
 -13 3 -14 1.47 0.01
 -14 0 4 -6.66 -0.01
 -14 0 -4 -6.66 0.01
 -4 14 0 -6.66 -0.02
 -14 -1 -4 -6.86 0.04
 -4 14 1 -6.86 -0.02
 -14 1 4 -6.86 -0.01
 -14 1 -4 -6.86 -0.02
 4 14 1 -6.86 0.02
 -4 14 -1 -6.86 0.00
 -14 -1 4 -6.86 0.03
 -4 14 2 -10.13 0.00
 -14 2 4 -10.14 0.02
 -14 -2 -4 -10.14 0.01
 -2 4 -14 -10.14 -0.01
 -14 -2 4 -10.14 0.00
 -4 14 -2 -10.14 -0.02
 4 14 2 -10.14 -0.01
 -14 2 -4 -10.14 0.03
 -14 3 4 -7.29 0.00
 -4 14 3 -7.29 0.00
 -14 -3 -4 -7.29 0.01
 -3 4 -14 -7.29 0.00
 -4 14 -3 -7.29 0.01
 -14 3 -4 -7.29 0.01
 -14 -3 4 -7.29 -0.01
 4 14 3 -7.29 -0.02
 -4 14 4 -8.00 0.00
 -14 4 4 -8.01 0.01
 -14 -4 -4 -8.00 0.04
 -4 4 14 -8.00 0.00
 -4 4 -14 -8.01 0.00
 -14 -4 4 -8.00 0.00
 -4 14 -4 -8.00 -0.01
 -14 4 -4 -8.00 0.00
 4 14 4 -8.00 0.00
 -5 4 14 -6.32 0.05
 -14 5 4 -6.32 0.02
 -14 -5 -4 -6.32 -0.04
 -4 14 5 -6.33 0.04
 4 14 5 -6.32 0.00
 -4 14 -5 -6.33 0.03
 -14 5 -4 -6.32 0.04
 -5 4 -14 -6.32 -0.01
 -6 4 14 -4.56 -0.01
 -14 -6 -4 -4.55 0.02
 -4 14 6 -4.56 -0.01
 -14 6 4 -4.56 0.00
 -14 6 -4 -4.56 -0.01
 -6 -4 14 -4.56 0.00
 4 14 6 -4.56 -0.02
 -6 4 -14 -4.56 0.00
 -4 14 -6 -4.55 -0.02
 -14 7 4 -3.99 0.03
 -14 -7 -4 -3.99 0.00
 -7 4 14 -3.99 0.00
 -4 14 7 -4.00 0.02
 -14 7 -4 -3.99 0.00
 -7 4 -14 -3.99 0.02
 -4 14 -7 -3.99 0.01
 -7 -4 14 -3.99 0.01
 4 14 7 -3.99 0.01
 -8 4 14 -1.64 0.07
 -14 8 4 -1.64 0.04
 -14 -8 -4 -1.64 -0.06
 -4 14 8 -1.64 0.06
 4 14 8 -1.64 0.02
 -8 -4 14 -1.63 -0.01
 -4 14 -8 -1.64 0.03
 -14 8 -4 -1.64 0.07
 -8 4 -14 -1.64 -0.04
 -9 4 14 -2.90 -0.15
 -4 14 9 -2.90 -0.16
 -14 9 4 -2.90 -0.09
 -9 -4 -14 -2.90 -0.14
 -9 4 -14 -2.91 0.08
 -4 14 -9 -2.90 -0.15
 -14 9 -4 -2.89 -0.17
 4 14 9 -2.90 -0.13
 -10 4 14 -0.77 0.07
 -10 -4 -14 -0.77 0.05
 -14 10 4 -0.77 0.04
 -4 14 10 -0.77 0.06
 -10 4 -14 -0.77 -0.03
 4 14 10 -0.77 0.05
 -14 10 -4 -0.78 0.07
 -4 14 -10 -0.78 0.07
 -11 4 14 -1.62 -0.01
 -14 11 4 -1.62 0.01
 -4 14 11 -1.62 -0.02
 -11 -4 -14 -1.62 0.01
 -14 11 -4 -1.62 0.00
 4 14 11 -1.62 0.00
 -11 4 -14 -1.62 -0.01
 -4 14 -11 -1.62 0.01
 -14 12 4 -0.71 -0.01
 -12 4 14 -0.71 0.00
 -12 -4 -14 -0.71 -0.02
 -4 14 12 -0.71 0.00
 -4 14 -12 -0.71 -0.04
 -14 12 -4 -0.71 0.01
 4 14 12 -0.71 -0.02
 -12 4 -14 -0.71 -0.02
 -4 14 13 -0.72 0.02
 -13 4 14 -0.71 0.03
 -13 -4 -14 -0.72 0.04
 -13 4 -14 -0.71 -0.02
 -14 13 -4 -0.72 0.05
 4 14 13 -0.71 0.03
 -14 0 5 10.80 -0.09
 -14 0 -5 10.80 0.01
 -5 14 0 10.80 -0.01
 -5 14 1 7.77 -0.03
 -14 1 5 7.77 0.00
 -14 -1 -5 7.76 -0.02
 -14 -1 5 7.77 0.05
 -5 14 -1 7.77 0.00
 -14 1 -5 7.76 -0.07
 -14 -2 -5 6.03 -0.02
 -14 2 5 6.04 -0.02
 -5 14 2 6.03 0.00
 -5 14 -2 6.03 0.01
 -14 -2 5 6.03 -0.01
 5 14 2 6.03 -0.01
 -14 2 -5 6.03 0.00
 -2 5 -14 6.03 0.00
 -14 -3 -5 8.59 -0.02
 -5 14 3 8.59 0.01
 -14 3 5 8.60 -0.02
 -14 -3 5 8.59 0.01
 -3 5 -14 8.60 0.00
 -5 14 -3 8.59 0.01
 5 14 3 8.59 0.00
 -14 3 -5 8.59 0.00
 -14 4 5 6.32 -0.02
 -5 14 4 6.32 -0.05
 -14 -4 -5 6.32 0.04
 -4 5 14 6.33 -0.04
 -14 -4 5 6.32 -0.04
 -14 4 -5 6.32 -0.05
 5 14 4 6.32 0.04
 -4 5 -14 6.31 -0.01
 -5 14 -4 6.32 0.02
 -5 14 5 7.32 0.04
 -14 5 5 7.32 0.02
 -14 -5 -5 7.31 -0.03
 -5 5 14 7.32 0.04
 5 14 5 7.31 0.00
 -14 5 -5 7.31 0.03
 -5 5 -14 7.32 -0.02
 -5 14 -5 7.32 0.02
 -6 5 14 4.72 -0.01
 -5 14 6 4.72 0.00
 -14 -6 -5 4.71 0.00
 -14 6 5 4.72 -0.02
 -6 -5 14 4.72 0.00
 -6 5 -14 4.72 -0.02
 5 14 6 4.72 -0.01
 -14 6 -5 4.72 -0.01
 -5 14 -6 4.72 0.00
 -5 14 7 2.87 0.00
 -14 -7 -5 2.87 0.01
 -7 5 14 2.87 0.00
 -14 7 5 2.87 -0.01
 -5 14 -7 2.87 0.00
 -7 5 -14 2.87 0.01
 5 14 7 2.87 -0.01
 -14 7 -5 2.87 -0.02
 -8 5 14 1.93 0.01
 -14 -8 -5 1.93 0.00
 -5 14 8 1.93 0.00
 -14 8 5 1.93 0.01
 -14 8 -5 1.93 0.00
 -8 5 -14 1.93 -0.03
 5 14 8 1.93 0.00
 -5 14 -8 1.93 0.01
 -5 14 9 -0.13 -0.01
 -14 9 5 -0.12 0.00
 -9 5 14 -0.13 0.01
 -14 -9 -5 -0.13 0.00
 -14 9 -5 -0.12 -0.01
 5 14 9 -0.12 0.00
 -9 5 -14 -0.12 0.01
 -5 14 -9 -0.12 0.01
 -14 10 5 1.76 -0.02
 -5 14 10 1.75 0.00
 -10 5 14 1.75 0.01
 -14 10 -5 1.75 0.02
 -10 5 -14 1.76 -0.02
 -5 14 -10 1.76 0.00
 -14 11 5 1.23 -0.02
 -5 14 11 1.23 -0.02
 -11 5 14 1.23 -0.01
 -11 -5 -14 1.23 -0.01
 -14 11 -5 1.23 -0.02
 -5 14 -11 1.23 -0.02
 -11 5 -14 1.23 0.00
 -5 14 12 1.49 0.01
 -12 5 14 1.49 0.01
 -14 12 5 1.49 -0.01
 -12 -5 -14 1.49 -0.03
 -5 14 -12 1.49 -0.01
 -14 12 -5 1.49 -0.01
 -12 5 -14 1.49 0.00
 -14 13 5 0.56 0.00
 -5 14 13 0.56 0.03
 -13 5 14 0.56 0.01
 -13 -5 -14 0.56 0.03
 -14 13 -5 0.56 0.02
 -13 5 -14 0.56 0.00
 -5 14 -13 0.56 0.02
 -14 0 6 -4.74 0.01
 -6 14 0 -4.74 0.01
 -14 0 -6 -4.74 0.02
 -14 -1 -6 -8.49 0.01
 -6 14 1 -8.50 0.01
 -14 1 6 -8.50 0.03
 -14 -1 6 -8.50 0.03
 -14 1 -6 -8.49 0.00
 -1 6 -14 -8.50 0.00
 -6 14 -1 -8.50 0.02
 -6 14 2 -7.78 0.00
 -14 -2 -6 -7.79 0.03
 -14 2 6 -7.79 0.02
 -6 14 -2 -7.79 0.01
 -14 -2 6 -7.79 0.03
 -14 2 -6 -7.79 -0.01
 -2 6 -14 -7.79 -0.03
 -14 3 6 -6.53 0.00
 -14 -3 -6 -6.52 0.00
 -3 6 14 -6.53 0.02
 -6 14 3 -6.53 0.01
 -14 -3 6 -6.52 0.01
 -6 14 -3 -6.53 0.01
 -3 6 -14 -6.52 0.00
 -14 3 -6 -6.52 0.02
 6 14 3 -6.52 0.00
 -14 4 6 -4.56 0.00
 -6 14 4 -4.56 -0.01
 -4 6 14 -4.56 -0.01
 -14 -4 -6 -4.55 0.02
 6 14 4 -4.56 0.00
 -4 6 -14 -4.56 -0.01
 -14 4 -6 -4.55 -0.01
 -6 14 -4 -4.56 0.00
 -5 6 14 -4.72 0.00
 -14 -5 -6 -4.71 0.00
 -6 14 5 -4.72 0.01
 -14 5 6 -4.72 0.02
 -6 14 -5 -4.72 0.00
 6 14 5 -4.71 0.00
 -14 5 -6 -4.72 0.00
 -5 6 -14 -4.72 0.01
 -14 6 6 -1.68 0.03
 -6 14 6 -1.68 0.03
 -14 -6 -6 -1.68 -0.03
 -6 6 14 -1.68 0.03
 6 14 6 -1.69 -0.01
 -14 6 -6 -1.68 0.03
 -6 6 -14 -1.68 -0.01
 -6 14 -6 -1.68 0.02
 -14 7 6 -3.00 -0.01
 -7 6 14 -3.00 -0.03
 -6 14 7 -3.00 -0.03
 -14 -7 -6 -2.99 0.04
 -6 14 -7 -3.00 -0.04
 -7 6 -14 -3.00 0.02
 6 14 7 -2.99 -0.02
 -14 7 -6 -2.99 -0.01
 -6 14 8 -0.70 0.02
 -14 -8 -6 -0.70 -0.02
 -8 6 14 -0.70 0.01
 -14 8 6 -0.70 0.01
 -8 6 -14 -0.70 0.00
 -14 8 -6 -0.70 0.01
 -6 14 -8 -0.70 -0.01
 -14 -9 -6 -3.27 -0.02
 -9 6 14 -3.27 0.00
 -6 14 9 -3.28 0.01
 -14 9 6 -3.28 0.03
 -9 6 -14 -3.27 0.01
 -6 14 -9 -3.28 0.01
 -14 9 -6 -3.27 0.02
 -14 10 6 -0.46 -0.02
 -6 14 10 -0.45 0.01
 -10 6 14 -0.46 0.01
 -6 14 -10 -0.45 -0.03
 -10 6 -14 -0.45 -0.01
 -14 10 -6 -0.46 0.02
 -14 11 6 -1.35 0.00
 -11 6 14 -1.34 -0.05
 -6 14 11 -1.35 -0.05
 -6 14 -11 -1.35 -0.01
 -11 6 -14 -1.35 0.02
 -14 11 -6 -1.34 -0.04
 -6 14 12 -0.54 0.03
 -14 12 6 -0.54 0.04
 -12 6 14 -0.54 0.03
 -12 6 -14 -0.54 -0.02
 -14 12 -6 -0.54 0.03
 -6 14 -12 -0.54 0.02
 -13 -6 -14 -1.04 0.00
 -6 14 13 -1.04 0.00
 -14 13 6 -1.05 0.01
 -13 6 14 -1.04 0.00
 -14 13 -6 -1.04 0.00
 -13 6 -14 -1.04 0.01
 -6 14 -13 -1.04 0.02
 -14 0 -7 5.15 -0.01
 -7 14 0 5.15 -0.01
 -14 0 7 5.15 -0.01
 -14 -1 -7 6.62 -0.06
 -7 14 1 6.62 0.04
 -14 1 7 6.63 -0.01
 -14 1 -7 6.62 0.08
 -1 7 -14 6.63 0.00
 -14 -1 7 6.62 0.03
 -7 14 -1 6.63 -0.05
 -14 -2 -7 2.45 0.18
 -7 14 2 2.45 -0.17
 -14 2 7 2.44 -0.08
 -2 7 -14 2.43 -0.04
 -7 14 -2 2.43 0.06
 -14 2 -7 2.44 -0.18
 -14 -2 7 2.46 -0.16
 -3 7 14 5.03 0.06
 -7 14 3 5.03 0.04
 -14 3 7 5.04 0.04
 -14 -3 -7 5.02 -0.08
 -14 3 -7 5.03 0.05
 -7 14 -3 5.04 0.00
 -14 -3 7 5.03 0.05
 -3 7 -14 5.04 0.01
 -4 7 14 4.00 -0.02
 -14 4 7 3.99 -0.03
 -7 14 4 3.99 0.00
 -14 -4 -7 3.99 0.00
 -7 14 -4 3.99 -0.01
 -4 7 -14 3.99 -0.02
 -14 4 -7 3.99 0.01
 -14 5 7 2.87 -0.01
 -14 -5 -7 2.87 0.01
 -7 14 5 2.87 0.00
 -5 7 14 2.87 0.00
 -7 14 -5 2.87 0.00
 -5 7 -14 2.87 0.00
 7 14 5 2.87 0.01
 -14 5 -7 2.87 -0.02
 -14 6 7 3.00 0.01
 -7 14 6 3.00 0.03
 -6 7 14 3.00 0.03
 -14 -6 -7 2.99 -0.04
 -7 14 -6 3.00 -0.03
 -14 6 -7 2.99 0.02
 -6 7 -14 3.00 0.00
 -7 14 7 1.98 0.00
 -7 7 14 1.98 0.00
 -14 -7 -7 1.98 0.02
 -14 7 7 1.98 -0.02
 -7 14 -7 1.98 -0.02
 -7 7 -14 1.98 0.00
 -14 7 -7 1.98 -0.02
 -8 7 14 0.09 0.01
 -14 8 7 0.09 -0.01
 -7 14 8 0.09 0.00
 -14 -8 -7 0.09 -0.01
 -14 8 -7 0.09 -0.01
 -7 14 -8 0.09 0.01
 -8 7 -14 0.09 0.00
 -9 7 14 0.39 0.00
 -14 -9 -7 0.39 -0.01
 -7 14 9 0.39 0.01
 -14 9 7 0.39 -0.01
 -14 9 -7 0.39 -0.01
 -9 7 -14 0.39 0.01
 -7 14 -9 0.39 0.01
 -10 7 14 0.09 0.02
 -7 14 10 0.09 0.00
 -14 10 7 0.09 -0.01
 -7 14 -10 0.09 0.01
 -14 10 -7 0.09 -0.01
 -10 7 -14 0.09 -0.01
 -11 7 14 2.67 -0.02
 -14 11 7 2.67 -0.03
 -7 14 11 2.67 -0.01
 -7 14 -11 2.67 -0.01
 -11 7 -14 2.67 0.00
 -14 11 -7 2.67 -0.01
 -12 7 14 0.84 0.00
 -14 12 7 0.85 -0.01
 -7 14 12 0.84 0.02
 -12 7 -14 0.85 0.01
 -14 12 -7 0.84 0.00
 -7 14 -12 0.84 -0.01
 -13 7 14 0.73 0.00
 -14 13 7 0.73 0.00
 -7 14 13 0.73 0.00
 -7 14 -13 0.73 0.00
 -13 7 -14 0.73 -0.02
 -14 13 -7 0.73 0.00
 -14 0 -8 -0.75 -0.03
 -8 14 0 -0.74 0.10
 -14 0 8 -0.76 0.21
 -14 1 8 -4.07 -0.03
 -14 -1 -8 -4.06 0.00
 -8 14 1 -4.07 -0.01
 -14 1 -8 -4.06 0.01
 -8 14 -1 -4.07 -0.01
 -14 -1 8 -4.07 0.00
 -1 8 -14 -4.07 0.00
 -14 -2 -8 -3.65 0.14
 -2 8 14 -3.65 -0.11
 -14 2 8 -3.66 -0.06
 -8 14 2 -3.65 -0.12
 -14 2 -8 -3.65 -0.13
 -2 8 -14 -3.67 -0.02
 -8 14 -2 -3.66 0.06
 -14 -2 8 -3.65 -0.12
 -14 3 8 -2.40 0.01
 -8 14 3 -2.40 0.00
 -14 -3 -8 -2.39 0.00
 -3 8 14 -2.40 0.01
 -3 8 -14 -2.40 0.00
 -8 14 -3 -2.40 -0.01
 -14 3 -8 -2.39 0.01
 -8 14 4 -1.64 0.07
 -14 -4 -8 -1.64 -0.06
 -4 8 14 -1.64 0.06
 -14 4 8 -1.64 0.04
 -8 14 -4 -1.63 -0.01
 -4 8 -14 -1.64 0.00
 -14 4 -8 -1.64 0.06
 -14 -5 -8 -1.93 0.00
 -8 14 5 -1.93 -0.01
 -14 5 8 -1.93 -0.01
 -5 8 14 -1.93 -0.01
 -14 5 -8 -1.93 0.00
 -8 14 -5 -1.93 -0.01
 -5 8 -14 -1.93 0.00
 -14 6 8 -0.70 0.01
 -8 14 6 -0.70 0.01
 -6 8 14 -0.70 0.02
 -14 -6 -8 -0.70 -0.02
 -14 6 -8 -0.70 0.01
 -8 14 -6 -0.70 0.02
 -6 8 -14 -0.70 0.00
 -8 14 7 -0.09 -0.01
 -14 -7 -8 -0.09 0.01
 -7 8 14 -0.09 0.00
 -14 7 8 -0.09 0.01
 -7 8 -14 -0.09 -0.01
 -14 7 -8 -0.08 0.02
 -8 14 -7 -0.09 0.00
 -8 8 14 -2.19 0.01
 -14 -8 -8 -2.19 0.00
 -8 14 8 -2.19 0.00
 -14 8 8 -2.19 -0.01
 -8 14 -8 -2.19 0.00
 -8 8 -14 -2.19 -0.02
 -14 8 -8 -2.19 0.02
 -9 8 14 -0.46 -0.01
 -14 9 8 -0.46 0.03
 -8 14 9 -0.46 -0.01
 -14 -9 -8 -0.46 0.02
 -8 14 -9 -0.46 -0.02
 -14 9 -8 -0.46 0.00
 -9 8 -14 -0.46 0.02
 -14 10 8 -2.00 0.01
 -8 14 10 -2.00 0.01
 -10 8 14 -2.00 0.02
 -14 10 -8 -1.99 0.01
 -10 8 -14 -1.99 -0.01
 -8 14 -10 -1.99 -0.01
 -11 8 14 0.51 -0.01
 -8 14 11 0.51 0.00
 -14 11 8 0.50 0.03
 -14 11 -8 0.51 0.01
 -8 14 -11 0.50 0.01
 -11 8 -14 0.51 0.00
 -8 14 12 -0.99 0.02
 -14 12 8 -1.00 0.02
 -12 8 14 -0.99 0.02
 -8 14 -12 -0.99 0.00
 -12 8 -14 -0.99 0.00
 -14 12 -8 -0.99 0.00
 -13 8 14 0.38 -0.01
 -8 14 13 0.38 -0.04
 -14 13 8 0.38 0.00
 -8 14 -13 0.38 0.00
 -13 8 -14 0.38 -0.01
 -14 13 -8 0.38 0.00
 -14 0 9 5.47 0.29
 -14 0 -9 5.46 -0.02
 -9 14 0 5.48 0.11
 0 9 -14 5.47 -0.16
 -1 9 14 -1.46 -0.14
 -9 14 1 -1.46 -0.14
 -14 1 9 -1.47 -0.11
 -14 -1 -9 -1.47 0.18
 -14 1 -9 -1.47 -0.13
 -9 14 -1 -1.47 0.06
 -1 9 -14 -1.47 0.00
 -14 -1 9 -1.46 -0.19
 -14 2 9 1.50 -0.04
 -2 9 14 1.50 -0.03
 -9 14 2 1.50 0.01
 -14 -2 -9 1.50 -0.02
 -14 -2 9 1.50 -0.02
 -2 9 -14 1.50 0.01
 -14 2 -9 1.50 0.01
 -9 14 -2 1.50 -0.02
 -9 14 3 0.95 -0.11
 -14 3 9 0.95 -0.05
 -3 9 14 0.95 -0.11
 -14 -3 -9 0.95 0.14
 -14 3 -9 0.95 -0.13
 -3 9 -14 0.94 -0.01
 -9 14 -3 0.94 0.05
 -14 4 9 2.90 0.09
 -9 14 4 2.90 0.15
 -4 9 14 2.90 0.16
 -14 -4 -9 2.89 -0.15
 -4 9 -14 2.91 -0.01
 -9 14 -4 2.91 -0.04
 -14 4 -9 2.89 0.14
 -14 -5 -9 -0.13 0.00
 -9 14 5 -0.13 0.01
 -14 5 9 -0.12 0.00
 -5 9 14 -0.13 -0.01
 -14 5 -9 -0.13 0.00
 -9 14 -5 -0.12 -0.01
 -5 9 -14 -0.12 0.01
 -14 -6 -9 3.27 0.02
 -9 14 6 3.27 0.00
 -6 9 14 3.28 -0.01
 -14 6 9 3.28 -0.03
 -14 6 -9 3.27 -0.01
 -6 9 -14 3.27 0.00
 -9 14 -6 3.27 -0.01
 -14 -7 -9 0.39 -0.01
 -9 14 7 0.39 0.00
 -7 9 14 0.39 0.00
 -14 7 9 0.39 -0.01
 -9 14 -7 0.39 -0.01
 -14 7 -9 0.39 0.00
 -7 9 -14 0.39 0.01
 -14 -8 -9 0.46 -0.02
 -8 9 14 0.46 0.01
 -14 8 9 0.46 -0.03
 -9 14 8 0.46 0.01
 -8 9 -14 0.46 0.00
 -14 8 -9 0.46 0.00
 -9 14 -8 0.46 -0.01
 -9 9 14 -0.93 -0.01
 -9 14 9 -0.93 -0.01
 -14 9 9 -0.93 0.00
 -14 9 -9 -0.93 -0.02
 -9 9 -14 -0.93 0.01
 -9 14 -9 -0.93 -0.01
 -14 10 9 0.49 -0.01
 -10 9 14 0.49 0.01
 -9 14 10 0.49 0.00
 -9 14 -10 0.49 0.02
 -14 10 -9 0.49 -0.02
 -10 9 -14 0.49 -0.01
 -9 14 11 0.17 0.00
 -11 9 14 0.17 0.00
 -14 11 9 0.18 0.01
 -9 14 -11 0.17 0.00
 -11 9 -14 0.17 0.00
 -14 11 -9 0.17 -0.01
 -12 9 14 1.84 0.01
 -9 14 12 1.84 -0.01
 -14 12 9 1.84 -0.01
 -9 14 -12 1.84 0.01
 -12 9 -14 1.84 -0.02
 -14 12 -9 1.84 -0.02
 -14 13 9 -0.72 -0.01
 -9 14 13 -0.73 0.01
 -13 9 14 -0.73 -0.01
 -9 14 -13 -0.73 -0.01
 -14 13 -9 -0.73 -0.01
 -13 9 -14 -0.72 0.01
 -14 0 10 0.95 0.12
 -10 14 0 0.96 0.03
 0 10 -14 0.95 -0.05
 -14 0 -10 0.95 -0.03
 -14 -1 -10 -0.61 0.06
 -14 1 10 -0.61 0.04
 -10 14 1 -0.61 -0.04
 -1 10 14 -0.61 0.01
 -1 10 -14 -0.61 -0.04
 -10 14 -1 -0.61 0.03
 -14 1 -10 -0.61 -0.06
 -14 -1 10 -0.62 0.02
 -10 14 2 -2.49 -0.15
 -2 10 14 -2.49 -0.19
 -14 2 10 -2.50 -0.11
 -14 -2 -10 -2.49 0.15
 -2 10 -14 -2.51 -0.01
 -14 -2 10 -2.49 -0.19
 -14 2 -10 -2.50 -0.12
 -10 14 -2 -2.50 0.05
 -14 -3 -10 0.07 0.00
 -10 14 3 0.07 -0.02
 -14 3 10 0.07 0.00
 -3 10 14 0.07 -0.01
 -10 14 -3 0.06 -0.02
 -14 3 -10 0.07 0.00
 -3 10 -14 0.07 -0.02
 -10 14 4 -0.77 0.07
 -14 -4 -10 -0.77 -0.08
 -4 10 14 -0.77 0.06
 -14 4 10 -0.77 0.04
 -10 14 -4 -0.76 -0.02
 -4 10 -14 -0.77 0.00
 -14 4 -10 -0.77 0.07
 -10 14 5 -1.75 -0.02
 -14 -5 -10 -1.75 0.01
 -5 10 14 -1.75 0.00
 -14 5 10 -1.76 0.02
 -5 10 -14 -1.75 0.01
 -10 14 -5 -1.76 0.00
 -14 5 -10 -1.75 0.00
 -6 10 14 -0.45 0.01
 -14 6 10 -0.46 -0.01
 -10 14 6 -0.46 0.01
 -14 -6 -10 -0.46 -0.02
 -14 6 -10 -0.45 0.01
 -6 10 -14 -0.45 -0.01
 -10 14 -6 -0.45 -0.01
 -10 14 7 -0.09 -0.02
 -14 7 10 -0.09 0.01
 -7 10 14 -0.09 0.00
 -14 -7 -10 -0.09 -0.01
 -14 7 -10 -0.09 0.00
 -10 14 -7 -0.09 0.00
 -7 10 -14 -0.09 0.00
 -14 -8 -10 -1.99 -0.01
 -10 14 8 -2.00 0.02
 -8 10 14 -2.00 0.01
 -14 8 10 -2.00 0.01
 -8 10 -14 -1.99 0.00
 -10 14 -8 -1.99 -0.01
 -14 8 -10 -1.99 0.01
 -9 10 14 -0.49 0.00
 -10 14 9 -0.49 -0.01
 -14 9 10 -0.49 0.01
 -9 10 -14 -0.49 0.01
 -14 9 -10 -0.49 0.01
 -10 14 -9 -0.49 -0.01
 -14 10 10 -1.79 0.02
 -10 14 10 -1.79 0.01
 -10 10 14 -1.79 0.01
 -14 10 -10 -1.78 -0.01
 -10 14 -10 -1.78 0.01
 -10 10 -14 -1.78 0.01
 -14 11 10 1.31 -0.02
 -11 10 14 1.31 0.01
 -10 14 11 1.32 -0.01
 -11 10 -14 1.32 -0.01
 -10 14 -11 1.31 -0.01
 -14 11 -10 1.32 0.02
 -14 12 10 0.74 -0.01
 -10 14 12 0.75 0.01
 -12 10 14 0.74 0.00
 -12 10 -14 0.75 0.00
 -14 12 -10 0.75 0.01
 -10 14 -12 0.75 0.00
 -13 10 14 -0.71 0.00
 -14 13 10 -0.71 -0.01
 -10 14 13 -0.71 0.00
 -13 10 -14 -0.71 0.00
 -14 13 -10 -0.71 0.01
 -10 14 -13 -0.71 0.01
 -11 14 0 0.68 0.01
 -14 0 11 0.68 0.00
 0 11 14 0.68 0.02
 -14 0 -11 0.68 0.01
 -14 -1 -11 -0.10 -0.05
 -11 14 1 -0.10 0.06
 -1 11 14 -0.10 0.06
 -14 1 11 -0.09 0.04
 -14 1 -11 -0.09 0.03
 -11 14 -1 -0.09 -0.01
 -14 -1 11 -0.09 0.06
 -2 11 14 -0.25 -0.16
 -14 -2 -11 -0.26 0.21
 -14 2 11 -0.27 -0.09
 -11 14 2 -0.26 -0.17
 -2 11 -14 -0.27 -0.04
 -14 2 -11 -0.27 -0.19
 -11 14 -2 -0.27 0.07
 -3 11 14 1.71 0.09
 -14 -3 -11 1.71 -0.13
 -11 14 3 1.71 0.09
 -14 3 11 1.71 0.03
 -11 14 -3 1.71 -0.05
 -14 3 -11 1.71 0.10
 -3 11 -14 1.71 0.02
 -4 11 14 1.62 0.02
 -11 14 4 1.62 0.01
 -14 4 11 1.62 -0.01
 -14 -4 -11 1.62 0.00
 -4 11 -14 1.62 0.01
 -14 4 -11 1.62 0.00
 -11 14 -4 1.62 0.01
 -14 5 11 1.23 -0.02
 -14 -5 -11 1.23 0.02
 -11 14 5 1.23 -0.01
 -5 11 14 1.23 -0.02
 -14 5 -11 1.22 0.00
 -5 11 -14 1.23 -0.01
 -11 14 -5 1.23 0.01
 -6 11 14 1.35 0.05
 -14 -6 -11 1.34 -0.03
 -11 14 6 1.34 0.05
 -14 6 11 1.35 0.00
 -6 11 -14 1.35 0.00
 -11 14 -6 1.35 0.00
 -14 6 -11 1.34 0.05
 -14 7 11 2.67 -0.03
 -11 14 7 2.67 -0.02
 -14 -7 -11 2.67 0.00
 -7 11 14 2.67 -0.01
 -7 11 -14 2.67 -0.01
 -11 14 -7 2.67 -0.01
 -14 7 -11 2.67 0.00
 -8 11 14 -0.51 0.00
 -14 8 11 -0.50 -0.03
 -14 -8 -11 -0.51 0.00
 -11 14 8 -0.51 0.01
 -14 8 -11 -0.51 0.00
 -11 14 -8 -0.51 -0.02
 -8 11 -14 -0.51 -0.01
 -9 11 14 0.17 0.00
 -14 9 11 0.18 0.01
 -11 14 9 0.17 0.00
 -14 9 -11 0.17 -0.01
 -9 11 -14 0.17 0.00
 -11 14 -9 0.17 0.01
 -14 10 11 -1.31 0.02
 -10 11 14 -1.32 0.01
 -11 14 10 -1.32 -0.01
 -10 11 -14 -1.31 -0.01
 -11 14 -10 -1.32 0.01
 -14 10 -11 -1.32 -0.01
 -11 14 11 1.39 0.00
 -11 11 14 1.39 0.00
 -14 11 11 1.40 -0.01
 -11 11 -14 1.40 -0.01
 -14 11 -11 1.40 -0.02
 -11 14 -11 1.40 0.00
 -12 11 14 0.87 -0.01
 -11 14 12 0.87 0.00
 -14 12 11 0.87 0.02
 -11 14 -12 0.87 0.01
 -12 11 -14 0.87 0.01
 -14 12 -11 0.87 0.00
 -13 11 14 -0.84 0.01
 -14 13 11 -0.84 0.01
 -11 14 13 -0.84 0.01
 -11 14 -13 -0.84 0.00
 -14 13 -11 -0.84 0.00
 -13 11 -14 -0.84 0.01
 -14 0 -12 -0.88 -0.01
 0 12 14 -0.88 0.01
 -12 14 0 -0.88 0.02
 -14 0 12 -0.89 0.04
 -14 1 12 -0.65 -0.01
 -12 14 1 -0.65 -0.03
 -14 -1 -12 -0.65 0.05
 -1 12 14 -0.65 -0.02
 -14 -1 12 -0.66 -0.03
 -12 14 -1 -0.65 0.01
 -14 1 -12 -0.65 -0.03
 1 12 14 -0.65 0.00
 -2 12 14 -1.17 -0.01
 -14 2 12 -1.18 0.03
 -12 14 2 -1.18 -0.03
 -14 -2 -12 -1.17 0.04
 -14 2 -12 -1.17 -0.05
 -12 14 -2 -1.18 0.04
 -12 14 3 -0.20 0.01
 -3 12 14 -0.20 0.02
 -14 -3 -12 -0.20 -0.01
 -14 3 12 -0.21 0.03
 -14 3 -12 -0.20 0.00
 -3 12 -14 -0.20 0.02
 -12 14 -3 -0.20 -0.01
 -12 14 4 -0.71 0.00
 -14 4 12 -0.71 -0.02
 -4 12 14 -0.71 0.00
 -14 -4 -12 -0.71 0.01
 -4 12 -14 -0.71 -0.01
 -12 14 -4 -0.71 0.02
 -14 4 -12 -0.71 0.00
 -14 -5 -12 -1.49 0.00
 -14 5 12 -1.49 0.01
 -12 14 5 -1.49 -0.01
 -5 12 14 -1.49 -0.01
 -5 12 -14 -1.49 0.01
 -12 14 -5 -1.49 -0.03
 -14 5 -12 -1.49 0.00
 -14 -6 -12 -0.54 -0.03
 -12 14 6 -0.54 0.03
 -14 6 12 -0.54 0.04
 -6 12 14 -0.54 0.02
 -6 12 -14 -0.54 0.00
 -12 14 -6 -0.53 -0.01
 -14 6 -12 -0.53 0.01
 -12 14 7 -0.84 0.00
 -14 7 12 -0.85 0.01
 -7 12 14 -0.84 -0.02
 -14 -7 -12 -0.84 -0.01
 -12 14 -7 -0.85 -0.02
 -14 7 -12 -0.84 0.00
 -7 12 -14 -0.84 0.00
 -14 8 12 -0.99 0.02
 -12 14 8 -0.99 0.02
 -8 12 14 -0.99 0.02
 -12 14 -8 -0.99 0.01
 -14 8 -12 -0.98 -0.01
 -8 12 -14 -0.99 0.00
 -9 12 14 -1.84 0.01
 -14 9 12 -1.84 0.01
 -12 14 9 -1.84 -0.01
 -12 14 -9 -1.84 0.00
 -14 9 -12 -1.84 0.01
 -9 12 -14 -1.84 0.00
 -14 10 12 0.74 0.00
 -12 14 10 0.74 0.00
 -10 12 14 0.75 0.01
 -12 14 -10 0.75 0.01
 -10 12 -14 0.75 0.00
 -14 10 -12 0.75 0.00
 -14 11 12 -0.87 -0.02
 -12 14 11 -0.87 0.01
 -11 12 14 -0.87 0.00
 -11 12 -14 -0.87 -0.01
 -12 14 -11 -0.87 -0.02
 -14 11 -12 -0.87 0.01
 -12 14 12 2.18 -0.02
 -14 12 12 2.18 0.00
 -12 12 14 2.18 -0.02
 -14 12 -12 2.18 -0.01
 -12 14 -12 2.18 0.01
 -12 12 -14 2.19 0.01
 -13 12 14 -1.79 0.01
 -14 13 12 -1.79 0.00
 -12 14 13 -1.78 0.00
 -14 13 -12 -1.79 0.01
 -13 12 -14 -1.79 0.00
 -12 14 -13 -1.79 -0.01
 0 13 14 -0.80 -0.06
 -14 0 13 -0.81 -0.05
 -14 0 -13 -0.81 0.01
 -13 14 0 -0.81 -0.02
 -14 -1 -13 1.13 0.03
 -13 14 1 1.14 -0.01
 -1 13 14 1.14 -0.01
 -14 1 13 1.14 -0.02
 -14 1 -13 1.13 -0.02
 1 13 14 1.14 -0.01
 -13 14 -1 1.14 0.00
 -13 14 2 0.58 0.02
 -14 2 13 0.58 0.03
 -14 -2 -13 0.57 -0.01
 -2 13 14 0.58 0.01
 -14 2 -13 0.58 0.01
 2 13 14 0.58 0.00
 -13 14 -2 0.58 0.00
 -14 -3 -13 1.46 0.01
 -14 3 13 1.47 -0.01
 -3 13 14 1.46 -0.01
 -13 14 3 1.47 -0.01
 -13 14 -3 1.46 -0.01
 -14 3 -13 1.46 -0.01
 -13 14 4 0.71 -0.03
 -4 13 14 0.72 -0.02
 -14 4 13 0.72 -0.02
 -14 -4 -13 0.71 0.05
 -4 13 -14 0.71 -0.03
 -14 4 -13 0.71 -0.03
 -13 14 -4 0.71 0.03
 -13 14 5 0.56 0.01
 -14 5 13 0.56 0.00
 -14 -5 -13 0.55 -0.02
 -5 13 14 0.56 0.03
 -14 5 -13 0.56 0.02
 -5 13 -14 0.56 0.00
 -13 14 -5 0.56 0.00
 -14 -6 -13 1.04 -0.02
 -14 6 13 1.05 -0.01
 -6 13 14 1.04 0.00
 -13 14 6 1.04 0.00
 -6 13 -14 1.05 -0.01
 -14 6 -13 1.04 0.01
 -13 14 -6 1.04 0.00
 -13 14 7 0.73 0.00
 -14 -7 -13 0.73 -0.01
 -7 13 14 0.73 -0.01
 -14 7 13 0.73 0.00
 -7 13 -14 0.73 -0.02
 -14 7 -13 0.73 0.01
 -13 14 -7 0.73 0.00
 -8 13 14 -0.38 0.04
 -14 8 13 -0.38 0.00
 -13 14 8 -0.38 0.01
 -14 8 -13 -0.39 0.02
 -8 13 -14 -0.38 -0.01
 -13 14 -8 -0.38 0.01
 -9 13 14 -0.73 0.01
 -14 9 13 -0.72 -0.01
 -13 14 9 -0.73 -0.01
 -9 13 -14 -0.72 0.00
 -13 14 -9 -0.73 -0.01
 -14 9 -13 -0.73 0.00
 -13 14 10 0.71 0.00
 -14 10 13 0.71 0.01
 -14 10 -13 0.71 -0.02
 -13 14 -10 0.71 0.01
 -10 13 -14 0.71 0.01
 -11 13 14 -0.84 0.01
 -13 14 11 -0.84 0.01
 -14 11 13 -0.84 0.01
 -13 14 -11 -0.84 0.01
 -14 11 -13 -0.84 -0.01
 -11 13 -14 -0.84 0.00
 -13 14 12 1.79 -0.01
 -14 12 13 1.79 0.00
 -12 13 14 1.78 0.00
 -14 12 -13 1.78 0.00
 -12 13 -14 1.79 0.01
 -13 14 -12 1.79 0.00
 -13 13 14 0.43 0.00
 -14 13 13 0.43 0.01
 -13 14 13 0.43 0.00
 -14 13 -13 0.43 -0.01
 -13 14 -13 0.44 0.00
 -13 13 -14 0.43 0.01
 -14 0 -14 -3.58 0.01
 -14 0 14 -3.59 -0.04
 -14 14 0 -3.59 -0.04
 0 14 14 -3.58 -0.04
 -14 -2 -14 -0.66 -0.01
 -2 14 14 -0.66 0.03
 -14 2 14 -0.67 0.02
 -14 14 2 -0.67 0.02
 -14 14 -2 -0.67 0.03
 -14 2 -14 -0.66 0.01
 2 14 14 -0.67 0.02
 -14 -4 -14 0.05 0.00
 -4 14 14 0.04 0.03
 -14 4 14 0.04 -0.01
 -14 14 4 0.04 -0.01
 -14 14 -4 0.04 0.01
 -14 4 -14 0.04 0.01
 4 14 14 0.04 -0.01
 -14 -6 -14 -0.12 0.00
 -14 14 6 -0.13 0.00
 -14 6 14 -0.13 0.00
 -6 14 14 -0.13 -0.02
 -14 6 -14 -0.12 -0.01
 -6 14 -14 -0.13 0.01
 -14 14 -6 -0.13 -0.01
 -14 14 8 -0.29 0.01
 -14 8 14 -0.29 0.01
 -8 14 14 -0.29 0.00
 -14 8 -14 -0.29 -0.01
 -8 14 -14 -0.29 0.02
 -14 14 -8 -0.29 0.00
 -14 14 10 0.63 -0.01
 -14 10 14 0.63 -0.01
 -10 14 14 0.63 -0.02
 -14 10 -14 0.63 0.00
 -10 14 -14 0.63 0.01
 -14 14 -10 0.63 0.01
 -14 14 12 -0.32 -0.01
 -14 12 14 -0.32 -0.01
 -12 14 14 -0.32 -0.01
 -14 12 -14 -0.31 0.01
 -12 14 -14 -0.31 0.01
 -14 14 -12 -0.32 -0.01
 -15 1 0 0.12 0.02
 0 15 -1 0.12 0.01
 0 15 1 0.12 0.03
 -15 -1 0 0.12 0.00
 0 15 2 -0.64 -0.01
 -15 2 0 -0.64 0.01
 0 15 -2 -0.64 -0.02
 -15 -2 0 -0.64 -0.02
 0 15 3 -2.21 0.01
 -15 3 0 -2.21 0.03
 -15 -3 0 -2.21 -0.04
 0 15 -3 -2.21 0.01
 -15 4 0 1.43 0.00
 -15 -4 0 1.43 -0.01
 0 15 4 1.43 -0.02
 -15 -5 0 -3.23 0.02
 0 15 5 -3.24 -0.01
 -15 5 0 -3.24 -0.01
 0 15 6 -0.14 -0.04
 -15 -6 0 -0.14 0.00
 -15 6 0 -0.14 -0.02
 -6 0 15 -0.15 0.01
 -6 0 -15 -0.14 -0.02
 0 15 7 -2.95 -0.08
 -7 0 15 -2.95 -0.02
 -15 7 0 -2.94 -0.09
 -7 0 -15 -2.95 -0.01
 0 15 8 -0.81 0.27
 -15 8 0 -0.81 0.27
 -8 0 -15 -0.80 0.09
 -8 0 15 -0.80 0.11
 -9 0 15 0.58 0.05
 -9 0 -15 0.58 0.03
 0 15 9 0.58 0.13
 -15 9 0 0.58 0.12
 0 15 10 1.08 0.44
 -10 0 -15 1.10 0.13
 -10 0 15 1.10 0.14
 -15 10 0 1.08 0.45
 -11 0 -15 -0.88 -0.03
 -11 0 15 -0.88 -0.03
 0 15 11 -0.88 -0.08
 -15 11 0 -0.88 -0.09
 -12 0 -15 -2.77 0.01
 -15 12 0 -2.77 0.02
 0 15 12 -2.77 0.00
 -12 0 15 -2.77 0.00
 -15 13 0 -0.20 0.03
 -13 0 15 -0.20 0.00
 -13 0 -15 -0.20 0.01
 0 15 13 -0.20 0.03
 -14 0 -15 -0.75 -0.01
 -15 14 0 -0.74 -0.03
 0 15 14 -0.74 -0.03
 -15 0 -1 0.12 0.00
 -1 15 0 0.12 0.01
 -15 0 1 0.12 0.02
 1 15 0 0.12 0.02
 -1 15 2 1.04 -0.03
 -15 2 1 1.04 0.00
 -15 -2 -1 1.04 -0.01
 -15 -2 1 1.04 0.05
 -15 2 -1 1.04 -0.01
 1 15 2 1.04 0.04
 -1 15 -2 1.04 0.00
 -15 3 1 0.30 -0.02
 -1 15 3 0.30 0.01
 -15 -3 -1 0.30 0.02
 -15 3 -1 0.30 -0.01
 1 15 3 0.30 -0.04
 -1 15 -3 0.30 0.00
 -15 -3 1 0.30 -0.02
 -1 15 4 2.44 -0.01
 -15 -4 -1 2.44 0.00
 -15 4 1 2.45 0.03
 -15 4 -1 2.45 -0.02
 1 15 4 2.45 0.05
 -15 -4 1 2.45 0.03
 -1 15 -4 2.45 0.02
 -15 -5 -1 -0.02 -0.01
 -1 15 5 -0.02 0.00
 -5 1 15 -0.02 0.01
 -15 5 1 -0.02 -0.03
 -5 1 -15 -0.02 0.01
 1 15 5 -0.02 0.01
 -15 5 -1 -0.02 0.00
 -1 15 -5 -0.02 -0.01
 -15 -5 1 -0.02 0.03
 -6 1 15 0.67 -0.01
 -1 15 6 0.68 0.00
 -15 6 1 0.68 0.02
 -15 -6 -1 0.68 -0.01
 -6 -1 15 0.67 0.01
 -6 1 -15 0.68 0.03
 -15 6 -1 0.68 0.00
 1 15 6 0.67 0.01
 -7 -1 -15 -0.58 -0.12
 -7 1 15 -0.58 -0.16
 -1 15 7 -0.58 -0.15
 -15 7 1 -0.59 -0.09
 -15 7 -1 -0.57 -0.16
 -7 -1 15 -0.60 0.04
 -7 1 -15 -0.59 0.07
 1 15 7 -0.58 -0.11
 -1 15 8 0.45 -0.17
 -15 8 1 0.44 -0.14
 -8 1 15 0.45 -0.16
 -8 -1 -15 0.45 -0.10
 1 15 8 0.45 -0.18
 -8 -1 15 0.43 -0.02
 -15 8 -1 0.46 -0.18
 -8 1 -15 0.44 0.05
 -9 -1 -15 1.82 -0.03
 -9 1 15 1.82 -0.02
 -1 15 9 1.82 -0.04
 -15 9 1 1.82 -0.03
 -9 1 -15 1.82 -0.01
 -9 -1 15 1.82 -0.01
 -15 9 -1 1.82 -0.03
 1 15 9 1.82 -0.03
 -10 -1 -15 2.58 -0.08
 -10 1 15 2.58 -0.11
 -1 15 10 2.58 -0.12
 -15 10 1 2.57 -0.10
 -15 10 -1 2.58 -0.14
 -10 1 -15 2.56 0.03
 1 15 10 2.57 -0.11
 -10 -1 15 2.56 0.00
 -15 11 1 0.43 -0.17
 -11 -1 -15 0.44 -0.24
 -11 1 15 0.44 -0.23
 -1 15 11 0.44 -0.24
 -11 1 -15 0.43 0.09
 1 15 11 0.44 -0.19
 -11 -1 15 0.43 0.11
 -15 11 -1 0.44 -0.30
 -1 15 12 1.36 -0.04
 -15 12 1 1.35 -0.06
 -12 -1 -15 1.35 0.01
 -12 1 15 1.36 -0.02
 -12 1 -15 1.35 -0.01
 1 15 12 1.36 -0.04
 -12 -1 15 1.35 -0.03
 -15 12 -1 1.36 -0.06
 -13 -1 -15 -0.26 0.00
 -1 15 13 -0.26 -0.01
 -13 1 15 -0.27 0.00
 -15 13 1 -0.26 -0.02
 1 15 13 -0.26 0.00
 -13 1 -15 -0.26 -0.02
 -15 13 -1 -0.27 0.00
 -1 15 14 1.09 0.02
 -14 -1 -15 1.09 0.00
 -15 14 1 1.10 0.04
 -14 1 15 1.10 -0.02
 1 15 14 1.10 0.00
 -14 1 -15 1.09 0.01
 -15 14 -1 1.09 0.01
 -2 15 0 0.65 0.01
 2 15 0 0.64 -0.01
 -15 0 2 0.64 -0.01
 -15 0 -2 0.64 0.02
 -15 1 2 1.04 0.00
 -15 -1 -2 1.04 -0.01
 -2 15 1 1.03 0.05
 -15 1 -2 1.04 0.05
 2 15 1 1.04 -0.03
 -15 -1 2 1.04 -0.01
 -2 15 -1 1.03 0.01
 -15 -3 -2 -0.09 -0.01
 -2 15 3 -0.09 0.02
 -15 3 2 -0.09 0.00
 2 15 3 -0.09 -0.01
 -15 3 -2 -0.09 0.02
 -15 -3 2 -0.09 -0.02
 -2 15 -3 -0.09 0.01
 -15 -4 -2 -1.41 0.00
 -2 15 4 -1.41 -0.01
 -15 4 2 -1.41 0.01
 -4 2 -15 -1.41 -0.01
 -15 4 -2 -1.41 0.02
 -15 -4 2 -1.41 -0.02
 2 15 4 -1.41 -0.01
 -2 15 -4 -1.41 0.00
 -15 5 2 -0.19 -0.06
 -5 2 15 -0.19 -0.02
 -2 15 5 -0.19 -0.06
 -15 -5 -2 -0.19 0.00
 2 15 5 -0.19 -0.03
 -15 -5 2 -0.19 0.01
 -15 5 -2 -0.19 -0.05
 -5 2 -15 -0.19 -0.02
 -2 15 -5 -0.19 -0.02
 -15 -6 -2 -3.37 0.00
 -15 6 2 -3.37 0.01
 -6 2 15 -3.37 -0.02
 -2 15 6 -3.37 0.01
 -6 2 -15 -3.37 0.03
 2 15 6 -3.37 -0.02
 -2 15 -6 -3.37 -0.01
 -15 6 -2 -3.37 -0.01
 -6 -2 15 -3.37 0.01
 -15 7 2 -0.93 0.03
 -15 -7 -2 -0.94 -0.03
 -7 2 15 -0.94 0.05
 -2 15 7 -0.94 0.05
 -7 -2 15 -0.94 -0.01
 2 15 7 -0.94 0.03
 -15 7 -2 -0.94 0.03
 -7 2 -15 -0.93 -0.01
 -15 8 2 -2.85 -0.04
 -8 2 15 -2.86 -0.02
 -8 -2 -15 -2.85 0.01
 -2 15 8 -2.85 -0.02
 -8 -2 15 -2.86 -0.01
 2 15 8 -2.85 -0.03
 -15 8 -2 -2.85 -0.02
 -8 2 -15 -2.85 0.01
 -15 9 2 2.01 0.39
 -9 2 15 1.97 0.60
 -2 15 9 1.96 0.62
 -9 -2 -15 1.97 0.57
 -15 9 -2 1.94 0.69
 -9 2 -15 2.02 -0.26
 2 15 9 1.98 0.53
 -9 -2 15 2.02 -0.18
 -10 2 15 -0.76 0.02
 -15 10 2 -0.76 0.00
 -10 -2 -15 -0.76 0.03
 -2 15 10 -0.76 0.00
 -10 -2 15 -0.76 -0.03
 -15 10 -2 -0.76 0.03
 -10 2 -15 -0.76 -0.01
 2 15 10 -0.76 0.00
 -11 -2 -15 -0.45 0.05
 -11 2 15 -0.45 0.08
 -15 11 2 -0.45 0.06
 -2 15 11 -0.45 0.10
 2 15 11 -0.45 0.07
 -15 11 -2 -0.45 0.10
 -11 2 -15 -0.44 -0.02
 -12 -2 -15 -1.01 0.03
 -2 15 12 -1.00 0.00
 -15 12 2 -1.01 0.03
 -12 2 15 -1.00 0.01
 -12 2 -15 -1.01 0.02
 -15 12 -2 -1.00 -0.01
 2 15 12 -1.00 0.01
 -13 2 15 -2.68 0.02
 -15 13 2 -2.68 -0.02
 -2 15 13 -2.68 -0.02
 -13 -2 -15 -2.67 0.00
 -13 2 -15 -2.68 -0.03
 -15 13 -2 -2.67 -0.03
 2 15 13 -2.68 0.00
 -14 -2 -15 1.17 0.00
 -15 14 2 1.17 0.00
 -2 15 14 1.17 -0.01
 -14 2 15 1.17 -0.01
 2 15 14 1.17 -0.03
 -15 14 -2 1.17 0.00
 -14 2 -15 1.17 0.01
 -3 15 0 -2.21 -0.03
 -15 0 3 -2.21 0.03
 -15 0 -3 -2.21 -0.04
 -15 1 3 -0.30 0.02
 -15 -1 -3 -0.30 -0.02
 -3 15 1 -0.30 0.04
 -15 -1 3 -0.30 0.01
 3 15 1 -0.30 -0.01
 -3 15 -1 -0.30 0.02
 -15 1 -3 -0.30 0.02
 -3 15 2 -0.09 -0.02
 -15 -2 -3 -0.09 -0.01
 -15 2 3 -0.09 0.00
 -3 15 -2 -0.09 -0.01
 3 15 2 -0.09 0.03
 -15 2 -3 -0.09 -0.02
 -15 -2 3 -0.09 0.02
 -15 4 3 0.67 0.02
 -3 15 4 0.67 0.01
 -15 -4 -3 0.67 -0.02
 -15 -4 3 0.67 0.00
 3 15 4 0.67 0.00
 -15 4 -3 0.67 0.01
 -3 15 -4 0.67 0.02
 -4 3 -15 0.67 -0.01
 -5 3 15 0.53 0.01
 -3 15 5 0.53 0.00
 -15 -5 -3 0.53 -0.01
 -15 5 3 0.53 0.01
 3 15 5 0.53 0.02
 -15 5 -3 0.53 0.01
 -5 3 -15 0.53 0.00
 -3 15 -5 0.53 0.00
 -3 15 6 0.00 -0.03
 -15 6 3 -0.01 0.00
 -6 3 15 -0.01 -0.01
 -15 -6 -3 -0.01 0.00
 3 15 6 -0.01 0.01
 -15 6 -3 0.00 -0.01
 -6 -3 15 -0.01 0.00
 -6 3 -15 0.00 -0.01
 -3 15 -6 -0.01 0.01
 -15 -7 -3 1.61 0.15
 -15 7 3 1.60 -0.07
 -7 3 15 1.61 -0.10
 -3 15 7 1.61 -0.13
 -7 3 -15 1.59 0.04
 -3 15 -7 1.61 -0.11
 3 15 7 1.60 -0.09
 -15 7 -3 1.61 -0.11
 -7 -3 15 1.59 0.05
 -8 3 15 -0.68 -0.14
 -3 15 8 -0.68 -0.13
 -15 8 3 -0.69 -0.09
 3 15 8 -0.69 -0.09
 -15 8 -3 -0.68 -0.14
 -8 3 -15 -0.69 0.06
 -8 -3 15 -0.70 0.03
 -3 15 -8 -0.68 -0.12
 -9 -3 -15 3.31 0.03
 -15 9 3 3.31 0.01
 -3 15 9 3.31 0.02
 -9 3 15 3.32 0.01
 -9 3 -15 3.31 -0.01
 -15 9 -3 3.32 0.02
 3 15 9 3.32 0.01
 -9 -3 15 3.31 -0.02
 -10 3 15 0.22 -0.17
 -3 15 10 0.22 -0.15
 -15 10 3 0.21 -0.09
 -10 -3 -15 0.22 -0.16
 -15 10 -3 0.22 -0.18
 -10 3 -15 0.21 0.10
 3 15 10 0.21 -0.15
 -11 -3 -15 1.63 -0.16
 -15 11 3 1.63 -0.08
 -3 15 11 1.64 -0.13
 -11 3 15 1.64 -0.16
 -15 11 -3 1.64 -0.16
 -11 3 -15 1.63 0.10
 3 15 11 1.63 -0.11
 -12 3 15 -0.19 -0.03
 -3 15 12 -0.19 -0.02
 -15 12 3 -0.19 -0.01
 -12 -3 -15 -0.19 -0.01
 -15 12 -3 -0.19 -0.03
 3 15 12 -0.19 -0.01
 -12 3 -15 -0.19 0.01
 -13 3 15 -0.35 0.02
 -15 13 3 -0.34 0.02
 -3 15 13 -0.34 0.03
 -13 -3 -15 -0.34 0.01
 -15 13 -3 -0.35 0.02
 -13 3 -15 -0.34 -0.02
 3 15 13 -0.34 0.01
 -14 3 15 0.48 0.02
 -14 -3 -15 0.47 0.04
 -3 15 14 0.48 0.01
 -15 14 3 0.48 0.01
 3 15 14 0.48 0.00
 -15 14 -3 0.48 0.01
 -14 3 -15 0.48 -0.04
 -15 0 4 -1.43 0.00
 -15 0 -4 -1.43 0.01
 -4 15 0 -1.42 0.00
 -15 -1 -4 2.44 0.00
 -15 1 4 2.45 0.03
 -4 15 1 2.44 0.04
 -15 1 -4 2.45 0.04
 -4 15 -1 2.45 0.03
 -15 -1 4 2.45 -0.02
 -15 2 4 1.41 -0.01
 -15 -2 -4 1.41 0.00
 -4 15 2 1.41 -0.01
 -4 15 -2 1.41 0.00
 -15 -2 4 1.41 -0.02
 -15 2 -4 1.41 0.01
 -15 3 4 0.67 0.02
 -4 15 3 0.66 0.00
 -15 -3 -4 0.67 -0.02
 -4 15 -3 0.67 0.00
 -15 3 -4 0.67 0.00
 -15 -3 4 0.67 0.01
 4 15 3 0.67 0.00
 -3 4 -15 0.67 0.01
 -15 5 4 -1.50 0.00
 -5 4 15 -1.49 -0.01
 -15 -5 -4 -1.50 0.01
 -4 15 5 -1.50 -0.02
 -4 15 -5 -1.50 -0.01
 -5 4 -15 -1.50 0.01
 4 15 5 -1.49 0.01
 -15 5 -4 -1.49 -0.01
 -6 4 15 -1.26 -0.05
 -15 -6 -4 -1.25 0.00
 -4 15 6 -1.25 -0.01
 -15 6 4 -1.25 -0.02
 -4 15 -6 -1.25 -0.06
 -6 -4 15 -1.26 0.00
 -15 6 -4 -1.25 -0.03
 -6 4 -15 -1.25 0.04
 4 15 6 -1.26 -0.05
 -7 4 15 -1.18 -0.03
 -4 15 7 -1.18 -0.04
 -15 -7 -4 -1.18 0.04
 -15 7 4 -1.18 -0.03
 -7 -4 15 -1.18 0.00
 -7 4 -15 -1.18 0.02
 -4 15 -7 -1.18 -0.02
 -15 7 -4 -1.18 -0.03
 4 15 7 -1.18 -0.01
 -15 -8 -4 -0.74 -0.13
 -4 15 8 -0.73 0.15
 -8 4 15 -0.74 0.12
 -15 8 4 -0.72 0.10
 4 15 8 -0.73 0.12
 -15 8 -4 -0.74 0.15
 -8 4 -15 -0.72 -0.04
 -4 15 -8 -0.73 0.13
 -9 4 15 1.01 0.07
 -15 9 4 1.01 0.02
 -4 15 9 1.01 0.07
 -4 15 -9 1.01 0.05
 -9 4 -15 1.02 -0.03
 4 15 9 1.01 0.04
 -15 9 -4 1.01 0.07
 -15 10 4 1.48 0.09
 -10 4 15 1.48 0.13
 -4 15 10 1.48 0.14
 -4 15 -10 1.47 0.13
 -15 10 -4 1.47 0.16
 4 15 10 1.48 0.11
 -10 4 -15 1.48 -0.06
 -11 -4 -15 -1.30 -0.03
 -11 4 15 -1.30 -0.03
 -4 15 11 -1.31 -0.04
 -15 11 4 -1.30 -0.02
 -15 11 -4 -1.30 -0.05
 -11 4 -15 -1.30 0.04
 4 15 11 -1.30 -0.03
 -12 -4 -15 -0.17 0.00
 -4 15 12 -0.17 0.00
 -15 12 4 -0.18 -0.01
 -12 4 15 -0.17 -0.02
 -12 4 -15 -0.18 0.01
 -15 12 -4 -0.17 -0.01
 4 15 12 -0.18 0.00
 -15 13 4 -1.08 0.00
 -13 -4 -15 -1.08 0.00
 -4 15 13 -1.08 -0.04
 -13 4 15 -1.08 -0.02
 4 15 13 -1.08 0.00
 -15 13 -4 -1.08 -0.02
 -13 4 -15 -1.08 0.01
 -4 15 14 0.45 0.00
 -15 14 4 0.45 -0.01
 -14 4 15 0.46 -0.01
 -14 -4 -15 0.45 -0.01
 4 15 14 0.45 0.00
 -15 14 -4 0.45 -0.02
 -14 4 -15 0.45 0.01
 -15 0 5 -3.24 -0.01
 -5 15 0 -3.24 0.01
 -15 0 -5 -3.23 0.02
 -15 -1 -5 0.02 0.01
 -15 1 5 0.02 0.03
 -5 15 1 0.02 -0.01
 -5 15 -1 0.02 0.01
 -15 -1 5 0.02 0.00
 -15 1 -5 0.02 -0.03
 -15 -2 -5 -0.19 0.00
 -5 15 2 -0.19 -0.02
 -15 2 5 -0.19 -0.06
 -15 -2 5 -0.19 -0.05
 -15 2 -5 -0.19 0.01
 -5 15 -2 -0.19 -0.03
 -15 3 5 -0.53 -0.01
 -5 15 3 -0.53 -0.01
 -15 -3 -5 -0.53 0.01
 -5 15 -3 -0.53 -0.01
 -15 3 -5 -0.53 0.01
 -15 -3 5 -0.53 -0.01
 -3 5 -15 -0.53 -0.01
 -15 4 5 -1.50 0.00
 -15 -4 -5 -1.49 0.01
 -4 5 15 -1.50 -0.02
 -5 15 4 -1.49 -0.01
 -15 4 -5 -1.50 -0.02
 -5 15 -4 -1.49 0.00
 5 15 4 -1.49 -0.01
 -4 5 -15 -1.49 0.01
 -6 5 15 -0.47 -0.01
 -15 6 5 -0.47 -0.01
 -15 -6 -5 -0.47 0.00
 -5 15 6 -0.46 -0.02
 -6 -5 15 -0.47 -0.02
 -15 6 -5 -0.47 0.00
 -5 15 -6 -0.47 0.01
 -6 5 -15 -0.46 -0.01
 5 15 6 -0.47 0.03
 -15 7 5 -0.65 -0.02
 -5 15 7 -0.65 -0.01
 -15 -7 -5 -0.65 -0.02
 -7 5 15 -0.65 0.03
 5 15 7 -0.65 0.02
 -15 7 -5 -0.65 0.03
 -5 15 -7 -0.65 0.02
 -7 5 -15 -0.65 -0.02
 -5 15 8 0.39 -0.02
 -15 -8 -5 0.40 0.01
 -15 8 5 0.39 -0.01
 -8 5 15 0.39 -0.01
 -5 15 -8 0.39 0.01
 5 15 8 0.39 0.00
 -8 5 -15 0.39 0.00
 -15 8 -5 0.39 -0.01
 -5 15 9 0.88 0.00
 -9 5 15 0.88 0.00
 -15 9 5 0.88 -0.02
 -9 5 -15 0.88 0.01
 -15 9 -5 0.88 -0.01
 -5 15 -9 0.88 0.00
 5 15 9 0.88 -0.02
 -10 5 15 1.08 -0.03
 -5 15 10 1.08 -0.01
 -15 10 5 1.08 0.01
 -10 5 -15 1.07 0.01
 -5 15 -10 1.08 0.00
 5 15 10 1.08 -0.01
 -15 10 -5 1.08 -0.03
 -15 11 5 -2.44 0.04
 -5 15 11 -2.45 0.03
 -11 5 15 -2.45 0.03
 -15 11 -5 -2.45 0.00
 5 15 11 -2.44 0.01
 -5 15 -11 -2.45 0.03
 -11 5 -15 -2.44 0.01
 -12 -5 -15 0.03 0.02
 -15 12 5 0.04 0.01
 -12 5 15 0.04 0.01
 -5 15 12 0.03 0.01
 5 15 12 0.04 0.00
 -12 5 -15 0.03 -0.01
 -15 12 -5 0.03 0.01
 -13 5 15 0.30 0.00
 -5 15 13 0.30 -0.01
 -15 13 5 0.30 0.01
 -13 -5 -15 0.30 0.01
 -15 13 -5 0.30 -0.01
 -13 5 -15 0.30 0.00
 5 15 13 0.30 0.00
 -15 14 5 -0.18 0.01
 -14 5 15 -0.17 0.02
 -14 -5 -15 -0.18 0.00
 -5 15 14 -0.18 0.00
 -14 5 -15 -0.18 -0.01
 -15 14 -5 -0.18 0.01
 5 15 14 -0.18 0.00
 -15 0 6 0.14 0.02
 -6 15 0 0.15 -0.01
 -15 0 -6 0.14 0.00
 -15 -1 -6 0.68 -0.01
 -15 1 6 0.67 0.02
 -6 15 1 0.67 -0.01
 -15 1 -6 0.68 -0.04
 -15 -1 6 0.68 0.00
 -6 15 -1 0.67 0.01
 -6 15 2 3.37 0.02
 -15 2 6 3.37 0.00
 -15 -2 -6 3.37 0.00
 -2 6 -15 3.38 0.00
 -6 15 -2 3.37 0.00
 -15 2 -6 3.37 0.00
 -15 -2 6 3.37 0.01
 -15 -3 -6 -0.01 0.01
 -15 3 6 -0.01 0.00
 -6 15 3 -0.01 -0.01
 -3 6 15 0.00 -0.03
 -3 6 -15 -0.01 0.01
 -15 3 -6 0.00 -0.01
 -15 -3 6 0.00 -0.01
 -6 15 -3 -0.01 0.00
 -6 15 4 1.26 0.05
 -4 6 15 1.25 0.01
 -15 4 6 1.25 0.02
 -15 -4 -6 1.25 0.00
 -15 4 -6 1.26 0.03
 -4 6 -15 1.26 0.00
 -6 15 -4 1.26 0.00
 -15 -5 -6 -0.47 0.00
 -6 15 5 -0.47 -0.01
 -5 6 15 -0.46 -0.02
 -15 5 6 -0.47 -0.01
 -5 6 -15 -0.47 0.02
 -6 15 -5 -0.47 -0.02
 6 15 5 -0.46 -0.02
 -15 5 -6 -0.46 -0.02
 -15 7 6 -1.92 0.00
 -6 15 7 -1.93 -0.01
 -15 -7 -6 -1.92 0.01
 -7 6 15 -1.92 -0.02
 -15 7 -6 -1.92 -0.01
 -7 6 -15 -1.92 0.00
 -6 15 -7 -1.93 -0.01
 6 15 7 -1.92 0.01
 -15 8 6 1.81 0.00
 -15 -8 -6 1.81 0.01
 -8 6 15 1.81 -0.01
 -6 15 8 1.81 -0.02
 -6 15 -8 1.81 0.00
 6 15 8 1.81 0.00
 -8 6 -15 1.81 0.01
 -15 8 -6 1.81 -0.02
 -15 -9 -6 1.38 0.04
 -15 9 6 1.38 0.00
 -9 6 15 1.38 -0.02
 -6 15 9 1.38 -0.02
 -15 9 -6 1.38 -0.01
 6 15 9 1.38 0.00
 -9 6 -15 1.38 0.00
 -6 15 -9 1.38 -0.01
 -6 15 10 2.02 0.00
 -10 6 15 2.02 -0.02
 -15 10 6 2.02 -0.01
 -10 6 -15 2.01 0.01
 -15 10 -6 2.01 -0.01
 -6 15 -10 2.02 -0.03
 6 15 10 2.01 -0.02
 -15 11 6 -1.59 -0.01
 -11 6 15 -1.59 -0.01
 -6 15 11 -1.59 -0.01
 -15 11 -6 -1.59 0.00
 -6 15 -11 -1.59 -0.01
 -11 6 -15 -1.59 0.02
 -12 6 15 1.03 0.00
 -6 15 12 1.03 0.00
 -15 12 6 1.03 -0.03
 -6 15 -12 1.03 -0.01
 -15 12 -6 1.03 0.03
 -12 6 -15 1.03 -0.02
 -13 6 15 0.46 -0.03
 -15 13 6 0.46 -0.04
 -6 15 13 0.46 -0.02
 -15 13 -6 0.46 -0.02
 -13 6 -15 0.46 0.04
 -14 6 15 -1.12 0.01
 -15 14 6 -1.12 -0.01
 -6 15 14 -1.12 0.00
 -14 6 -15 -1.13 -0.01
 -15 14 -6 -1.12 0.02
 -15 0 -7 -2.94 -0.01
 -15 0 7 -2.94 -0.09
 -7 15 0 -2.95 -0.03
 -15 -1 -7 0.58 -0.16
 -15 1 7 0.59 0.09
 -7 15 1 0.58 0.16
 -15 -1 7 0.57 0.16
 -15 1 -7 0.59 0.15
 -7 15 -1 0.60 -0.04
 -15 2 7 -0.93 0.03
 -7 15 2 -0.94 0.05
 -15 -2 -7 -0.94 -0.03
 -7 15 -2 -0.94 -0.01
 -15 2 -7 -0.94 0.04
 -2 7 -15 -0.93 0.02
 -15 -2 7 -0.94 0.03
 -3 7 15 -1.61 0.13
 -15 -3 -7 -1.61 -0.15
 -15 3 7 -1.59 0.07
 -7 15 3 -1.61 0.10
 -3 7 -15 -1.59 0.03
 -7 15 -3 -1.59 -0.05
 -15 3 -7 -1.60 0.13
 -15 4 7 -1.18 -0.03
 -7 15 4 -1.18 -0.03
 -4 7 15 -1.18 -0.04
 -15 -4 -7 -1.18 0.04
 -15 4 -7 -1.18 -0.02
 -7 15 -4 -1.18 0.00
 -4 7 -15 -1.18 0.00
 -15 -5 -7 0.65 0.02
 -7 15 5 0.65 -0.03
 -5 7 15 0.65 0.01
 -15 5 7 0.65 0.02
 -7 15 -5 0.65 0.01
 -15 5 -7 0.65 -0.03
 -5 7 -15 0.65 0.00
 -7 15 6 -1.92 -0.02
 -15 -6 -7 -1.92 0.01
 -15 6 7 -1.92 0.00
 -6 7 15 -1.92 -0.01
 -7 15 -6 -1.92 0.02
 -6 7 -15 -1.92 0.00
 -15 6 -7 -1.92 -0.01
 7 15 6 -1.92 -0.01
 -15 -8 -7 -0.30 -0.01
 -8 7 15 -0.30 0.01
 -15 8 7 -0.30 0.01
 -7 15 8 -0.30 0.00
 7 15 8 -0.30 0.01
 -7 15 -8 -0.30 0.01
 -8 7 -15 -0.30 0.00
 -15 8 -7 -0.30 0.01
 -15 9 7 1.97 -0.02
 -7 15 9 1.97 0.00
 -9 7 15 1.97 -0.01
 -15 -9 -7 1.97 0.00
 -9 7 -15 1.97 -0.01
 -15 9 -7 1.97 0.00
 -7 15 -9 1.97 0.00
 -15 10 7 -0.74 0.03
 -10 7 15 -0.74 0.01
 -7 15 10 -0.74 0.01
 -10 7 -15 -0.74 0.01
 -7 15 -10 -0.74 0.03
 -15 10 -7 -0.74 -0.01
 -7 15 11 -1.30 0.00
 -15 11 7 -1.30 0.01
 -11 7 15 -1.31 0.01
 -15 11 -7 -1.30 0.00
 -11 7 -15 -1.30 -0.02
 -7 15 -11 -1.30 0.01
 -7 15 12 -1.52 0.01
 -15 12 7 -1.52 0.01
 -12 7 15 -1.52 -0.02
 -7 15 -12 -1.52 0.00
 -12 7 -15 -1.52 0.01
 -15 12 -7 -1.52 0.00
 -15 13 7 0.60 0.02
 -13 7 15 0.60 -0.01
 -7 15 13 0.60 0.01
 -7 15 -13 0.60 -0.01
 -15 13 -7 0.60 -0.01
 -13 7 -15 0.60 0.02
 -7 15 14 -0.45 0.02
 -15 14 7 -0.46 0.01
 -14 7 15 -0.45 -0.01
 -15 14 -7 -0.45 0.00
 -14 7 -15 -0.46 0.01
 -15 0 8 0.81 -0.27
 -15 0 -8 0.81 0.02
 -8 15 0 0.80 -0.11
 -8 15 1 0.45 -0.16
 -15 -1 -8 0.45 0.11
 -15 1 8 0.44 -0.14
 -1 8 -15 0.44 0.00
 -8 15 -1 0.43 -0.02
 -15 1 -8 0.44 -0.07
 -15 -1 8 0.46 -0.18
 -2 8 15 2.85 0.02
 -8 15 2 2.86 0.02
 -15 2 8 2.85 0.04
 -15 -2 -8 2.85 0.01
 -8 15 -2 2.86 0.01
 -15 2 -8 2.85 -0.02
 -2 8 -15 2.86 -0.02
 -15 -2 8 2.85 0.02
 -3 8 15 -0.68 -0.13
 -15 -3 -8 -0.68 0.13
 -15 3 8 -0.69 -0.09
 -8 15 3 -0.68 -0.14
 -3 8 -15 -0.70 -0.02
 -8 15 -3 -0.70 0.03
 -15 3 -8 -0.69 -0.12
 -4 8 15 0.73 -0.15
 -15 4 8 0.72 -0.10
 -8 15 4 0.74 -0.12
 -15 -4 -8 0.74 0.13
 -4 8 -15 0.72 -0.01
 -15 4 -8 0.73 -0.11
 -8 15 -4 0.72 0.03
 -5 8 15 0.39 -0.02
 -15 5 8 0.39 -0.01
 -8 15 5 0.39 -0.01
 -15 -5 -8 0.40 0.01
 -15 5 -8 0.40 0.01
 -5 8 -15 0.39 -0.01
 -8 15 -5 0.39 0.00
 -15 -6 -8 -1.81 -0.01
 -8 15 6 -1.81 0.01
 -15 6 8 -1.81 0.00
 -6 8 15 -1.81 0.02
 -6 8 -15 -1.81 0.00
 -8 15 -6 -1.80 0.01
 -15 6 -8 -1.81 0.00
 -7 8 15 -0.30 0.00
 -15 -7 -8 -0.30 -0.01
 -8 15 7 -0.30 0.01
 -15 7 8 -0.30 0.01
 -8 15 -7 -0.30 -0.01
 -7 8 -15 -0.30 0.01
 -15 7 -8 -0.30 0.01
 -9 8 15 1.97 -0.01
 -15 -9 -8 1.98 0.02
 -15 9 8 1.98 0.00
 -8 15 9 1.98 -0.01
 -15 9 -8 1.98 0.01
 -8 15 -9 1.97 0.01
 -9 8 -15 1.98 0.01
 -8 15 10 0.63 0.02
 -15 10 8 0.63 0.00
 -10 8 15 0.63 0.02
 -15 10 -8 0.63 0.02
 -8 15 -10 0.63 0.00
 -10 8 -15 0.63 0.00
 -11 8 15 -0.06 0.00
 -8 15 11 -0.06 -0.01
 -15 11 8 -0.06 -0.01
 -11 8 -15 -0.06 0.00
 -15 11 -8 -0.06 0.00
 -8 15 -11 -0.07 0.00
 -15 12 8 -1.20 -0.02
 -8 15 12 -1.21 0.01
 -12 8 15 -1.20 0.00
 -8 15 -12 -1.20 0.01
 -15 12 -8 -1.20 0.00
 -12 8 -15 -1.20 -0.01
 -8 15 13 1.57 0.00
 -13 8 15 1.57 0.00
 -15 13 8 1.57 -0.01
 -15 13 -8 1.57 0.00
 -8 15 -13 1.56 0.01
 -13 8 -15 1.57 0.01
 -15 14 8 -1.16 0.01
 -14 8 15 -1.16 0.02
 -8 15 14 -1.16 0.02
 -15 14 -8 -1.16 0.01
 -14 8 -15 -1.16 0.00
 -8 15 -14 -1.16 0.00
 -15 0 -9 0.58 -0.02
 -9 15 0 0.58 0.05
 -15 0 9 0.58 0.12
 -15 -1 -9 -1.81 -0.04
 -9 15 1 -1.82 0.02
 -15 1 9 -1.82 0.03
 -1 9 15 -1.82 0.04
 -15 1 -9 -1.81 0.01
 -1 9 -15 -1.82 0.01
 -15 -1 9 -1.82 0.03
 -9 15 -1 -1.82 0.01
 -15 -2 -9 1.96 -0.66
 -2 9 15 1.96 0.62
 -9 15 2 1.97 0.60
 -15 2 9 2.01 0.39
 -15 2 -9 1.98 0.54
 -2 9 -15 2.03 0.06
 -9 15 -2 2.02 -0.18
 -15 3 9 -3.31 0.00
 -15 -3 -9 -3.32 0.02
 -9 15 3 -3.32 -0.01
 -3 9 15 -3.31 -0.02
 -3 9 -15 -3.31 0.01
 -9 15 -3 -3.31 0.02
 -15 3 -9 -3.31 -0.02
 -15 4 9 1.01 0.02
 -9 15 4 1.01 0.07
 -4 9 15 1.01 0.07
 -15 -4 -9 1.01 -0.06
 -15 4 -9 1.01 0.05
 -9 15 -4 1.02 0.00
 -4 9 -15 1.02 0.02
 -9 15 5 -0.88 0.00
 -15 5 9 -0.88 0.02
 -15 -5 -9 -0.88 -0.01
 -5 9 15 -0.88 0.00
 -5 9 -15 -0.88 0.00
 -15 5 -9 -0.88 0.00
 -9 15 -5 -0.88 0.00
 -15 6 9 1.38 0.00
 -9 15 6 1.38 -0.02
 -6 9 15 1.38 -0.01
 -15 -6 -9 1.38 0.04
 -9 15 -6 1.38 0.01
 -15 6 -9 1.38 -0.03
 -6 9 -15 1.38 -0.01
 -15 -7 -9 -1.97 0.00
 -9 15 7 -1.97 0.00
 -15 7 9 -1.97 0.02
 -7 9 15 -1.97 0.00
 -15 7 -9 -1.97 0.00
 -7 9 -15 -1.97 0.01
 -9 15 -7 -1.97 0.01
 -8 9 15 1.98 -0.01
 -9 15 8 1.97 -0.01
 -15 -8 -9 1.98 0.02
 -15 8 9 1.98 0.00
 -8 9 -15 1.98 -0.01
 -9 15 -8 1.98 0.01
 -15 8 -9 1.98 -0.02
 -15 10 9 2.07 -0.02
 -10 9 15 2.07 -0.01
 -9 15 10 2.07 0.01
 -9 15 -10 2.07 -0.01
 -10 9 -15 2.07 0.01
 -15 10 -9 2.07 0.00
 -9 15 11 -2.01 0.00
 -15 11 9 -2.01 0.00
 -11 9 15 -2.01 -0.02
 -11 9 -15 -2.01 0.03
 -9 15 -11 -2.01 -0.03
 -15 11 -9 -2.01 0.00
 -15 12 9 -0.11 0.01
 -12 9 15 -0.11 0.00
 -9 15 12 -0.11 -0.01
 -15 12 -9 -0.11 0.01
 -9 15 -12 -0.11 0.00
 -12 9 -15 -0.12 0.00
 -15 13 9 0.76 0.00
 -13 9 15 0.76 0.00
 -9 15 13 0.76 0.01
 -13 9 -15 0.76 0.01
 -9 15 -13 0.76 -0.01
 -15 13 -9 0.76 0.01
 -9 15 14 0.16 0.01
 -15 14 9 0.16 0.01
 -14 9 15 0.16 0.00
 -15 14 -9 0.16 0.01
 -9 15 -14 0.16 0.00
 -14 9 -15 0.16 0.00
 -10 15 0 -1.10 -0.14
 -15 0 10 -1.08 -0.45
 -15 0 -10 -1.09 0.07
 -15 -1 -10 2.58 0.10
 -15 1 10 2.56 -0.10
 -10 15 1 2.58 -0.11
 -1 10 15 2.58 -0.12
 -15 1 -10 2.57 -0.06
 -1 10 -15 2.56 0.01
 -10 15 -1 2.56 0.00
 -15 -1 10 2.58 -0.14
 -15 -2 -10 0.76 0.03
 -15 2 10 0.76 0.00
 -2 10 15 0.76 0.00
 -10 15 2 0.76 -0.02
 -2 10 -15 0.76 0.01
 -15 2 -10 0.76 -0.02
 -10 15 -2 0.76 0.03
 -15 3 10 0.21 -0.09
 -15 -3 -10 0.22 0.21
 -10 15 3 0.22 -0.18
 -3 10 15 0.22 -0.15
 -3 10 -15 0.21 -0.04
 -15 3 -10 0.21 -0.16
 -10 15 -3 0.20 0.06
 -4 10 15 -1.48 -0.14
 -15 4 10 -1.48 -0.09
 -10 15 4 -1.48 -0.13
 -15 -4 -10 -1.47 0.16
 -4 10 -15 -1.49 0.00
 -15 4 -10 -1.48 -0.14
 -10 15 -4 -1.49 0.05
 -10 15 5 1.08 -0.03
 -15 -5 -10 1.08 0.02
 -5 10 15 1.08 -0.01
 -15 5 10 1.08 0.00
 -10 15 -5 1.07 -0.01
 -5 10 -15 1.08 0.00
 -15 5 -10 1.08 -0.01
 -10 15 6 -2.02 0.02
 -15 -6 -10 -2.02 0.00
 -15 6 10 -2.02 0.01
 -6 10 15 -2.02 0.00
 -15 6 -10 -2.02 0.00
 -6 10 -15 -2.01 -0.01
 -10 15 -6 -2.01 -0.01
 -7 10 15 -0.74 0.01
 -10 15 7 -0.74 0.01
 -15 7 10 -0.74 0.03
 -15 -7 -10 -0.74 0.00
 -7 10 -15 -0.74 0.01
 -10 15 -7 -0.74 -0.01
 -15 7 -10 -0.74 0.01
 -15 8 10 -0.63 0.00
 -8 10 15 -0.63 -0.02
 -10 15 8 -0.63 -0.02
 -15 -8 -10 -0.63 0.03
 -10 15 -8 -0.63 0.01
 -15 8 -10 -0.63 -0.02
 -8 10 -15 -0.63 0.00
 -10 15 9 2.07 -0.01
 -9 10 15 2.07 0.01
 -15 9 10 2.07 -0.02
 -15 9 -10 2.07 0.01
 -9 10 -15 2.07 -0.02
 -10 15 -9 2.07 0.00
 -10 15 11 -0.36 0.00
 -15 11 10 -0.36 0.00
 -11 10 15 -0.36 0.00
 -10 15 -11 -0.37 -0.01
 -11 10 -15 -0.36 0.00
 -15 11 -10 -0.37 0.00
 -12 10 15 -1.97 0.00
 -10 15 12 -1.98 0.01
 -15 12 10 -1.97 0.01
 -12 10 -15 -1.98 0.01
 -15 12 -10 -1.98 -0.01
 -10 15 -12 -1.97 0.00
 -10 15 13 -0.47 -0.01
 -13 10 15 -0.47 -0.02
 -15 13 10 -0.48 -0.01
 -10 15 -13 -0.48 -0.02
 -13 10 -15 -0.48 -0.01
 -15 13 -10 -0.48 -0.03
 -15 14 10 -0.70 0.00
 -14 10 15 -0.70 0.00
 -10 15 14 -0.70 0.02
 -15 14 -10 -0.70 0.00
 -14 10 -15 -0.70 0.00
 -10 15 -14 -0.70 0.00
 -15 0 -11 -0.88 0.00
 -15 0 11 -0.88 -0.09
 0 11 15 -0.88 -0.08
 -11 15 0 -0.88 -0.03
 -11 15 1 -0.44 0.23
 -15 -1 -11 -0.44 -0.31
 -15 1 11 -0.43 0.17
 -1 11 15 -0.44 0.24
 -15 1 -11 -0.43 0.22
 -11 15 -1 -0.43 -0.11
 -15 -2 -11 -0.45 -0.09
 -2 11 15 -0.45 0.10
 -11 15 2 -0.45 0.08
 -15 2 11 -0.45 0.07
 -11 15 -2 -0.44 -0.01
 -2 11 -15 -0.44 0.00
 -15 2 -11 -0.44 0.07
 -3 11 15 -1.64 0.13
 -11 15 3 -1.64 0.16
 -15 3 11 -1.63 0.08
 -15 -3 -11 -1.64 -0.20
 -3 11 -15 -1.62 0.02
 -11 15 -3 -1.62 -0.07
 -15 3 -11 -1.63 0.17
 -15 -4 -11 -1.30 0.04
 -11 15 4 -1.30 -0.03
 -4 11 15 -1.31 -0.04
 -15 4 11 -1.30 -0.02
 -11 15 -4 -1.30 0.01
 -15 4 -11 -1.30 -0.05
 -4 11 -15 -1.30 0.01
 -15 -5 -11 2.45 -0.01
 -5 11 15 2.45 -0.03
 -15 5 11 2.44 -0.04
 -11 15 5 2.45 -0.03
 -11 15 -5 2.44 0.00
 -15 5 -11 2.45 0.00
 -5 11 -15 2.45 -0.01
 -15 6 11 -1.59 -0.01
 -6 11 15 -1.59 -0.01
 -11 15 6 -1.59 -0.01
 -15 -6 -11 -1.59 0.00
 -11 15 -6 -1.59 0.01
 -15 6 -11 -1.59 -0.01
 -6 11 -15 -1.59 -0.01
 -15 7 11 1.30 -0.01
 -15 -7 -11 1.30 0.00
 -7 11 15 1.30 0.00
 -11 15 7 1.31 -0.01
 -11 15 -7 1.30 0.01
 -15 7 -11 1.30 0.00
 -7 11 -15 1.30 0.00
 -15 8 11 -0.06 -0.01
 -11 15 8 -0.06 0.00
 -8 11 15 -0.06 -0.01
 -15 -8 -11 -0.06 0.00
 -8 11 -15 -0.06 0.00
 -11 15 -8 -0.06 0.00
 -15 8 -11 -0.06 0.01
 -15 9 11 2.01 0.00
 -11 15 9 2.01 0.02
 -9 11 15 2.01 -0.01
 -11 15 -9 2.01 0.01
 -9 11 -15 2.01 0.01
 -15 9 -11 2.01 -0.01
 -10 11 15 -0.36 0.00
 -15 10 11 -0.36 0.00
 -11 15 10 -0.36 0.00
 -10 11 -15 -0.37 0.01
 -11 15 -10 -0.36 -0.01
 -15 10 -11 -0.36 0.02
 -15 12 11 -0.76 0.01
 -11 15 12 -0.77 0.01
 -12 11 15 -0.76 0.02
 -11 15 -12 -0.76 0.02
 -15 12 -11 -0.76 0.02
 -12 11 -15 -0.77 0.00
 -15 13 11 1.35 -0.01
 -13 11 15 1.35 0.01
 -11 15 13 1.35 -0.02
 -11 15 -13 1.35 0.00
 -15 13 -11 1.35 0.01
 -13 11 -15 1.35 -0.02
 -14 11 15 1.45 0.02
 -11 15 14 1.45 0.00
 -15 14 11 1.45 -0.01
 -11 15 -14 1.45 0.01
 -14 11 -15 1.44 -0.02
 -15 14 -11 1.45 0.02
 -12 15 0 2.77 0.01
 -15 0 -12 2.77 -0.01
 -15 0 12 2.77 -0.01
 0 12 15 2.77 0.00
 -1 12 15 1.36 -0.04
 -15 -1 -12 1.35 0.02
 -12 15 1 1.36 -0.02
 -15 1 12 1.35 -0.06
 -15 1 -12 1.35 0.02
 1 12 15 1.36 -0.04
 -12 15 -1 1.35 -0.03
 -15 -2 -12 1.01 0.01
 -2 12 15 1.00 0.00
 -15 2 12 1.01 -0.03
 -12 15 2 1.00 -0.01
 -15 2 -12 1.01 0.00
 -12 15 -2 1.01 0.04
 -12 15 3 -0.19 -0.03
 -15 3 12 -0.19 -0.01
 -15 -3 -12 -0.19 0.05
 -3 12 15 -0.19 -0.02
 -12 15 -3 -0.19 0.01
 -15 3 -12 -0.19 -0.03
 -4 12 15 0.17 0.00
 -12 15 4 0.17 0.02
 -15 4 12 0.18 0.01
 -15 -4 -12 0.17 -0.01
 -4 12 -15 0.18 0.01
 -15 4 -12 0.17 0.00
 -12 15 -4 0.18 0.00
 -15 -5 -12 0.03 -0.01
 -15 5 12 0.04 0.01
 -12 15 5 0.04 0.01
 -5 12 15 0.03 0.01
 -15 5 -12 0.03 0.02
 -5 12 -15 0.04 0.01
 -12 15 -5 0.03 -0.02
 -15 6 12 -1.03 0.03
 -15 -6 -12 -1.03 0.04
 -12 15 6 -1.03 0.00
 -6 12 15 -1.03 0.00
 -15 6 -12 -1.03 -0.03
 -12 15 -6 -1.03 0.03
 -6 12 -15 -1.03 0.02
 -15 7 12 -1.52 0.01
 -15 -7 -12 -1.52 0.01
 -12 15 7 -1.52 -0.02
 -7 12 15 -1.52 0.01
 -15 7 -12 -1.52 -0.01
 -7 12 -15 -1.52 0.00
 -12 15 -7 -1.52 0.00
 -15 -8 -12 1.20 0.01
 -12 15 8 1.20 0.00
 -8 12 15 1.21 0.00
 -15 8 12 1.20 0.02
 -15 8 -12 1.20 -0.02
 -12 15 -8 1.20 0.01
 -8 12 -15 1.20 0.01
 -9 12 15 -0.11 -0.01
 -12 15 9 -0.11 0.00
 -15 9 12 -0.11 0.01
 -15 9 -12 -0.12 -0.01
 -12 15 -9 -0.12 0.01
 -9 12 -15 -0.11 -0.01
 -15 10 12 1.97 -0.01
 -10 12 15 1.98 -0.01
 -12 15 10 1.97 0.00
 -12 15 -10 1.98 -0.01
 -10 12 -15 1.97 0.00
 -15 10 -12 1.98 0.01
 -15 11 12 -0.76 0.01
 -11 12 15 -0.76 0.01
 -12 15 11 -0.76 0.02
 -11 12 -15 -0.77 0.00
 -15 11 -12 -0.76 0.02
 -12 15 -11 -0.77 -0.01
 -15 13 12 -1.06 0.00
 -13 12 15 -1.06 0.00
 -12 15 13 -1.06 0.02
 -15 13 -12 -1.06 0.02
 -13 12 -15 -1.06 0.00
 -12 15 -13 -1.06 -0.03
 -13 15 0 -0.20 0.01
 0 13 15 -0.20 0.03
 -15 0 -13 -0.20 -0.01
 -1 13 15 0.26 0.01
 -15 -1 -13 0.26 0.00
 -13 15 1 0.27 0.00
 -15 1 13 0.26 0.02
 1 13 15 0.26 0.00
 -13 15 -1 0.26 0.00
 -15 1 -13 0.26 -0.02
 -13 15 2 -2.68 0.02
 -2 13 15 -2.68 -0.02
 -15 -2 -13 -2.67 -0.02
 -15 2 13 -2.68 -0.02
 2 13 15 -2.68 0.00
 -15 2 -13 -2.67 0.04
 -13 15 -2 -2.68 -0.04
 -3 13 15 0.34 -0.03
 -15 3 13 0.34 -0.02
 -13 15 3 0.35 -0.02
 -15 -3 -13 0.34 0.02
 -13 15 -3 0.34 0.00
 -15 3 -13 0.34 -0.02
 -13 15 4 -1.08 -0.02
 -4 13 15 -1.08 -0.04
 -15 -4 -13 -1.08 0.00
 -15 4 13 -1.08 0.00
 -15 4 -13 -1.08 -0.02
 -13 15 -4 -1.08 -0.01
 -15 -5 -13 -0.30 0.00
 -15 5 13 -0.30 -0.01
 -13 15 5 -0.30 0.00
 -5 13 15 -0.30 0.01
 -13 15 -5 -0.30 0.01
 -5 13 -15 -0.30 0.00
 -15 5 -13 -0.30 0.02
 -13 15 6 0.46 -0.04
 -15 6 13 0.46 -0.04
 -15 -6 -13 0.46 0.01
 -6 13 15 0.46 -0.02
 -13 15 -6 0.46 0.01
 -6 13 -15 0.46 0.00
 -15 6 -13 0.46 -0.02
 -13 15 7 -0.60 0.01
 -15 -7 -13 -0.60 0.00
 -15 7 13 -0.60 -0.02
 -7 13 15 -0.60 -0.01
 -7 13 -15 -0.60 -0.01
 -15 7 -13 -0.60 0.01
 -13 15 -7 -0.60 -0.01
 -13 15 8 1.57 0.00
 -8 13 15 1.57 0.00
 -15 8 13 1.57 -0.01
 -8 13 -15 1.56 0.02
 -15 8 -13 1.57 0.00
 -13 15 -8 1.57 -0.01
 -13 15 9 -0.76 0.00
 -9 13 15 -0.76 -0.01
 -15 9 13 -0.76 0.00
 -13 15 -9 -0.76 0.00
 -9 13 -15 -0.76 0.00
 -15 9 -13 -0.76 -0.01
 -10 13 15 -0.47 -0.01
 -13 15 10 -0.47 -0.02
 -15 10 13 -0.48 -0.01
 -13 15 -10 -0.47 0.00
 -15 10 -13 -0.48 -0.01
 -10 13 -15 -0.48 -0.01
 -13 15 11 -1.35 -0.01
 -15 11 13 -1.35 0.01
 -11 13 15 -1.35 0.02
 -15 11 -13 -1.35 0.01
 -11 13 -15 -1.35 0.00
 -13 15 -11 -1.35 0.01
 -15 12 13 -1.06 0.00
 -12 13 15 -1.06 0.02
 -13 15 12 -1.06 0.00
 -13 15 -12 -1.06 0.02
 -12 13 -15 -1.06 -0.02
 -15 12 -13 -1.06 -0.01
 0 14 15 0.74 0.03
 -15 0 -14 0.74 0.00
 -14 15 0 0.74 0.02
 -15 -1 -14 1.10 -0.01
 -15 1 14 1.10 0.04
 -14 15 1 1.10 -0.02
 -1 14 15 1.10 0.02
 -14 15 -1 1.10 0.02
 1 14 15 1.10 0.00
 -15 1 -14 1.10 -0.02
 -15 -2 -14 -1.17 0.01
 -14 15 2 -1.17 0.01
 -2 14 15 -1.17 0.01
 -15 2 14 -1.17 0.00
 -15 2 -14 -1.17 0.02
 2 14 15 -1.17 0.03
 -14 15 -2 -1.17 -0.01
 -14 15 3 0.48 0.02
 -15 3 14 0.48 0.01
 -3 14 15 0.48 0.01
 -15 -3 -14 0.48 -0.03
 3 14 15 0.48 0.00
 -14 15 -3 0.48 -0.02
 -15 3 -14 0.48 0.03
 -4 14 15 -0.45 0.00
 -15 -4 -14 -0.45 -0.02
 -15 4 14 -0.45 0.01
 -14 15 4 -0.46 0.01
 4 14 15 -0.45 0.00
 -14 15 -4 -0.45 0.00
 -15 4 -14 -0.45 0.01
 -15 -5 -14 -0.18 0.00
 -14 15 5 -0.17 0.02
 -5 14 15 -0.18 0.00
 -15 5 14 -0.18 0.01
 -14 15 -5 -0.18 -0.01
 -15 5 -14 -0.18 -0.01
 -14 15 6 1.12 -0.01
 -15 -6 -14 1.12 0.02
 -15 6 14 1.12 0.01
 -6 14 15 1.12 0.00
 -15 6 -14 1.13 0.00
 -14 15 -6 1.12 0.01
 -7 14 15 -0.45 0.02
 -14 15 7 -0.45 -0.01
 -15 7 14 -0.46 0.01
 -14 15 -7 -0.46 0.01
 -15 7 -14 -0.45 0.00
 -7 14 -15 -0.45 0.00
 -14 15 8 1.16 -0.02
 -8 14 15 1.16 -0.02
 -15 8 14 1.16 -0.01
 -8 14 -15 1.16 0.01
 -15 8 -14 1.16 -0.01
 -14 15 -8 1.16 0.01
 -9 14 15 0.16 0.01
 -15 9 14 0.16 0.01
 -14 15 9 0.16 0.00
 -14 15 -9 0.16 0.00
 -9 14 -15 0.16 -0.01
 -15 9 -14 0.16 0.00
 -10 14 15 0.70 -0.02
 -14 15 10 0.70 0.00
 -15 10 14 0.70 0.00
 -15 10 -14 0.70 0.00
 -10 14 -15 0.70 0.00
 -14 15 -10 0.70 0.00
 -11 14 15 1.45 0.00
 -14 15 11 1.45 0.02
 -15 11 14 1.45 -0.01
 -11 14 -15 1.45 0.00
 -14 15 -11 1.45 -0.02
 -15 11 -14 1.45 0.01
 -15 0 -15 1.72 0.00
 -15 15 0 1.72 0.02
 0 15 15 1.71 0.01
 -15 -2 -15 1.16 0.01
 -2 15 15 1.15 -0.03
 -15 2 15 1.16 -0.01
 -15 15 2 1.16 -0.01
 -15 15 -2 1.16 -0.02
 -15 2 -15 1.16 -0.01
 2 15 15 1.15 0.03
 -15 -4 -15 -0.85 -0.01
 -4 15 15 -0.85 0.00
 -15 4 15 -0.85 -0.02
 -15 15 4 -0.85 -0.02
 -15 15 -4 -0.85 0.00
 -15 4 -15 -0.85 0.01
 4 15 15 -0.85 0.00
 -15 -6 -15 0.29 -0.01
 -6 15 15 0.29 0.01
 -15 6 15 0.29 0.01
 -15 15 6 0.30 0.01
 -15 15 -6 0.29 -0.01
 -15 6 -15 0.29 0.01
 -8 15 15 -0.39 -0.03
 -15 8 15 -0.39 0.00
 -15 15 8 -0.39 0.00
 -15 15 -8 -0.39 0.00
 -15 8 -15 -0.39 -0.01
 -15 15 10 -1.21 0.01
 -15 10 15 -1.21 0.00
 -10 15 15 -1.21 0.02
 -15 10 -15 -1.21 0.01
 -10 15 -15 -1.21 0.00
 -15 15 -10 -1.21 0.01
 -16 0 0 -14.69 0.00
 0 16 0 -14.70 -0.03
 -16 -1 0 -11.53 0.01
 -16 1 0 -11.53 0.01
 0 16 -1 -11.53 0.00
 0 16 1 -11.53 0.00
 -16 2 0 -8.54 0.00
 0 16 2 -8.54 -0.01
 -16 -2 0 -8.54 0.02
 0 16 3 -3.91 0.01
 -16 -3 0 -3.91 0.00
 -16 3 0 -3.91 0.00
 -16 -4 0 0.61 -0.02
 0 16 4 0.61 -0.02
 -16 4 0 0.61 -0.01
 -16 5 0 3.84 0.07
 -16 -5 0 3.84 0.01
 0 16 5 3.84 0.08
 -6 0 16 5.21 -0.02
 0 16 6 5.21 -0.04
 -16 6 0 5.20 -0.02
 0 16 7 2.91 0.01
 -16 7 0 2.91 0.00
 -7 0 -16 2.91 -0.01
 -7 0 16 2.91 -0.02
 -8 0 -16 1.02 0.03
 0 16 8 1.02 0.15
 -16 8 0 1.01 0.16
 -8 0 16 1.02 0.06
 0 16 9 -1.53 -0.31
 -9 0 16 -1.54 -0.11
 -16 9 0 -1.53 -0.31
 -9 0 -16 -1.54 -0.08
 0 16 10 -3.24 0.12
 -10 0 -16 -3.24 0.05
 -16 10 0 -3.25 0.12
 -10 0 16 -3.24 0.05
 0 16 11 0.01 0.03
 -11 0 16 0.01 0.01
 -16 11 0 0.01 0.02
 -11 0 -16 0.01 0.00
 -16 12 0 -1.44 0.03
 -12 0 -16 -1.43 -0.01
 -12 0 16 -1.44 0.01
 0 16 12 -1.43 0.00
 0 16 13 3.10 0.07
 -13 0 -16 3.10 0.03
 -16 13 0 3.10 0.05
 -16 14 0 -1.71 -0.02
 0 16 14 -1.71 0.01
 -14 0 -16 -1.71 0.00
 -15 0 -16 0.46 -0.01
 -16 15 0 0.46 0.00
 0 16 15 0.45 0.02
 1 16 0 11.53 0.01
 -16 0 1 11.53 -0.01
 -16 0 -1 11.53 -0.01
 -1 16 0 11.53 0.00
 -16 -1 -1 10.33 -0.01
 -16 1 1 10.33 -0.01
 -1 16 1 10.34 0.00
 -16 1 -1 10.33 -0.03
 -16 -1 1 10.33 -0.03
 -1 16 -1 10.33 0.00
 1 16 1 10.33 -0.01
 -16 -2 -1 8.16 0.00
 -16 2 1 8.16 0.04
 -1 16 2 8.16 0.01
 -16 -2 1 8.16 -0.01
 1 16 2 8.16 0.02
 -1 16 -2 8.16 0.00
 -16 2 -1 8.16 -0.03
 -16 -3 -1 2.06 -0.01
 -16 3 1 2.06 -0.01
 -1 16 3 2.06 0.00
 -16 3 -1 2.06 -0.01
 1 16 3 2.06 -0.02
 -1 16 -3 2.06 -0.01
 -16 -3 1 2.06 -0.02
 -16 4 1 -1.66 0.00
 -16 -4 -1 -1.66 -0.01
 -1 16 4 -1.67 -0.02
 -16 -4 1 -1.67 0.00
 -16 4 -1 -1.66 -0.02
 1 16 4 -1.67 -0.01
 -5 1 16 -2.62 -0.01
 -1 16 5 -2.62 0.02
 -16 -5 -1 -2.62 0.02
 -16 5 1 -2.61 0.02
 -16 5 -1 -2.62 -0.01
 1 16 5 -2.62 0.02
 -16 6 1 -2.38 0.00
 -1 16 6 -2.38 0.02
 -6 1 16 -2.38 0.02
 1 16 6 -2.39 0.01
 -16 6 -1 -2.38 0.03
 -6 -1 16 -2.38 0.01
 -6 1 -16 -2.39 0.00
 -16 7 1 -2.70 0.01
 -1 16 7 -2.70 0.07
 -7 1 16 -2.71 0.07
 -7 -1 16 -2.70 -0.01
 -7 1 -16 -2.70 -0.06
 -16 7 -1 -2.71 0.07
 1 16 7 -2.70 0.07
 -8 1 16 0.82 0.03
 -16 8 1 0.82 0.03
 -1 16 8 0.82 0.02
 -8 -1 -16 0.82 -0.02
 1 16 8 0.82 0.02
 -8 1 -16 0.82 -0.02
 -16 8 -1 0.82 0.01
 -8 -1 16 0.82 0.01
 -9 -1 -16 -1.48 -0.17
 -1 16 9 -1.48 -0.19
 -16 9 1 -1.48 -0.12
 -9 1 16 -1.48 -0.17
 -9 -1 16 -1.49 0.05
 -16 9 -1 -1.47 -0.21
 1 16 9 -1.48 -0.16
 -9 1 -16 -1.49 0.06
 -10 -1 -16 0.49 0.02
 -10 1 16 0.49 0.00
 -1 16 10 0.49 -0.03
 -16 10 1 0.49 -0.04
 1 16 10 0.49 -0.05
 -10 -1 16 0.49 -0.03
 -16 10 -1 0.49 -0.04
 -10 1 -16 0.48 -0.02
 -11 1 16 -0.27 0.05
 -1 16 11 -0.27 0.04
 -16 11 1 -0.25 0.05
 -11 -1 -16 -0.27 0.05
 1 16 11 -0.26 0.07
 -11 1 -16 -0.26 -0.03
 -11 -1 16 -0.26 -0.02
 -16 11 -1 -0.26 0.08
 -12 -1 -16 1.34 0.01
 -16 12 1 1.34 0.02
 -1 16 12 1.34 0.03
 -12 1 16 1.34 0.03
 -12 1 -16 1.34 -0.01
 1 16 12 1.34 0.01
 -16 12 -1 1.34 0.03
 -1 16 13 0.75 -0.02
 -13 1 16 0.75 -0.01
 -13 -1 -16 0.75 -0.03
 -16 13 1 0.76 0.00
 1 16 13 0.75 0.00
 -13 1 -16 0.75 0.03
 -16 13 -1 0.76 -0.01
 -1 16 14 -1.57 0.00
 -16 14 1 -1.57 0.00
 -14 -1 -16 -1.57 0.00
 -14 1 -16 -1.57 0.00
 -16 14 -1 -1.57 0.00
 1 16 14 -1.57 0.00
 -15 -1 -16 -1.40 -0.01
 -1 16 15 -1.40 -0.03
 -16 15 1 -1.40 -0.01
 -16 15 -1 -1.40 0.00
 -15 1 -16 -1.40 -0.01
 1 16 15 -1.40 -0.03
 -16 0 -2 -8.54 0.02
 -2 16 0 -8.54 -0.01
 -16 0 2 -8.54 0.00
 -2 16 1 -8.16 -0.03
 -16 1 2 -8.16 -0.04
 -16 -1 -2 -8.16 0.01
 -2 16 -1 -8.16 0.00
 -16 -1 2 -8.16 0.03
 -16 1 -2 -8.16 0.01
 -2 16 2 -3.79 -0.03
 -16 2 2 -3.79 0.00
 -16 -2 -2 -3.79 0.01
 -16 2 -2 -3.79 0.00
 -2 16 -2 -3.79 0.00
 -16 -2 2 -3.79 0.00
 2 16 2 -3.79 0.00
 -16 3 2 -1.42 -0.01
 -16 -3 -2 -1.41 0.00
 -2 16 3 -1.42 0.01
 -16 3 -2 -1.41 0.05
 2 16 3 -1.41 0.03
 -16 -3 2 -1.41 0.01
 -2 16 -3 -1.41 0.01
 -16 -4 -2 0.36 -0.01
 -2 16 4 0.36 0.01
 -16 4 2 0.35 0.01
 -16 4 -2 0.35 0.03
 -2 16 -4 0.36 -0.01
 -16 -4 2 0.36 0.02
 2 16 4 0.36 0.00
 -2 16 5 5.64 0.02
 -16 -5 -2 5.65 0.03
 -16 5 2 5.64 0.01
 -5 2 16 5.65 -0.01
 -16 5 -2 5.65 -0.01
 -5 2 -16 5.65 0.02
 2 16 5 5.65 0.00
 -2 16 6 3.63 0.02
 -6 2 16 3.64 0.02
 -16 -6 -2 3.63 0.03
 -16 6 2 3.63 0.03
 -6 2 -16 3.63 0.01
 -6 -2 16 3.63 0.02
 -16 6 -2 3.63 0.04
 2 16 6 3.63 0.03
 -2 16 7 2.42 0.12
 -7 2 16 2.42 0.14
 -16 7 2 2.44 0.06
 -7 2 -16 2.44 -0.08
 2 16 7 2.43 0.08
 -7 -2 16 2.44 -0.09
 -16 7 -2 2.42 0.13
 -16 8 2 1.23 -0.07
 -2 16 8 1.24 -0.14
 -8 2 16 1.24 -0.10
 -16 8 -2 1.24 -0.13
 -8 -2 16 1.23 0.03
 -8 2 -16 1.22 0.04
 2 16 8 1.23 -0.10
 -9 2 16 -1.52 -0.02
 -16 9 2 -1.52 0.05
 -9 -2 -16 -1.52 -0.01
 -2 16 9 -1.52 0.02
 -16 9 -2 -1.52 0.02
 -9 2 -16 -1.52 0.03
 2 16 9 -1.52 0.04
 -9 -2 16 -1.52 0.03
 -10 2 16 -1.74 -0.11
 -10 -2 -16 -1.75 -0.16
 -2 16 10 -1.74 -0.12
 -16 10 2 -1.75 -0.09
 -10 2 -16 -1.75 0.01
 2 16 10 -1.74 -0.14
 -16 10 -2 -1.74 -0.14
 -16 11 2 -0.13 0.08
 -2 16 11 -0.15 0.17
 -11 -2 -16 -0.14 0.19
 -11 2 16 -0.14 0.19
 2 16 11 -0.14 0.13
 -11 2 -16 -0.13 -0.12
 -16 11 -2 -0.15 0.22
 -12 2 16 1.65 -0.03
 -16 12 2 1.64 0.02
 -12 -2 -16 1.65 -0.02
 -2 16 12 1.65 0.01
 2 16 12 1.65 -0.02
 -16 12 -2 1.65 0.00
 -12 2 -16 1.65 0.02
 -16 13 2 0.87 -0.02
 -13 -2 -16 0.87 -0.03
 -2 16 13 0.87 -0.02
 -13 2 16 0.87 -0.02
 -16 13 -2 0.87 -0.02
 -13 2 -16 0.87 0.01
 2 16 13 0.87 -0.02
 -2 16 14 0.29 0.03
 -14 -2 -16 0.29 0.02
 -16 14 2 0.29 0.00
 -14 2 16 0.29 0.01
 2 16 14 0.29 0.01
 -14 2 -16 0.30 0.00
 -16 14 -2 0.28 0.03
 -16 15 2 -0.35 0.00
 -15 2 16 -0.35 0.01
 -15 -2 -16 -0.35 0.02
 -2 16 15 -0.35 0.00
 -16 15 -2 -0.35 -0.01
 -15 2 -16 -0.35 -0.01
 2 16 15 -0.35 0.04
 -16 0 -3 3.91 0.00
 -3 16 0 3.91 -0.01
 -16 0 3 3.91 0.00
 -16 1 3 2.06 -0.02
 -3 16 1 2.06 0.01
 -16 -1 -3 2.06 -0.01
 -16 1 -3 2.06 -0.02
 -16 -1 3 2.06 -0.01
 -3 16 -1 2.06 -0.01
 -16 2 3 1.42 0.01
 -16 -2 -3 1.41 0.00
 -3 16 2 1.41 -0.01
 -3 16 -2 1.41 -0.01
 -16 -2 3 1.41 -0.05
 -16 2 -3 1.41 -0.01
 -16 -3 -3 -1.18 0.01
 -3 16 3 -1.18 0.02
 -16 3 3 -1.18 -0.01
 -3 16 -3 -1.18 -0.01
 -16 3 -3 -1.18 -0.02
 -16 -3 3 -1.18 -0.02
 3 16 3 -1.18 0.00
 -16 -4 -3 -3.40 -0.02
 -3 16 4 -3.40 -0.01
 -16 4 3 -3.40 -0.02
 -3 16 -4 -3.40 0.00
 3 16 4 -3.40 0.00
 -4 3 -16 -3.41 0.00
 -3 16 5 -2.52 0.02
 -5 3 16 -2.52 0.03
 -16 5 3 -2.51 -0.02
 -16 -5 -3 -2.52 -0.01
 -3 16 -5 -2.52 0.01
 3 16 5 -2.51 -0.02
 -16 5 -3 -2.51 0.02
 -5 3 -16 -2.51 -0.01
 -16 6 3 -2.60 0.00
 -6 3 16 -2.59 0.00
 -3 16 6 -2.60 -0.01
 -16 -6 -3 -2.60 0.01
 3 16 6 -2.60 0.02
 -6 3 -16 -2.60 -0.02
 -3 16 -6 -2.60 0.02
 -16 6 -3 -2.60 -0.02
 -6 -3 16 -2.60 -0.01
 -7 3 16 -0.75 0.06
 -3 16 7 -0.75 0.07
 -16 7 3 -0.74 0.04
 -16 7 -3 -0.75 0.06
 -7 3 -16 -0.74 -0.03
 3 16 7 -0.75 0.03
 -7 -3 16 -0.74 -0.02
 -3 16 8 -0.80 -0.01
 -8 3 16 -0.80 -0.02
 -16 8 3 -0.80 -0.04
 -8 -3 16 -0.80 0.00
 3 16 8 -0.80 -0.03
 -16 8 -3 -0.80 -0.03
 -8 3 -16 -0.81 0.00
 -9 3 16 -0.26 -0.13
 -3 16 9 -0.26 -0.15
 -16 9 3 -0.27 -0.06
 3 16 9 -0.27 -0.07
 -9 3 -16 -0.28 0.08
 -16 9 -3 -0.26 -0.16
 -3 16 10 -2.71 -0.02
 -10 3 16 -2.71 -0.01
 -10 -3 -16 -2.71 -0.05
 -16 10 3 -2.71 -0.01
 -16 10 -3 -2.71 -0.04
 3 16 10 -2.71 -0.03
 -10 3 -16 -2.71 -0.01
 -11 3 16 1.00 0.09
 -3 16 11 1.00 0.05
 -11 -3 -16 1.00 0.13
 -16 11 3 1.01 0.03
 3 16 11 1.00 0.10
 -11 3 -16 1.00 -0.04
 -16 11 -3 1.00 0.08
 -16 12 3 -0.96 0.00
 -12 3 16 -0.96 -0.01
 -3 16 12 -0.96 -0.02
 -12 -3 -16 -0.96 -0.01
 -12 3 -16 -0.96 0.02
 -16 12 -3 -0.96 -0.02
 3 16 12 -0.96 -0.01
 -13 -3 -16 0.62 -0.02
 -3 16 13 0.62 0.02
 -16 13 3 0.62 0.00
 -13 3 16 0.62 0.01
 -13 3 -16 0.62 0.01
 -16 13 -3 0.62 0.02
 3 16 13 0.62 0.01
 -3 16 14 0.24 0.00
 -16 14 3 0.24 0.00
 -14 3 16 0.23 0.01
 -14 -3 -16 0.24 0.01
 -16 14 -3 0.24 0.01
 -14 3 -16 0.24 0.01
 3 16 14 0.23 -0.01
 -15 -3 -16 -1.30 0.00
 -15 3 16 -1.30 -0.01
 -16 15 3 -1.29 0.00
 -3 16 15 -1.29 0.00
 3 16 15 -1.30 -0.01
 -15 3 -16 -1.29 0.01
 -16 15 -3 -1.29 0.01
 -16 0 -4 0.61 -0.02
 -4 16 0 0.61 -0.02
 -16 0 4 0.61 -0.01
 -16 -1 -4 1.66 0.01
 -4 16 1 1.66 0.00
 -16 1 4 1.66 0.00
 -4 16 -1 1.66 0.01
 -16 -1 4 1.66 0.02
 -16 1 -4 1.67 0.00
 -16 -2 -4 0.36 -0.01
 -4 16 2 0.36 -0.01
 -16 2 4 0.35 0.01
 -16 -2 4 0.35 0.03
 -4 16 -2 0.36 0.00
 -16 2 -4 0.36 0.02
 -16 3 4 3.40 0.02
 -16 -3 -4 3.40 0.02
 -4 16 3 3.40 0.01
 -4 16 -3 3.40 0.02
 -16 -3 4 3.40 0.02
 -16 3 -4 3.40 -0.01
 -16 4 4 3.58 0.03
 -16 -4 -4 3.58 0.03
 -4 4 16 3.58 -0.01
 -4 16 4 3.58 -0.01
 -4 4 -16 3.58 0.02
 -16 4 -4 3.58 -0.01
 4 16 4 3.58 0.01
 -4 16 -4 3.58 -0.01
 -16 5 4 4.36 0.03
 -16 -5 -4 4.36 -0.03
 -5 4 16 4.35 0.06
 -4 16 5 4.35 0.03
 4 16 5 4.36 0.05
 -16 5 -4 4.35 0.07
 -5 4 -16 4.36 -0.03
 -4 16 -5 4.35 0.03
 -16 6 4 3.25 0.01
 -4 16 6 3.26 0.00
 -16 -6 -4 3.26 0.03
 -6 4 16 3.26 -0.01
 -6 -4 16 3.25 -0.01
 -6 4 -16 3.25 0.01
 4 16 6 3.25 -0.03
 -4 16 -6 3.25 -0.01
 -16 6 -4 3.25 -0.02
 -4 16 7 1.91 0.01
 -16 7 4 1.91 0.03
 -16 -7 -4 1.92 0.02
 -7 4 16 1.92 0.00
 -4 16 -7 1.91 0.01
 4 16 7 1.92 0.00
 -16 7 -4 1.92 -0.01
 -7 -4 16 1.92 0.00
 -7 4 -16 1.92 0.00
 -16 8 4 0.22 0.03
 -4 16 8 0.22 0.06
 -8 4 16 0.22 0.05
 -16 8 -4 0.21 0.07
 -8 4 -16 0.22 -0.03
 4 16 8 0.22 0.02
 -9 4 16 -1.91 -0.12
 -4 16 9 -1.91 -0.14
 -16 9 4 -1.92 -0.07
 -9 4 -16 -1.92 0.04
 4 16 9 -1.91 -0.10
 -16 9 -4 -1.91 -0.12
 -4 16 10 -0.27 0.08
 -10 4 16 -0.27 0.08
 -16 10 4 -0.27 0.05
 4 16 10 -0.27 0.05
 -10 4 -16 -0.27 -0.06
 -16 10 -4 -0.28 0.10
 -16 11 4 1.19 -0.01
 -11 4 16 1.20 0.01
 -4 16 11 1.19 0.00
 4 16 11 1.20 0.01
 -16 11 -4 1.19 0.02
 -11 4 -16 1.19 -0.02
 -4 16 12 1.50 -0.01
 -12 -4 -16 1.50 -0.03
 -16 12 4 1.49 -0.02
 -12 4 16 1.50 -0.01
 -16 12 -4 1.50 -0.01
 4 16 12 1.50 -0.03
 -12 4 -16 1.50 0.00
 -13 4 16 0.62 0.04
 -13 -4 -16 0.62 0.04
 -4 16 13 0.62 0.02
 -16 13 4 0.62 0.00
 -16 13 -4 0.62 0.03
 -13 4 -16 0.63 -0.03
 4 16 13 0.63 0.03
 -16 14 4 0.92 0.01
 -14 -4 -16 0.93 -0.01
 -14 4 16 0.93 -0.01
 -4 16 14 0.93 0.00
 -16 14 -4 0.93 -0.01
 4 16 14 0.93 0.00
 -14 4 -16 0.93 0.02
 -4 16 15 -2.54 -0.02
 -15 4 16 -2.54 0.01
 -16 15 4 -2.54 0.00
 -15 -4 -16 -2.54 0.01
 -15 4 -16 -2.54 0.00
 -16 15 -4 -2.54 -0.01
 4 16 15 -2.54 0.02
 -16 0 5 -3.84 -0.07
 -16 0 -5 -3.84 -0.01
 -5 16 0 -3.85 -0.03
 -16 1 5 -2.61 0.02
 -5 16 1 -2.62 -0.01
 -16 -1 -5 -2.62 0.02
 -16 -1 5 -2.62 -0.01
 -5 16 -1 -2.62 0.02
 -16 1 -5 -2.62 0.00
 -16 2 5 -5.64 -0.01
 -16 -2 -5 -5.65 -0.03
 -5 16 2 -5.65 0.01
 -16 -2 5 -5.65 0.01
 -5 16 -2 -5.65 -0.02
 -16 2 -5 -5.65 0.01
 -16 3 5 -2.51 -0.02
 -5 16 3 -2.52 0.03
 -16 -3 -5 -2.52 -0.01
 -3 5 -16 -2.52 -0.01
 -16 -3 5 -2.51 0.02
 -5 16 -3 -2.51 0.02
 -16 3 -5 -2.52 0.00
 -5 16 4 -4.35 -0.06
 -16 -4 -5 -4.36 0.02
 -16 4 5 -4.36 -0.03
 -4 5 16 -4.35 -0.03
 -5 16 -4 -4.36 -0.01
 -4 5 -16 -4.36 -0.01
 -16 4 -5 -4.36 -0.06
 -16 -5 -5 -1.92 -0.06
 -5 5 16 -1.92 0.04
 -5 16 5 -1.92 0.04
 -16 5 5 -1.91 0.00
 5 16 5 -1.92 -0.01
 -5 16 -5 -1.92 0.02
 -16 5 -5 -1.92 0.04
 -5 5 -16 -1.91 -0.02
 -6 5 16 -1.39 0.01
 -16 -6 -5 -1.39 0.00
 -5 16 6 -1.39 0.00
 -16 6 5 -1.39 0.00
 -16 6 -5 -1.39 0.00
 5 16 6 -1.39 0.01
 -6 5 -16 -1.39 -0.01
 -5 16 -6 -1.39 0.01
 -16 -7 -5 -0.48 0.02
 -7 5 16 -0.48 -0.04
 -16 7 5 -0.48 0.00
 -5 16 7 -0.48 0.00
 -16 7 -5 -0.48 -0.04
 5 16 7 -0.48 -0.04
 -5 16 -7 -0.48 -0.02
 -7 5 -16 -0.48 0.04
 -16 8 5 0.16 0.00
 -5 16 8 0.15 0.01
 -8 5 16 0.15 0.01
 5 16 8 0.15 0.00
 -16 8 -5 0.15 -0.01
 -5 16 -8 0.15 -0.02
 -8 5 -16 0.15 -0.01
 -16 9 5 -2.27 -0.02
 -9 5 16 -2.27 0.00
 -5 16 9 -2.27 0.00
 -5 16 -9 -2.27 -0.01
 -16 9 -5 -2.27 -0.01
 5 16 9 -2.27 -0.01
 -9 5 -16 -2.27 0.01
 -10 5 16 -0.75 0.00
 -16 10 5 -0.74 0.00
 -5 16 10 -0.75 0.00
 5 16 10 -0.75 0.02
 -10 5 -16 -0.75 0.00
 -16 10 -5 -0.75 -0.01
 -5 16 11 -0.07 -0.01
 -16 11 5 -0.07 -0.01
 -11 5 16 -0.07 -0.02
 -11 5 -16 -0.07 0.00
 -16 11 -5 -0.07 -0.02
 5 16 11 -0.07 -0.01
 -5 16 12 0.21 0.00
 -12 5 16 0.21 0.01
 -16 12 5 0.22 0.01
 -16 12 -5 0.21 0.00
 5 16 12 0.21 -0.01
 -12 5 -16 0.21 0.00
 -13 5 16 0.08 0.02
 -5 16 13 0.08 0.04
 -16 13 5 0.09 0.02
 -13 5 -16 0.09 0.00
 -16 13 -5 0.09 0.01
 5 16 13 0.08 0.02
 -14 -5 -16 0.13 -0.03
 -16 14 5 0.13 -0.01
 -5 16 14 0.13 0.01
 -14 5 16 0.12 -0.01
 -16 14 -5 0.13 -0.02
 5 16 14 0.13 -0.03
 -14 5 -16 0.13 0.02
 -15 5 16 0.76 0.00
 -5 16 15 0.76 0.00
 -16 15 5 0.77 0.00
 -15 -5 -16 0.76 0.01
 -16 15 -5 0.77 0.00
 5 16 15 0.76 -0.02
 -15 5 -16 0.76 0.00
 -6 16 0 5.21 -0.01
 -16 0 6 5.20 -0.02
 -16 0 -6 5.21 0.02
 -16 -1 -6 2.39 0.01
 -6 16 1 2.38 -0.02
 -16 1 6 2.38 0.00
 -16 -1 6 2.38 -0.02
 -16 1 -6 2.39 0.00
 -6 16 -1 2.38 -0.01
 -16 -2 -6 3.63 0.03
 -6 16 2 3.64 0.02
 -16 2 6 3.63 0.03
 -6 16 -2 3.63 0.02
 -16 -2 6 3.63 0.03
 -16 2 -6 3.63 -0.01
 -3 6 16 2.59 0.01
 -16 3 6 2.60 0.00
 -6 16 3 2.59 0.00
 -16 -3 -6 2.60 -0.01
 -6 16 -3 2.60 0.01
 -16 3 -6 2.60 0.00
 -3 6 -16 2.60 0.02
 -16 -4 -6 3.26 0.03
 -6 16 4 3.26 -0.01
 -4 6 16 3.26 0.00
 -16 4 6 3.25 0.01
 -6 16 -4 3.25 -0.01
 -16 4 -6 3.25 0.00
 -4 6 -16 3.25 -0.01
 -5 6 16 1.39 0.00
 -6 16 5 1.39 -0.01
 -16 5 6 1.39 0.00
 -16 -5 -6 1.39 0.00
 -5 6 -16 1.39 0.00
 -6 16 -5 1.39 -0.01
 -16 5 -6 1.39 0.02
 -16 6 6 3.92 0.02
 -6 16 6 3.92 0.04
 -16 -6 -6 3.92 -0.01
 -6 6 16 3.92 0.04
 -16 6 -6 3.92 0.05
 -6 16 -6 3.92 0.01
 -6 6 -16 3.92 -0.03
 -6 16 7 -0.51 -0.03
 -7 6 16 -0.50 -0.06
 -16 7 6 -0.51 -0.01
 -16 -7 -6 -0.50 0.04
 -7 6 -16 -0.51 0.03
 -6 16 -7 -0.51 -0.04
 -16 7 -6 -0.51 -0.05
 6 16 7 -0.50 -0.05
 -16 8 6 1.13 0.02
 -6 16 8 1.13 0.00
 -8 6 16 1.13 0.02
 -6 16 -8 1.13 0.02
 -16 8 -6 1.13 0.02
 -8 6 -16 1.13 -0.02
 6 16 8 1.13 0.00
 -6 16 9 -2.54 0.01
 -16 9 6 -2.55 0.04
 -9 6 16 -2.54 0.03
 -9 6 -16 -2.54 0.00
 -16 9 -6 -2.54 0.04
 6 16 9 -2.54 0.02
 -6 16 -9 -2.54 0.00
 -6 16 10 0.22 0.01
 -10 6 16 0.21 0.02
 -16 10 6 0.21 -0.02
 -16 10 -6 0.22 0.03
 -10 6 -16 0.22 0.00
 -6 16 -10 0.22 -0.02
 6 16 10 0.21 0.01
 -16 11 6 1.41 -0.02
 -11 6 16 1.42 -0.04
 -6 16 11 1.42 -0.05
 -11 6 -16 1.41 0.02
 6 16 11 1.42 -0.03
 -16 11 -6 1.42 -0.03
 -6 16 12 1.34 0.02
 -16 12 6 1.34 0.00
 -12 6 16 1.34 0.03
 -12 6 -16 1.35 -0.02
 6 16 12 1.34 0.03
 -16 12 -6 1.34 0.03
 -16 13 6 -0.61 0.00
 -6 16 13 -0.61 -0.02
 -13 6 16 -0.61 -0.01
 -13 6 -16 -0.61 -0.02
 6 16 13 -0.61 0.02
 -16 13 -6 -0.61 0.00
 -6 16 14 -0.71 -0.01
 -14 6 16 -0.71 0.00
 -16 14 6 -0.71 -0.01
 6 16 14 -0.71 0.00
 -14 6 -16 -0.71 -0.01
 -16 14 -6 -0.71 0.00
 -15 6 16 1.11 0.00
 -16 15 6 1.11 0.00
 -6 16 15 1.11 -0.01
 -16 15 -6 1.10 0.02
 -15 6 -16 1.11 0.00
 6 16 15 1.11 0.00
 -16 0 7 -2.91 0.00
 -16 0 -7 -2.91 -0.02
 -7 16 0 -2.91 0.02
 -16 -1 -7 -2.71 -0.09
 -7 16 1 -2.71 0.07
 -16 1 7 -2.70 0.01
 -16 1 -7 -2.70 0.08
 -16 -1 7 -2.71 0.07
 -7 16 -1 -2.70 -0.01
 -16 2 7 -2.44 -0.06
 -7 16 2 -2.42 -0.14
 -16 -2 -7 -2.43 0.17
 -16 2 -7 -2.43 -0.16
 -16 -2 7 -2.42 -0.13
 -2 7 -16 -2.45 -0.04
 -7 16 -2 -2.44 0.09
 -3 7 16 -0.75 0.07
 -7 16 3 -0.75 0.06
 -16 -3 -7 -0.76 -0.09
 -16 3 7 -0.74 0.04
 -16 3 -7 -0.75 0.04
 -7 16 -3 -0.74 -0.02
 -3 7 -16 -0.74 0.00
 -16 4 7 -1.91 -0.03
 -7 16 4 -1.92 0.00
 -16 -4 -7 -1.92 -0.02
 -4 7 16 -1.91 -0.01
 -7 16 -4 -1.92 0.00
 -16 4 -7 -1.92 -0.01
 -4 7 -16 -1.92 0.00
 -16 5 7 -0.48 0.00
 -16 -5 -7 -0.48 0.02
 -7 16 5 -0.48 -0.04
 -5 7 16 -0.48 0.00
 -7 16 -5 -0.48 0.00
 -5 7 -16 -0.48 0.00
 -16 5 -7 -0.48 -0.04
 -16 -6 -7 0.50 -0.04
 -16 6 7 0.51 0.01
 -7 16 6 0.50 0.06
 -6 7 16 0.51 0.03
 -6 7 -16 0.51 0.00
 -7 16 -6 0.51 0.00
 -16 6 -7 0.51 0.03
 -16 7 7 0.46 -0.03
 -7 16 7 0.46 -0.02
 -7 7 16 0.46 -0.02
 -16 -7 -7 0.45 -0.01
 -7 16 -7 0.46 -0.01
 -16 7 -7 0.46 -0.01
 -7 7 -16 0.45 0.00
 -8 7 16 -1.00 0.01
 -16 8 7 -1.00 -0.02
 -16 -8 -7 -1.00 0.01
 -7 16 8 -1.00 0.00
 -7 16 -8 -1.00 0.03
 -16 8 -7 -1.00 -0.01
 7 16 8 -1.00 0.01
 -8 7 -16 -1.00 -0.02
 -7 16 9 -1.50 0.02
 -16 9 7 -1.50 0.00
 -9 7 16 -1.50 0.00
 7 16 9 -1.50 -0.01
 -7 16 -9 -1.50 -0.01
 -9 7 -16 -1.51 0.01
 -16 9 -7 -1.50 0.01
 -10 7 16 -1.87 0.00
 -16 10 7 -1.86 -0.02
 -7 16 10 -1.87 0.00
 -16 10 -7 -1.86 -0.01
 -10 7 -16 -1.86 -0.01
 -7 16 -10 -1.86 0.01
 7 16 10 -1.86 0.01
 -16 11 7 1.56 0.00
 -7 16 11 1.56 0.00
 -11 7 16 1.55 0.00
 -11 7 -16 1.55 -0.01
 -7 16 -11 1.56 0.00
 7 16 11 1.56 -0.01
 -16 11 -7 1.56 -0.02
 -7 16 12 -0.38 0.01
 -12 7 16 -0.39 0.01
 -16 12 7 -0.38 0.01
 -12 7 -16 -0.38 0.01
 7 16 12 -0.38 0.01
 -16 12 -7 -0.38 0.00
 -13 7 16 0.13 0.01
 -7 16 13 0.13 0.00
 -16 13 7 0.14 0.02
 -13 7 -16 0.13 -0.01
 -16 13 -7 0.13 -0.01
 7 16 13 0.13 0.01
 -16 14 7 1.07 0.00
 -14 7 16 1.06 0.00
 -7 16 14 1.07 0.00
 -16 14 -7 1.07 -0.03
 7 16 14 1.07 0.00
 -14 7 -16 1.07 0.00
 -7 16 15 0.84 0.02
 -15 7 16 0.84 0.01
 -16 15 7 0.84 0.00
 -15 7 -16 0.84 0.01
 -16 15 -7 0.84 0.01
 -16 0 8 1.01 0.16
 -16 0 -8 1.02 0.00
 -8 16 0 1.02 0.06
 -16 1 8 -0.82 -0.03
 -8 16 1 -0.82 -0.03
 -16 -1 -8 -0.82 0.03
 -16 -1 8 -0.82 -0.01
 -16 1 -8 -0.82 0.01
 -8 16 -1 -0.82 -0.01
 -16 -2 -8 1.25 0.15
 -8 16 2 1.24 -0.10
 -2 8 16 1.24 -0.14
 -16 2 8 1.23 -0.07
 -2 8 -16 1.22 -0.02
 -16 2 -8 1.24 -0.11
 -8 16 -2 1.23 0.03
 -3 8 16 0.80 0.01
 -16 3 8 0.80 0.04
 -8 16 3 0.80 0.02
 -16 -3 -8 0.81 -0.01
 -3 8 -16 0.80 0.00
 -16 3 -8 0.80 0.00
 -8 16 -3 0.80 0.01
 -8 16 4 0.22 0.05
 -4 8 16 0.22 0.06
 -16 -4 -8 0.22 -0.06
 -16 4 8 0.22 0.03
 -16 4 -8 0.22 0.07
 -8 16 -4 0.23 -0.02
 -4 8 -16 0.22 -0.01
 -8 16 5 -0.15 -0.01
 -5 8 16 -0.15 -0.01
 -16 5 8 -0.16 0.00
 -16 -5 -8 -0.15 0.02
 -5 8 -16 -0.15 0.01
 -16 5 -8 -0.15 0.02
 -8 16 -5 -0.16 -0.02
 -8 16 6 1.13 0.02
 -6 8 16 1.13 0.00
 -16 6 8 1.13 0.01
 -16 -6 -8 1.13 -0.01
 -8 16 -6 1.13 -0.01
 -16 6 -8 1.13 0.02
 -6 8 -16 1.13 -0.01
 -16 7 8 1.00 0.02
 -7 8 16 1.00 0.00
 -16 -7 -8 1.00 -0.01
 -8 16 7 1.00 -0.01
 -7 8 -16 1.00 0.00
 -8 16 -7 1.00 0.01
 -16 7 -8 1.00 0.00
 -16 8 8 -0.26 0.02
 -8 8 16 -0.26 0.02
 -16 -8 -8 -0.25 -0.03
 -8 16 8 -0.26 0.02
 -16 8 -8 -0.26 0.01
 -8 8 -16 -0.25 0.00
 -8 16 -8 -0.25 0.00
 -16 -9 -8 -0.61 0.01
 -16 9 8 -0.61 0.02
 -9 8 16 -0.61 -0.02
 -8 16 9 -0.61 -0.01
 -9 8 -16 -0.61 0.03
 -8 16 -9 -0.61 -0.02
 -16 9 -8 -0.61 0.01
 -8 16 10 -1.03 0.01
 -10 8 16 -1.03 0.01
 -16 10 8 -1.03 0.00
 -8 16 -10 -1.02 -0.01
 8 16 10 -1.03 0.01
 -16 10 -8 -1.03 0.01
 -10 8 -16 -1.02 -0.01
 -11 8 16 2.17 0.00
 -16 11 8 2.17 0.01
 -8 16 11 2.18 0.01
 -16 11 -8 2.17 0.01
 -8 16 -11 2.17 0.00
 -11 8 -16 2.17 0.01
 -12 8 16 -0.74 -0.01
 -8 16 12 -0.74 0.01
 -16 12 8 -0.74 -0.01
 -16 12 -8 -0.74 0.00
 -12 8 -16 -0.74 0.00
 -8 16 -12 -0.74 0.00
 -13 8 16 -0.07 -0.02
 -16 13 8 -0.07 -0.02
 -8 16 13 -0.06 -0.02
 -8 16 -13 -0.07 0.00
 -16 13 -8 -0.07 0.00
 -13 8 -16 -0.07 -0.01
 -14 8 16 -0.63 0.01
 -16 14 8 -0.63 0.00
 -8 16 14 -0.63 0.01
 -14 8 -16 -0.62 -0.01
 -16 14 -8 -0.63 0.01
 -16 15 8 -0.99 -0.01
 -15 8 16 -0.99 -0.01
 -8 16 15 -0.99 0.00
 -15 8 -16 -0.99 0.02
 -16 15 -8 -0.99 0.00
 -9 16 0 1.54 0.11
 -16 0 -9 1.53 -0.04
 -16 0 9 1.53 0.31
 -16 1 9 -1.48 -0.12
 -9 16 1 -1.48 -0.17
 -16 -1 -9 -1.48 0.16
 -1 9 16 -1.48 -0.19
 -16 -1 9 -1.47 -0.21
 -16 1 -9 -1.48 -0.17
 -9 16 -1 -1.49 0.05
 -16 2 9 1.52 -0.05
 -16 -2 -9 1.51 -0.03
 -9 16 2 1.52 0.02
 -2 9 16 1.52 -0.02
 -9 16 -2 1.52 -0.03
 -16 2 -9 1.52 0.04
 -2 9 -16 1.51 0.00
 -3 9 16 -0.26 -0.15
 -16 -3 -9 -0.27 0.16
 -9 16 3 -0.26 -0.13
 -16 3 9 -0.27 -0.06
 -9 16 -3 -0.28 0.04
 -16 3 -9 -0.27 -0.13
 -3 9 -16 -0.28 -0.02
 -16 4 9 1.92 0.07
 -9 16 4 1.91 0.12
 -4 9 16 1.91 0.14
 -16 -4 -9 1.90 -0.13
 -9 16 -4 1.92 -0.05
 -4 9 -16 1.92 0.01
 -16 4 -9 1.91 0.12
 -16 5 9 -2.27 -0.02
 -16 -5 -9 -2.28 -0.01
 -5 9 16 -2.27 0.00
 -9 16 5 -2.27 0.00
 -5 9 -16 -2.27 0.02
 -16 5 -9 -2.27 -0.01
 -9 16 -5 -2.27 -0.01
 -16 6 9 2.55 -0.04
 -16 -6 -9 2.54 0.01
 -6 9 16 2.54 -0.01
 -9 16 6 2.54 -0.02
 -16 6 -9 2.54 0.00
 -6 9 -16 2.54 0.00
 -9 16 -6 2.54 0.00
 -7 9 16 -1.50 0.02
 -9 16 7 -1.50 0.00
 -16 -7 -9 -1.51 -0.02
 -16 7 9 -1.50 0.00
 -16 7 -9 -1.51 -0.02
 -9 16 -7 -1.50 0.01
 -7 9 -16 -1.50 -0.01
 -16 -8 -9 0.61 -0.01
 -9 16 8 0.61 0.02
 -8 9 16 0.61 0.01
 -16 8 9 0.61 -0.02
 -8 9 -16 0.61 0.01
 -16 8 -9 0.61 0.03
 -9 16 -8 0.61 -0.02
 -16 -9 -9 -2.22 0.02
 -9 9 16 -2.22 -0.02
 -9 16 9 -2.22 -0.02
 -16 9 9 -2.22 -0.02
 -16 9 -9 -2.22 -0.02
 -9 9 -16 -2.22 0.01
 -9 16 -9 -2.22 -0.01
 -9 16 10 -0.79 -0.02
 -10 9 16 -0.79 -0.01
 -16 10 9 -0.78 0.00
 -16 10 -9 -0.78 -0.02
 -9 16 -10 -0.79 0.02
 -10 9 -16 -0.78 -0.02
 -11 9 16 0.48 0.01
 -16 11 9 0.48 0.02
 -9 16 11 0.48 0.00
 -16 11 -9 0.48 0.00
 -11 9 -16 0.48 0.00
 -9 16 -11 0.48 0.00
 -9 16 12 1.88 -0.01
 -12 9 16 1.88 0.01
 -16 12 9 1.88 0.01
 -9 16 -12 1.88 0.01
 -12 9 -16 1.88 -0.01
 -16 12 -9 1.88 -0.01
 -9 16 13 0.35 0.00
 -13 9 16 0.35 0.00
 -16 13 9 0.36 0.00
 -9 16 -13 0.35 0.00
 -16 13 -9 0.36 0.01
 -13 9 -16 0.36 -0.01
 -9 16 14 1.51 0.00
 -16 14 9 1.51 0.01
 -14 9 16 1.51 -0.01
 -14 9 -16 1.51 0.00
 -9 16 -14 1.51 0.00
 -16 14 -9 1.51 0.00
 -10 16 0 -3.24 0.05
 -16 0 10 -3.25 0.12
 -16 0 -10 -3.24 0.01
 -10 16 1 -0.49 0.00
 -16 1 10 -0.49 0.04
 -16 -1 -10 -0.48 0.04
 -1 10 16 -0.49 0.03
 -16 1 -10 -0.48 -0.04
 -10 16 -1 -0.49 0.03
 -10 16 2 -1.74 -0.11
 -16 -2 -10 -1.74 0.14
 -2 10 16 -1.74 -0.12
 -16 2 10 -1.75 -0.09
 -10 16 -2 -1.75 0.07
 -16 2 -10 -1.74 -0.11
 -2 10 -16 -1.76 0.00
 -16 -3 -10 2.72 -0.02
 -10 16 3 2.71 0.01
 -3 10 16 2.71 0.02
 -16 3 10 2.71 0.01
 -16 3 -10 2.72 0.04
 -3 10 -16 2.71 0.00
 -10 16 -3 2.71 -0.03
 -16 4 10 -0.27 0.05
 -10 16 4 -0.27 0.08
 -4 10 16 -0.27 0.08
 -16 -4 -10 -0.27 -0.10
 -10 16 -4 -0.26 -0.01
 -4 10 -16 -0.27 0.01
 -16 4 -10 -0.27 0.06
 -16 5 10 0.74 0.00
 -16 -5 -10 0.75 0.01
 -5 10 16 0.75 0.00
 -10 16 5 0.75 0.00
 -5 10 -16 0.75 0.00
 -10 16 -5 0.75 0.01
 -16 5 -10 0.75 0.01
 -16 6 10 0.21 -0.02
 -6 10 16 0.22 0.01
 -16 -6 -10 0.22 -0.01
 -10 16 6 0.21 0.02
 -6 10 -16 0.22 -0.01
 -16 6 -10 0.22 0.01
 -10 16 -6 0.22 0.01
 -16 7 10 1.86 0.02
 -10 16 7 1.87 0.00
 -16 -7 -10 1.87 -0.01
 -7 10 16 1.87 0.00
 -7 10 -16 1.86 0.01
 -10 16 -7 1.86 0.00
 -16 7 -10 1.86 -0.02
 -16 8 10 -1.03 0.01
 -10 16 8 -1.03 0.01
 -16 -8 -10 -1.02 0.00
 -8 10 16 -1.03 0.01
 -10 16 -8 -1.02 0.00
 -16 8 -10 -1.03 0.00
 -8 10 -16 -1.02 -0.01
 -16 -9 -10 0.79 -0.02
 -9 10 16 0.79 0.02
 -10 16 9 0.79 0.01
 -16 9 10 0.78 0.00
 -10 16 -9 0.78 -0.02
 -9 10 -16 0.78 -0.01
 -16 9 -10 0.79 0.04
 -10 10 16 -2.62 0.00
 -10 16 10 -2.62 0.00
 -16 10 10 -2.62 0.00
 -10 10 -16 -2.62 -0.01
 -10 16 -10 -2.62 0.01
 -16 10 -10 -2.62 0.00
 -10 16 11 0.75 -0.01
 -11 10 16 0.75 0.00
 -16 11 10 0.74 -0.02
 -10 16 -11 0.74 -0.01
 -16 11 -10 0.74 0.01
 -11 10 -16 0.75 -0.01
 -16 12 10 0.21 -0.02
 -10 16 12 0.21 0.00
 -12 10 16 0.21 0.01
 -10 16 -12 0.22 0.00
 -12 10 -16 0.22 0.00
 -16 12 -10 0.21 0.00
 -13 10 16 -1.65 -0.01
 -16 13 10 -1.65 -0.01
 -10 16 13 -1.64 0.00
 -13 10 -16 -1.64 0.01
 -10 16 -13 -1.65 0.00
 -16 13 -10 -1.65 0.00
 -14 10 16 -0.69 -0.01
 -16 14 10 -0.69 -0.01
 -10 16 14 -0.69 0.00
 -16 14 -10 -0.69 0.00
 -14 10 -16 -0.69 0.02
 -10 16 -14 -0.69 -0.01
 -16 0 11 -0.01 -0.02
 -16 0 -11 -0.01 -0.01
 -11 16 0 -0.01 -0.01
 0 11 16 -0.01 -0.03
 -11 16 1 -0.27 0.05
 -16 1 11 -0.25 0.05
 -1 11 16 -0.27 0.04
 -16 -1 -11 -0.27 -0.06
 -16 1 -11 -0.26 0.02
 -11 16 -1 -0.26 -0.02
 -16 2 11 0.13 -0.08
 -11 16 2 0.14 -0.19
 -2 11 16 0.15 -0.17
 -16 -2 -11 0.14 0.25
 -11 16 -2 0.13 0.09
 -16 2 -11 0.13 -0.22
 -16 3 11 1.00 0.03
 -16 -3 -11 1.00 -0.09
 -11 16 3 1.00 0.09
 -3 11 16 1.00 0.05
 -3 11 -16 1.00 0.03
 -16 3 -11 1.00 0.10
 -11 16 -3 1.00 -0.06
 -11 16 4 -1.20 -0.01
 -16 4 11 -1.19 0.01
 -16 -4 -11 -1.20 0.00
 -4 11 16 -1.19 0.00
 -11 16 -4 -1.19 0.00
 -4 11 -16 -1.20 -0.01
 -16 4 -11 -1.20 -0.01
 -16 5 11 -0.07 -0.01
 -16 -5 -11 -0.07 0.02
 -11 16 5 -0.07 -0.02
 -5 11 16 -0.07 -0.02
 -5 11 -16 -0.07 -0.01
 -11 16 -5 -0.07 0.01
 -16 5 -11 -0.07 -0.02
 -11 16 6 -1.42 0.04
 -16 -6 -11 -1.42 -0.05
 -16 6 11 -1.41 0.02
 -6 11 16 -1.42 0.05
 -16 6 -11 -1.42 0.03
 -11 16 -6 -1.41 -0.02
 -6 11 -16 -1.41 0.00
 -11 16 7 1.55 0.00
 -16 -7 -11 1.55 -0.01
 -7 11 16 1.56 0.00
 -16 7 11 1.56 0.00
 -11 16 -7 1.56 0.00
 -7 11 -16 1.55 0.02
 -16 7 -11 1.55 -0.01
 -8 11 16 -2.18 -0.01
 -11 16 8 -2.17 0.00
 -16 8 11 -2.17 0.00
 -16 -8 -11 -2.18 0.00
 -11 16 -8 -2.17 0.00
 -8 11 -16 -2.17 -0.01
 -16 8 -11 -2.18 -0.01
 -9 11 16 0.48 0.00
 -11 16 9 0.48 0.01
 -16 9 11 0.48 0.02
 -11 16 -9 0.48 0.00
 -9 11 -16 0.48 0.00
 -16 9 -11 0.48 -0.01
 -16 10 11 -0.74 0.02
 -11 16 10 -0.75 0.00
 -10 11 16 -0.75 0.01
 -11 16 -10 -0.75 0.00
 -10 11 -16 -0.75 0.01
 -16 10 -11 -0.75 -0.01
 -16 11 11 1.20 0.00
 -11 11 16 1.19 -0.01
 -11 16 11 1.20 -0.01
 -11 16 -11 1.20 0.01
 -11 11 -16 1.20 -0.01
 -16 11 -11 1.20 -0.03
 -12 11 16 2.14 0.00
 -16 12 11 2.15 0.03
 -11 16 12 2.15 0.00
 -16 12 -11 2.15 -0.01
 -11 16 -12 2.14 0.00
 -12 11 -16 2.15 0.01
 -13 11 16 0.52 0.00
 -16 13 11 0.52 0.02
 -11 16 13 0.52 0.01
 -13 11 -16 0.52 0.01
 -16 13 -11 0.52 -0.01
 -11 16 -13 0.52 0.01
 -12 16 0 -1.44 0.01
 0 12 16 -1.43 0.00
 -16 0 -12 -1.43 -0.01
 -16 1 12 -1.34 -0.02
 -16 -1 -12 -1.34 0.04
 -12 16 1 -1.34 -0.03
 -1 12 16 -1.34 -0.03
 -12 16 -1 -1.34 0.00
 -16 1 -12 -1.34 0.00
 1 12 16 -1.34 -0.01
 -12 16 2 1.65 -0.03
 -16 -2 -12 1.65 0.02
 -16 2 12 1.64 0.02
 -2 12 16 1.65 0.01
 -16 2 -12 1.65 -0.02
 -12 16 -2 1.65 0.02
 -16 3 12 0.96 0.00
 -3 12 16 0.96 0.02
 -16 -3 -12 0.97 -0.02
 -12 16 3 0.96 0.01
 -16 3 -12 0.97 0.03
 -12 16 -3 0.96 -0.03
 -12 16 4 1.50 -0.01
 -4 12 16 1.50 -0.01
 -16 4 12 1.49 -0.02
 -16 -4 -12 1.50 0.01
 -12 16 -4 1.50 0.02
 -4 12 -16 1.49 -0.01
 -16 4 -12 1.50 0.00
 -5 12 16 -0.21 0.00
 -16 5 12 -0.21 -0.01
 -16 -5 -12 -0.21 0.01
 -12 16 5 -0.21 -0.01
 -12 16 -5 -0.21 -0.01
 -16 5 -12 -0.21 0.00
 -5 12 -16 -0.21 0.00
 -16 6 12 1.34 0.00
 -12 16 6 1.34 0.03
 -6 12 16 1.34 0.02
 -16 -6 -12 1.34 -0.02
 -6 12 -16 1.34 0.00
 -12 16 -6 1.35 -0.01
 -16 6 -12 1.35 0.02
 -12 16 7 0.39 -0.01
 -16 -7 -12 0.39 0.01
 -7 12 16 0.38 -0.01
 -16 7 12 0.38 -0.01
 -7 12 -16 0.38 0.00
 -16 7 -12 0.39 0.01
 -12 16 -7 0.38 -0.01
 -16 8 12 -0.74 -0.01
 -12 16 8 -0.74 -0.01
 -8 12 16 -0.74 0.01
 -16 -8 -12 -0.74 0.01
 -12 16 -8 -0.74 0.00
 -16 8 -12 -0.74 0.02
 -8 12 -16 -0.74 -0.01
 -16 9 12 -1.88 -0.01
 -9 12 16 -1.88 0.01
 -12 16 9 -1.88 -0.01
 -12 16 -9 -1.88 -0.01
 -16 9 -12 -1.88 0.03
 -9 12 -16 -1.88 -0.02
 -12 16 10 0.21 0.01
 -16 10 12 0.21 -0.02
 -10 12 16 0.21 0.00
 -16 10 -12 0.21 0.02
 -12 16 -10 0.21 0.00
 -10 12 -16 0.22 0.01
 -12 16 11 -2.14 0.00
 -16 11 12 -2.15 -0.02
 -11 12 16 -2.15 0.00
 -16 11 -12 -2.15 0.02
 -11 12 -16 -2.14 -0.01
 -12 16 -11 -2.15 0.00
 -16 12 12 0.74 -0.02
 -12 16 12 0.74 -0.03
 -12 12 16 0.74 -0.03
 -16 12 -12 0.74 -0.01
 -12 16 -12 0.75 0.00
 -12 12 -16 0.75 0.00
 -13 16 0 -3.10 -0.01
 -16 0 -13 -3.10 0.01
 0 13 16 -3.09 -0.07
 -16 1 13 0.76 0.00
 -13 16 1 0.76 -0.01
 -1 13 16 0.75 -0.02
 -16 -1 -13 0.75 0.04
 -13 16 -1 0.75 0.03
 -16 1 -13 0.75 -0.03
 1 13 16 0.75 0.00
 -16 2 13 -0.87 0.02
 -2 13 16 -0.87 0.02
 -13 16 2 -0.87 0.02
 -16 -2 -13 -0.88 -0.03
 -13 16 -2 -0.87 -0.01
 2 13 16 -0.87 0.02
 -16 2 -13 -0.87 0.00
 -16 3 13 0.62 0.00
 -16 -3 -13 0.62 -0.01
 -3 13 16 0.62 0.02
 -13 16 3 0.62 0.01
 -13 16 -3 0.62 0.02
 -16 3 -13 0.62 -0.01
 -13 16 4 -0.62 -0.04
 -16 4 13 -0.62 0.00
 -4 13 16 -0.62 -0.02
 -16 -4 -13 -0.63 0.02
 -16 4 -13 -0.63 -0.05
 -13 16 -4 -0.63 0.03
 -16 -5 -13 0.08 -0.03
 -16 5 13 0.09 0.02
 -5 13 16 0.08 0.04
 -13 16 5 0.08 0.02
 -13 16 -5 0.09 -0.01
 -16 5 -13 0.08 0.02
 -13 16 6 0.61 0.01
 -6 13 16 0.61 0.02
 -16 6 13 0.61 0.00
 -16 -6 -13 0.61 -0.02
 -16 6 -13 0.60 0.00
 -6 13 -16 0.61 -0.01
 -13 16 -6 0.61 0.01
 -16 -7 -13 0.13 0.01
 -13 16 7 0.13 0.02
 -7 13 16 0.13 0.00
 -16 7 13 0.14 0.02
 -13 16 -7 0.13 0.01
 -7 13 -16 0.13 -0.01
 -16 7 -13 0.13 -0.01
 -16 8 13 0.07 0.02
 -8 13 16 0.06 0.02
 -13 16 8 0.07 0.02
 -13 16 -8 0.07 0.01
 -16 8 -13 0.06 -0.01
 -8 13 -16 0.07 0.00
 -9 13 16 0.35 0.00
 -16 9 13 0.36 0.00
 -13 16 9 0.35 0.00
 -16 9 -13 0.35 0.00
 -13 16 -9 0.35 -0.01
 -9 13 -16 0.36 -0.01
 -16 10 13 1.65 0.01
 -10 13 16 1.64 -0.01
 -13 16 10 1.65 0.01
 -10 13 -16 1.65 0.01
 -16 10 -13 1.64 -0.03
 -13 16 -10 1.65 0.00
 -13 16 11 0.52 0.00
 -16 11 13 0.52 0.02
 -11 13 16 0.52 0.01
 -13 16 -11 0.52 0.00
 -16 11 -13 0.52 -0.01
 -11 13 -16 0.52 0.02
 -16 0 -14 -1.71 0.00
 0 14 16 -1.71 0.01
 -14 16 0 -1.71 -0.02
 -16 -1 -14 1.57 0.01
 -14 16 1 1.57 0.00
 -1 14 16 1.57 0.00
 -16 1 -14 1.57 0.01
 -14 16 -1 1.57 0.00
 1 14 16 1.57 0.00
 -2 14 16 0.29 0.03
 -16 2 14 0.29 0.00
 -14 16 2 0.29 0.01
 -16 -2 -14 0.29 -0.02
 -16 2 -14 0.29 0.03
 2 14 16 0.29 0.01
 -14 16 -2 0.29 -0.02
 -3 14 16 -0.24 0.00
 -16 3 14 -0.24 0.00
 -14 16 3 -0.23 -0.01
 -16 -3 -14 -0.23 0.02
 -16 3 -14 -0.23 -0.01
 3 14 16 -0.23 0.01
 -14 16 -3 -0.23 0.00
 -16 4 14 0.92 0.01
 -14 16 4 0.93 -0.01
 -4 14 16 0.93 0.00
 -16 -4 -14 0.93 0.04
 -16 4 -14 0.93 -0.01
 -14 16 -4 0.93 0.01
 4 14 16 0.93 0.00
 -16 5 14 -0.13 0.01
 -16 -5 -14 -0.12 0.00
 -5 14 16 -0.13 -0.01
 -14 16 5 -0.12 0.01
 -14 16 -5 -0.13 -0.03
 -16 5 -14 -0.12 0.00
 -6 14 16 -0.71 -0.01
 -16 -6 -14 -0.71 0.03
 -14 16 6 -0.71 0.00
 -16 6 14 -0.71 -0.01
 -16 6 -14 -0.71 0.01
 -14 16 -6 -0.71 0.01
 -16 -7 -14 -1.06 -0.01
 -7 14 16 -1.07 0.00
 -14 16 7 -1.07 0.00
 -16 7 14 -1.07 -0.01
 -16 7 -14 -1.07 0.00
 -14 16 -7 -1.07 -0.02
 -8 14 16 -0.62 0.01
 -16 8 14 -0.63 0.00
 -14 16 8 -0.63 0.01
 -8 14 -16 -0.62 0.00
 -16 8 -14 -0.62 0.02
 -14 16 -8 -0.62 -0.01
 -14 16 9 -1.51 0.01
 -16 9 14 -1.51 -0.01
 -9 14 16 -1.51 0.00
 -14 16 -9 -1.51 -0.02
 -9 14 -16 -1.51 0.00
 -16 9 -14 -1.51 0.02
 -10 14 16 -0.69 0.00
 -14 16 10 -0.69 -0.01
 -16 10 14 -0.69 -0.01
 -10 14 -16 -0.69 0.01
 -16 10 -14 -0.69 0.00
 -14 16 -10 -0.69 0.01
 -16 0 -15 -0.46 0.00
 0 15 16 -0.45 -0.02
 -15 16 0 -0.46 -0.01
 -16 -1 -15 -1.40 0.01
 -1 15 16 -1.40 -0.03
 -15 16 1 -1.40 0.01
 1 15 16 -1.40 -0.03
 -16 1 -15 -1.40 0.01
 -15 16 -1 -1.40 0.00
 -15 16 2 0.35 -0.01
 -16 -2 -15 0.35 -0.02
 -2 15 16 0.35 0.00
 -15 16 -2 0.35 0.01
 -16 2 -15 0.35 0.02
 2 15 16 0.35 -0.04
 -15 16 3 -1.30 -0.01
 -16 -3 -15 -1.30 -0.02
 -3 15 16 -1.29 0.00
 -16 3 15 -1.29 0.00
 -15 16 -3 -1.29 0.02
 3 15 16 -1.30 -0.01
 -16 3 -15 -1.30 -0.04
 -16 4 15 2.54 0.00
 -4 15 16 2.54 0.02
 -16 -4 -15 2.53 -0.02
 -15 16 4 2.54 -0.01
 -15 16 -4 2.54 -0.01
 4 15 16 2.54 -0.02
 -16 4 -15 2.54 0.01
 -15 16 5 0.76 0.00
 -16 -5 -15 0.76 -0.02
 -16 5 15 0.77 0.00
 -5 15 16 0.76 0.00
 5 15 16 0.76 -0.02
 -16 5 -15 0.76 0.00
 -15 16 -5 0.76 0.01
 -15 16 6 -1.11 0.00
 -6 15 16 -1.11 0.01
 -16 -6 -15 -1.11 0.03
 -16 6 15 -1.11 0.00
 -15 16 -6 -1.11 0.02
 -16 6 -15 -1.11 -0.01
 -7 15 16 0.84 0.02
 -15 16 7 0.84 0.01
 -16 7 15 0.84 0.00
 -16 7 -15 0.84 0.00
 -15 16 -7 0.84 0.01
 -8 15 16 0.99 0.00
 -15 16 8 0.99 0.01
 -16 8 15 0.99 0.01
 -15 16 -8 0.99 0.01
 -16 8 -15 0.99 -0.01
 -16 0 -16 2.47 0.01
 -16 16 0 2.47 0.00
 0 16 16 2.47 0.02
 -16 -2 -16 -0.47 0.01
 -2 16 16 -0.48 0.00
 -16 16 2 -0.48 -0.02
 -16 16 -2 -0.48 -0.01
 -16 2 -16 -0.48 0.01
 2 16 16 -0.47 -0.02
 -16 -4 -16 0.69 0.02
 -4 16 16 0.69 0.00
 -16 4 16 0.69 0.01
 -16 16 4 0.69 0.01
 -16 16 -4 0.69 -0.01
 -16 4 -16 0.69 0.00
 4 16 16 0.69 0.02
 -6 16 16 -2.32 -0.01
 -16 6 16 -2.32 -0.01
 -16 16 6 -2.32 -0.01
 -16 16 -6 -2.32 0.01
 -16 6 -16 -2.31 0.00
 6 16 16 -2.32 0.00
 -17 -1 0 1.50 0.00
 -17 1 0 1.50 0.02
 0 17 1 1.50 0.03
 0 17 2 -1.77 -0.01
 -17 2 0 -1.77 0.00
 -17 -2 0 -1.77 -0.01
 -17 -3 0 2.28 0.02
 -17 3 0 2.28 -0.01
 0 17 3 2.28 0.01
 -17 4 0 0.30 0.00
 -17 -4 0 0.30 0.00
 0 17 4 0.30 0.00
 -17 5 0 -1.67 0.01
 0 17 5 -1.67 0.02
 0 17 6 -1.85 -0.02
 -6 0 17 -1.86 -0.03
 -17 6 0 -1.85 -0.02
 -7 0 17 1.84 0.00
 -17 7 0 1.85 0.01
 0 17 7 1.84 0.02
 -8 0 -17 -2.27 0.03
 -8 0 17 -2.28 -0.04
 -17 8 0 -2.27 -0.02
 0 17 8 -2.27 -0.02
 -17 9 0 2.72 -0.10
 0 17 9 2.72 -0.09
 -9 0 -17 2.72 -0.05
 -9 0 17 2.72 -0.03
 -10 0 -17 -0.73 0.03
 0 17 10 -0.73 -0.02
 -10 0 17 -0.73 -0.03
 -17 10 0 -0.73 -0.01
 -17 11 0 1.76 -0.07
 -11 0 17 1.77 -0.02
 0 17 11 1.76 -0.04
 -11 0 -17 1.76 -0.01
 -17 12 0 -3.10 -0.03
 0 17 12 -3.09 -0.02
 -12 0 -17 -3.10 0.00
 0 17 13 0.21 0.05
 -13 0 -17 0.22 0.00
 -17 13 0 0.22 0.04
 0 17 14 -0.32 -0.02
 -14 0 -17 -0.33 -0.01
 -17 14 0 -0.32 0.00
 -17 15 0 -0.23 0.01
 0 17 15 -0.23 0.02
 -15 0 -17 -0.23 -0.01
 0 17 16 -0.83 0.03
 -16 0 -17 -0.84 -0.01
 -17 16 0 -0.84 0.01
 -17 0 -1 1.51 0.00
 -1 17 0 1.51 0.00
 -17 0 1 1.51 0.02
 -17 2 1 -0.85 0.00
 -1 17 2 -0.85 0.01
 -17 -2 -1 -0.85 0.00
 -17 2 -1 -0.85 0.00
 1 17 2 -0.85 0.00
 -17 -2 1 -0.85 0.00
 -17 -3 -1 0.09 0.00
 -17 3 1 0.09 -0.01
 -1 17 3 0.09 0.00
 -17 -3 1 0.09 0.03
 -17 3 -1 0.09 -0.01
 1 17 3 0.09 0.00
 -17 4 1 1.20 0.01
 -1 17 4 1.20 0.00
 -17 -4 -1 1.20 0.01
 -17 -4 1 1.20 -0.01
 -17 4 -1 1.20 0.01
 1 17 4 1.20 -0.02
 -1 17 5 -1.54 -0.07
 -5 1 17 -1.54 -0.03
 -17 -5 -1 -1.54 0.01
 -17 5 1 -1.54 -0.04
 -17 5 -1 -1.54 -0.06
 1 17 5 -1.54 -0.05
 -1 17 6 -0.71 -0.04
 -17 6 1 -0.72 -0.01
 -6 1 17 -0.72 -0.01
 -17 6 -1 -0.72 -0.03
 1 17 6 -0.72 -0.04
 -6 -1 17 -0.72 -0.01
 -1 17 7 -0.46 -0.02
 -17 7 1 -0.46 0.01
 -7 1 17 -0.45 -0.01
 -17 7 -1 -0.45 -0.01
 -7 -1 17 -0.45 0.04
 1 17 7 -0.45 -0.01
 -7 1 -17 -0.46 0.02
 -8 1 17 -0.08 0.05
 -1 17 8 -0.08 0.06
 -17 8 1 -0.08 0.04
 1 17 8 -0.08 0.04
 -8 1 -17 -0.07 0.00
 -8 -1 17 -0.08 -0.02
 -17 8 -1 -0.08 0.07
 -9 -1 -17 0.24 0.14
 -17 9 1 0.25 0.08
 -1 17 9 0.24 0.17
 -9 1 17 0.24 0.19
 -9 -1 17 0.25 -0.04
 -17 9 -1 0.23 0.21
 -9 1 -17 0.25 -0.11
 1 17 9 0.24 0.15
 -10 1 17 1.94 0.10
 -10 -1 -17 1.95 0.13
 -17 10 1 1.94 0.08
 -1 17 10 1.94 0.09
 -10 -1 17 1.95 -0.05
 -17 10 -1 1.94 0.12
 1 17 10 1.94 0.11
 -10 1 -17 1.95 -0.02
 -11 1 17 -0.42 -0.01
 -17 11 1 -0.42 0.00
 -1 17 11 -0.42 0.00
 -11 -1 -17 -0.42 -0.03
 1 17 11 -0.42 -0.02
 -11 1 -17 -0.42 0.00
 -17 11 -1 -0.42 0.01
 -17 12 1 -0.18 -0.02
 -1 17 12 -0.18 0.01
 -12 -1 -17 -0.18 0.04
 -12 1 17 -0.18 0.01
 -17 12 -1 -0.18 0.01
 1 17 12 -0.18 0.00
 -12 1 -17 -0.18 -0.01
 -13 1 17 -1.01 -0.01
 -1 17 13 -1.01 -0.07
 -17 13 1 -1.01 -0.04
 -13 -1 -17 -1.01 -0.01
 1 17 13 -1.01 -0.06
 -17 13 -1 -1.01 -0.05
 -13 1 -17 -1.01 -0.01
 -14 -1 -17 1.26 -0.01
 -1 17 14 1.26 -0.04
 -17 14 1 1.26 -0.02
 1 17 14 1.26 -0.05
 -14 1 -17 1.26 0.00
 -17 14 -1 1.26 -0.02
 -1 17 15 1.62 -0.02
 -15 -1 -17 1.62 0.01
 -17 15 1 1.62 0.00
 -17 15 -1 1.62 0.00
 -15 1 -17 1.62 0.00
 1 17 15 1.62 0.00
 -1 17 16 -0.11 0.02
 -17 16 1 -0.11 0.00
 -16 -1 -17 -0.11 0.01
 -17 16 -1 -0.11 0.02
 1 17 16 -0.11 0.01
 -16 1 -17 -0.11 -0.01
 -2 17 0 1.77 0.00
 -17 0 2 1.77 0.00
 -17 0 -2 1.77 0.01
 -2 17 1 -0.85 0.00
 -17 1 2 -0.85 0.00
 -17 -1 -2 -0.85 0.00
 -17 -1 2 -0.85 0.00
 -17 1 -2 -0.85 0.00
 -2 17 -1 -0.85 0.03
 -2 17 3 -0.16 0.01
 -17 3 2 -0.15 0.01
 -17 -3 -2 -0.16 0.00
 2 17 3 -0.15 0.02
 -17 -3 2 -0.16 0.01
 -17 3 -2 -0.16 0.02
 -2 17 4 0.93 0.00
 -17 -4 -2 0.93 -0.02
 -17 4 2 0.93 0.00
 2 17 4 0.93 -0.02
 -17 4 -2 0.93 0.01
 -5 2 17 -0.95 -0.02
 -2 17 5 -0.95 -0.01
 -17 -5 -2 -0.95 -0.01
 -17 5 2 -0.95 -0.02
 -17 5 -2 -0.95 0.00
 2 17 5 -0.95 -0.01
 -6 2 17 -0.71 0.03
 -17 6 2 -0.71 0.03
 -2 17 6 -0.70 0.03
 -17 6 -2 -0.71 0.05
 -6 2 -17 -0.70 -0.01
 2 17 6 -0.71 0.05
 -6 -2 17 -0.71 0.02
 -2 17 7 -0.49 -0.03
 -17 7 2 -0.49 -0.01
 -7 2 17 -0.49 -0.03
 -17 7 -2 -0.49 -0.02
 -7 2 -17 -0.50 0.02
 2 17 7 -0.49 -0.02
 -7 -2 17 -0.50 0.02
 -17 8 2 1.53 -0.04
 -8 2 17 1.55 -0.14
 -2 17 8 1.55 -0.08
 -8 2 -17 1.53 0.07
 2 17 8 1.54 -0.10
 -8 -2 17 1.52 0.08
 -17 8 -2 1.55 -0.10
 -9 2 17 0.43 0.07
 -17 9 2 0.44 0.02
 -2 17 9 0.43 0.06
 -9 -2 17 0.44 -0.06
 2 17 9 0.44 0.05
 -17 9 -2 0.43 0.05
 -9 2 -17 0.44 -0.03
 -17 10 2 1.55 -0.05
 -10 -2 -17 1.56 -0.14
 -2 17 10 1.56 -0.16
 -10 2 17 1.56 -0.17
 -17 10 -2 1.57 -0.19
 2 17 10 1.56 -0.10
 -10 2 -17 1.55 0.14
 -2 17 11 -0.58 -0.06
 -11 2 17 -0.57 -0.09
 -11 -2 -17 -0.58 -0.07
 -17 11 2 -0.58 -0.03
 -17 11 -2 -0.57 -0.08
 2 17 11 -0.58 -0.05
 -11 2 -17 -0.58 0.06
 -12 -2 -17 0.27 0.00
 -2 17 12 0.28 0.04
 -17 12 2 0.27 0.04
 -12 2 17 0.28 -0.01
 -12 2 -17 0.27 0.02
 2 17 12 0.27 0.04
 -17 12 -2 0.27 0.02
 -2 17 13 -1.80 -0.01
 -13 2 17 -1.79 -0.02
 -13 -2 -17 -1.79 -0.02
 -17 13 2 -1.79 -0.01
 -13 2 -17 -1.79 0.00
 2 17 13 -1.80 0.00
 -17 13 -2 -1.79 -0.01
 -14 -2 -17 0.18 -0.01
 -2 17 14 0.19 0.02
 -14 2 17 0.19 0.01
 -17 14 2 0.18 0.01
 -17 14 -2 0.18 0.00
 2 17 14 0.19 0.00
 -14 2 -17 0.18 -0.01
 -2 17 15 1.08 0.01
 -17 15 2 1.09 0.03
 -15 -2 -17 1.09 -0.01
 2 17 15 1.08 0.03
 -15 2 -17 1.08 0.00
 -17 15 -2 1.08 0.00
 -16 -2 -17 -1.38 -0.02
 -2 17 16 -1.37 0.02
 -17 16 2 -1.37 0.00
 -16 2 -17 -1.38 -0.01
 -17 16 -2 -1.37 0.00
 2 17 16 -1.37 0.00
 -17 0 3 2.28 -0.01
 -17 0 -3 2.28 0.02
 -3 17 0 2.28 -0.02
 -3 17 1 -0.08 0.00
 -17 -1 -3 -0.09 0.00
 -17 1 3 -0.08 0.01
 -17 -1 3 -0.09 0.01
 -17 1 -3 -0.09 -0.03
 -3 17 -1 -0.09 0.00
 -3 17 2 -0.16 0.00
 -17 -2 -3 -0.16 0.00
 -17 2 3 -0.15 0.01
 -17 2 -3 -0.16 0.01
 -17 -2 3 -0.16 0.02
 -3 17 -2 -0.16 0.00
 -3 17 4 0.72 -0.04
 -17 -4 -3 0.71 0.01
 -17 4 3 0.72 -0.01
 -17 4 -3 0.72 -0.04
 -3 17 -4 0.71 -0.01
 -17 5 3 -1.31 -0.03
 -3 17 5 -1.31 -0.03
 -17 -5 -3 -1.31 0.03
 -5 3 17 -1.30 -0.05
 3 17 5 -1.31 -0.05
 -5 3 -17 -1.31 0.03
 -17 5 -3 -1.31 -0.04
 -6 3 17 -1.26 -0.08
 -17 -6 -3 -1.25 0.02
 -3 17 6 -1.25 -0.03
 -17 6 3 -1.25 -0.01
 -6 -3 17 -1.25 0.00
 -6 3 -17 -1.25 0.07
 -17 6 -3 -1.25 -0.08
 3 17 6 -1.25 -0.03
 -3 17 7 -0.17 -0.02
 -7 3 17 -0.17 0.00
 -17 7 3 -0.17 -0.01
 -7 -3 17 -0.17 0.01
 -7 3 -17 -0.17 0.01
 -17 7 -3 -0.17 0.00
 3 17 7 -0.17 0.01
 -3 17 8 -0.63 0.08
 -8 3 17 -0.63 0.02
 -17 8 3 -0.63 0.03
 -8 3 -17 -0.62 -0.02
 -17 8 -3 -0.63 0.07
 3 17 8 -0.63 0.01
 -17 9 3 1.83 0.06
 -3 17 9 1.82 0.12
 -9 3 17 1.82 0.16
 -9 3 -17 1.84 -0.06
 -17 9 -3 1.82 0.14
 3 17 9 1.83 0.13
 -10 3 17 -0.26 0.06
 -17 10 3 -0.25 0.00
 -3 17 10 -0.26 0.05
 -10 3 -17 -0.26 -0.03
 3 17 10 -0.26 0.02
 -17 10 -3 -0.26 0.06
 -11 3 17 0.54 0.01
 -3 17 11 0.54 -0.01
 -17 11 3 0.54 0.00
 -11 3 -17 0.54 0.02
 -17 11 -3 0.54 0.01
 3 17 11 0.54 0.02
 -12 3 17 -1.50 -0.01
 -12 -3 -17 -1.50 -0.01
 -3 17 12 -1.50 -0.01
 -17 12 3 -1.50 0.00
 3 17 12 -1.50 -0.03
 -17 12 -3 -1.50 -0.01
 -12 3 -17 -1.50 -0.02
 -17 13 3 -1.19 -0.02
 -3 17 13 -1.18 -0.04
 -13 3 17 -1.18 -0.04
 -13 -3 -17 -1.18 -0.02
 -13 3 -17 -1.19 0.02
 -17 13 -3 -1.18 -0.04
 3 17 13 -1.18 -0.01
 -17 14 3 0.35 -0.01
 -3 17 14 0.35 -0.04
 -14 3 17 0.35 0.00
 -14 -3 -17 0.35 0.00
 3 17 14 0.35 -0.03
 -14 3 -17 0.34 0.00
 -17 14 -3 0.35 -0.03
 -17 15 3 0.73 -0.02
 -15 3 17 0.73 0.00
 -15 -3 -17 0.73 0.01
 -3 17 15 0.73 0.00
 3 17 15 0.73 -0.01
 -17 15 -3 0.73 0.01
 -15 3 -17 0.73 -0.02
 -16 -3 -17 1.17 0.01
 -17 16 3 1.17 0.00
 -3 17 16 1.17 0.01
 -16 3 -17 1.17 0.00
 -17 16 -3 1.17 0.01
 3 17 16 1.17 -0.01
 -17 0 4 -0.30 0.00
 -4 17 0 -0.29 0.00
 -17 0 -4 -0.30 0.00
 -17 -1 -4 1.20 0.01
 -4 17 1 1.19 0.02
 -17 1 4 1.20 0.01
 -17 -1 4 1.20 0.01
 -17 1 -4 1.20 -0.01
 -4 17 -1 1.19 0.03
 -17 2 4 -0.93 0.00
 -4 17 2 -0.92 -0.02
 -17 -2 -4 -0.93 0.02
 -17 2 -4 -0.93 -0.01
 -4 17 -2 -0.92 0.01
 -17 -2 4 -0.93 -0.01
 -17 3 4 0.71 -0.01
 -4 17 3 0.71 0.00
 -17 -3 -4 0.71 0.01
 -17 3 -4 0.72 0.01
 -4 17 -3 0.71 0.00
 -5 4 17 -0.85 0.01
 -4 17 5 -0.86 0.01
 -17 5 4 -0.86 0.00
 -17 -5 -4 -0.86 0.00
 -4 17 -5 -0.86 0.03
 -5 4 -17 -0.85 -0.02
 -17 5 -4 -0.86 0.02
 -4 17 6 -1.48 0.02
 -17 6 4 -1.48 0.00
 -6 4 17 -1.48 -0.01
 -17 -6 -4 -1.48 -0.01
 -6 4 -17 -1.48 0.02
 4 17 6 -1.48 -0.01
 -17 6 -4 -1.48 0.01
 -6 -4 17 -1.49 0.01
 -17 7 4 0.98 -0.01
 -4 17 7 0.97 -0.01
 -7 4 17 0.98 0.10
 4 17 7 0.98 0.09
 -17 7 -4 0.97 0.06
 -17 8 4 -0.85 0.00
 -8 4 17 -0.85 0.00
 -4 17 8 -0.85 0.01
 4 17 8 -0.86 0.00
 -8 4 -17 -0.85 -0.01
 -17 8 -4 -0.85 0.01
 -9 4 17 1.30 -0.04
 -17 9 4 1.29 -0.01
 -4 17 9 1.29 -0.03
 -17 9 -4 1.30 -0.04
 -9 4 -17 1.29 0.02
 4 17 9 1.30 -0.03
 -10 4 17 1.16 -0.01
 -4 17 10 1.17 -0.02
 -17 10 4 1.16 -0.02
 -17 10 -4 1.16 -0.02
 4 17 10 1.16 -0.01
 -10 4 -17 1.16 0.02
 -11 4 17 -0.99 0.00
 -4 17 11 -0.99 0.02
 -17 11 4 -0.99 0.02
 -17 11 -4 -0.99 0.00
 4 17 11 -0.99 0.00
 -11 4 -17 -0.98 0.02
 -4 17 12 -0.07 0.01
 -12 4 17 -0.07 -0.01
 -17 12 4 -0.07 0.00
 -12 4 -17 -0.08 -0.01
 4 17 12 -0.07 -0.02
 -17 12 -4 -0.07 0.00
 -4 17 13 -0.93 0.02
 -17 13 4 -0.93 0.01
 -13 4 17 -0.93 0.02
 -13 4 -17 -0.93 0.00
 -17 13 -4 -0.93 0.01
 4 17 13 -0.93 0.03
 -17 14 4 1.27 0.02
 -4 17 14 1.27 0.01
 -14 4 17 1.27 0.00
 -14 -4 -17 1.27 0.00
 -17 14 -4 1.27 0.02
 -14 4 -17 1.27 0.00
 4 17 14 1.27 0.01
 -15 4 17 -0.28 0.01
 -15 -4 -17 -0.28 -0.02
 -4 17 15 -0.28 -0.01
 -17 15 4 -0.28 -0.02
 4 17 15 -0.28 0.03
 -17 15 -4 -0.28 -0.01
 -15 4 -17 -0.28 -0.01
 -16 -4 -17 1.76 -0.01
 -17 16 -4 1.76 0.01
 -16 4 -17 1.76 0.00
 -5 17 0 -1.67 -0.01
 -17 0 5 -1.67 0.01
 -17 0 -5 -1.67 0.00
 -17 -1 -5 1.54 -0.01
 -17 1 5 1.54 0.04
 -5 17 1 1.54 0.03
 -17 -1 5 1.54 0.06
 -17 1 -5 1.54 0.00
 -5 17 -1 1.54 0.02
 -17 -2 -5 -0.95 -0.01
 -5 17 2 -0.95 -0.03
 -17 2 5 -0.95 -0.02
 -5 17 -2 -0.95 -0.02
 -17 -2 5 -0.95 0.00
 -17 2 -5 -0.95 -0.02
 -17 3 5 1.31 0.03
 -5 17 3 1.30 0.05
 -17 -3 -5 1.31 -0.03
 -5 17 -3 1.31 0.00
 -17 3 -5 1.31 0.04
 -17 -4 -5 -0.86 0.00
 -4 5 17 -0.86 0.02
 -5 17 4 -0.85 0.01
 -17 4 5 -0.86 0.00
 -5 17 -4 -0.86 -0.01
 -17 4 -5 -0.86 0.01
 -4 5 -17 -0.85 -0.02
 -6 5 17 -1.95 -0.04
 -17 6 5 -1.95 -0.01
 -5 17 6 -1.95 -0.02
 -17 -6 -5 -1.95 0.01
 -17 6 -5 -1.95 -0.02
 -5 17 -6 -1.95 -0.03
 -6 5 -17 -1.95 0.02
 -17 7 5 1.41 0.00
 -5 17 7 1.41 0.00
 -7 5 17 1.41 0.01
 -17 -7 -5 1.41 0.00
 -17 7 -5 1.41 0.00
 5 17 7 1.41 0.00
 -5 17 -7 1.41 -0.01
 -7 5 -17 1.41 0.00
 -5 17 8 0.16 -0.02
 -17 8 5 0.16 0.00
 -8 5 17 0.16 -0.02
 -8 5 -17 0.17 0.03
 5 17 8 0.16 -0.01
 -17 8 -5 0.17 -0.03
 -5 17 9 1.80 -0.01
 -17 9 5 1.80 -0.01
 -9 5 17 1.79 -0.04
 -17 9 -5 1.80 -0.03
 -9 5 -17 1.79 0.01
 5 17 9 1.80 -0.04
 -17 10 5 1.43 0.01
 -5 17 10 1.43 -0.03
 -10 5 17 1.43 -0.01
 5 17 10 1.43 0.00
 -10 5 -17 1.42 0.03
 -17 10 -5 1.43 -0.02
 -17 11 5 -1.04 0.02
 -11 5 17 -1.04 0.00
 -5 17 11 -1.04 0.02
 -11 5 -17 -1.04 0.01
 -17 11 -5 -1.04 0.01
 5 17 11 -1.04 0.00
 -17 12 5 -0.55 0.00
 -12 5 17 -0.55 -0.02
 -5 17 12 -0.55 -0.03
 -17 12 -5 -0.55 -0.03
 5 17 12 -0.55 -0.02
 -12 5 -17 -0.56 0.01
 -5 17 13 -0.63 -0.02
 -13 5 17 -0.63 -0.03
 -17 13 5 -0.64 0.00
 5 17 13 -0.64 -0.02
 -17 13 -5 -0.64 -0.02
 -13 5 -17 -0.64 0.02
 -17 14 5 -0.93 -0.01
 -5 17 14 -0.93 0.00
 -14 5 17 -0.93 -0.01
 -14 5 -17 -0.93 -0.01
 5 17 14 -0.93 -0.01
 -17 14 -5 -0.93 0.02
 -15 5 17 0.22 0.00
 -17 15 5 0.22 -0.01
 -5 17 15 0.22 0.00
 -15 5 -17 0.22 -0.01
 -17 15 -5 0.22 -0.01
 5 17 15 0.22 -0.02
 -17 0 6 1.85 0.02
 -17 0 -6 1.85 0.00
 -6 17 0 1.86 0.03
 -17 -1 -6 -0.72 -0.01
 -17 1 6 -0.72 -0.01
 -6 17 1 -0.72 -0.01
 -17 -1 6 -0.72 -0.03
 -6 17 -1 -0.72 -0.01
 -17 1 -6 -0.72 -0.01
 -6 17 2 0.71 -0.03
 -17 -2 -6 0.71 0.00
 -17 2 6 0.71 -0.03
 -17 2 -6 0.71 0.00
 -6 17 -2 0.71 -0.02
 -6 17 3 -1.25 -0.08
 -17 -3 -6 -1.25 0.02
 -17 3 6 -1.25 -0.01
 -3 6 17 -1.25 -0.03
 -17 3 -6 -1.25 -0.02
 -6 17 -3 -1.25 0.00
 -4 6 17 1.48 -0.02
 -6 17 4 1.48 0.01
 -17 4 6 1.48 0.00
 -17 -4 -6 1.48 0.01
 -6 17 -4 1.49 -0.01
 -17 4 -6 1.48 0.01
 -4 6 -17 1.49 0.02
 -5 6 17 -1.95 -0.02
 -17 5 6 -1.95 -0.01
 -6 17 5 -1.95 -0.04
 -17 -5 -6 -1.95 0.01
 -5 6 -17 -1.95 0.01
 -6 17 -5 -1.96 0.02
 -17 5 -6 -1.95 -0.04
 -7 6 17 -1.51 0.02
 -17 -7 -6 -1.51 -0.01
 -17 7 6 -1.51 0.01
 -6 17 7 -1.51 0.02
 -17 7 -6 -1.51 0.04
 -6 17 -7 -1.51 0.01
 -7 6 -17 -1.51 0.00
 -17 8 6 1.18 0.00
 -8 6 17 1.18 0.03
 -6 17 8 1.18 0.02
 -17 8 -6 1.18 0.04
 -6 17 -8 1.18 0.04
 -8 6 -17 1.18 -0.01
 -17 9 6 -0.36 -0.02
 -6 17 9 -0.36 -0.03
 -9 6 17 -0.36 -0.02
 6 17 9 -0.36 -0.01
 -17 9 -6 -0.36 -0.02
 -9 6 -17 -0.36 -0.01
 -17 10 6 1.25 0.01
 -6 17 10 1.25 0.03
 -10 6 17 1.25 0.03
 -17 10 -6 1.25 0.04
 -10 6 -17 1.25 -0.02
 6 17 10 1.25 0.03
 -11 6 17 -1.42 0.00
 -6 17 11 -1.42 0.00
 -17 11 6 -1.42 0.02
 -17 11 -6 -1.42 0.01
 -11 6 -17 -1.42 0.00
 6 17 11 -1.42 0.02
 -12 6 17 -0.03 0.03
 -17 12 6 -0.03 0.00
 -6 17 12 -0.03 0.04
 6 17 12 -0.03 0.01
 -17 12 -6 -0.03 0.01
 -12 6 -17 -0.03 -0.02
 -17 13 6 0.07 -0.01
 -6 17 13 0.07 -0.02
 -13 6 17 0.07 -0.01
 -17 13 -6 0.07 0.00
 -13 6 -17 0.07 0.01
 6 17 13 0.07 0.00
 -14 6 17 -0.40 0.00
 -17 14 6 -0.40 -0.01
 -6 17 14 -0.40 0.01
 -17 14 -6 -0.40 0.01
 6 17 14 -0.40 0.01
 -14 6 -17 -0.40 0.00
 -6 17 15 1.85 -0.02
 -17 15 6 1.85 0.00
 -15 6 17 1.85 -0.01
 6 17 15 1.85 0.01
 -17 15 -6 1.85 0.00
 -15 6 -17 1.85 0.00
 -17 0 -7 1.84 -0.01
 -7 17 0 1.84 0.00
 -17 0 7 1.85 0.01
 -7 17 1 0.45 0.01
 -17 -1 -7 0.46 0.00
 -17 1 7 0.46 -0.01
 -17 1 -7 0.45 0.04
 -17 -1 7 0.45 0.01
 -7 17 -1 0.45 -0.03
 -17 2 7 -0.49 -0.01
 -17 -2 -7 -0.49 0.05
 -7 17 2 -0.49 -0.03
 -17 2 -7 -0.49 -0.04
 -7 17 -2 -0.50 0.02
 -17 -3 -7 0.17 -0.01
 -7 17 3 0.17 0.00
 -3 7 17 0.17 0.02
 -17 3 7 0.17 0.01
 -17 3 -7 0.17 0.01
 -7 17 -3 0.17 -0.01
 -3 7 -17 0.17 -0.01
 -17 -4 -7 0.98 -0.01
 -17 4 7 0.98 -0.01
 -4 7 17 0.97 0.00
 -7 17 4 0.98 0.10
 -4 7 -17 0.98 0.01
 -17 4 -7 0.98 0.04
 -7 17 -4 0.98 0.01
 -5 7 17 -1.41 0.00
 -7 17 5 -1.41 -0.01
 -17 -5 -7 -1.41 0.00
 -17 5 7 -1.41 0.00
 -5 7 -17 -1.41 -0.02
 -17 5 -7 -1.41 0.00
 -7 17 -5 -1.41 0.02
 -17 -6 -7 -1.51 -0.01
 -6 7 17 -1.51 0.02
 -7 17 6 -1.51 0.02
 -17 6 7 -1.51 0.00
 -6 7 -17 -1.50 0.00
 -17 6 -7 -1.51 -0.01
 -7 17 -6 -1.51 0.01
 -8 7 17 1.05 -0.02
 -7 17 8 1.05 -0.02
 -17 8 7 1.05 0.00
 -17 -8 -7 1.05 0.04
 -17 8 -7 1.05 -0.05
 -8 7 -17 1.05 0.00
 -7 17 -8 1.05 0.01
 -17 9 7 0.56 0.00
 -9 7 17 0.56 -0.01
 -7 17 9 0.56 -0.01
 -7 17 -9 0.56 -0.03
 -9 7 -17 0.56 0.00
 -17 9 -7 0.56 -0.01
 -7 17 10 1.18 -0.01
 -17 10 7 1.18 0.00
 -10 7 17 1.19 -0.01
 -17 10 -7 1.18 -0.01
 -7 17 -10 1.18 0.00
 7 17 10 1.18 -0.02
 -10 7 -17 1.18 -0.01
 -11 7 17 -0.59 0.00
 -7 17 11 -0.59 0.00
 -17 11 7 -0.59 0.03
 -17 11 -7 -0.59 -0.01
 -11 7 -17 -0.59 0.02
 7 17 11 -0.59 0.01
 -7 17 12 -0.84 0.01
 -12 7 17 -0.83 0.00
 -17 12 7 -0.84 0.00
 -12 7 -17 -0.84 0.01
 -17 12 -7 -0.84 0.00
 7 17 12 -0.84 -0.02
 -7 17 13 0.23 0.02
 -13 7 17 0.23 0.02
 -17 13 7 0.23 0.00
 -13 7 -17 0.23 0.01
 -17 13 -7 0.23 0.00
 7 17 13 0.23 0.00
 -17 14 7 -0.97 0.00
 -7 17 14 -0.97 -0.01
 -14 7 17 -0.97 0.00
 -14 7 -17 -0.97 -0.01
 -17 14 -7 -0.97 0.01
 7 17 14 -0.97 -0.01
 -8 17 0 2.28 0.04
 -17 0 8 2.27 0.02
 -17 0 -8 2.27 -0.02
 -17 -1 -8 -0.08 -0.08
 -8 17 1 -0.08 0.05
 -17 1 8 -0.08 0.04
 -17 1 -8 -0.08 0.06
 -8 17 -1 -0.08 -0.02
 -2 8 17 -1.55 0.08
 -17 2 8 -1.53 0.04
 -17 -2 -8 -1.55 -0.16
 -8 17 2 -1.55 0.13
 -8 17 -2 -1.52 -0.07
 -17 2 -8 -1.54 0.15
 -17 -3 -8 -0.63 -0.09
 -8 17 3 -0.63 0.02
 -3 8 17 -0.63 0.08
 -17 3 8 -0.63 0.03
 -8 17 -3 -0.63 -0.01
 -17 3 -8 -0.63 0.03
 -3 8 -17 -0.62 0.02
 -17 -4 -8 0.85 0.02
 -8 17 4 0.85 0.00
 -4 8 17 0.85 -0.01
 -17 4 8 0.85 0.00
 -8 17 -4 0.86 0.02
 -17 4 -8 0.86 0.00
 -4 8 -17 0.86 0.00
 -8 17 5 0.16 -0.02
 -17 5 8 0.16 0.00
 -17 -5 -8 0.16 0.02
 -5 8 17 0.16 -0.02
 -5 8 -17 0.16 0.01
 -17 5 -8 0.16 -0.04
 -8 17 -5 0.16 0.01
 -17 6 8 -1.18 0.00
 -8 17 6 -1.18 -0.03
 -17 -6 -8 -1.18 0.03
 -6 8 17 -1.18 -0.02
 -17 6 -8 -1.18 -0.03
 -8 17 -6 -1.18 0.01
 -6 8 -17 -1.18 0.00
 -7 8 17 1.05 -0.02
 -17 -7 -8 1.05 0.04
 -17 7 8 1.05 0.00
 -8 17 7 1.05 -0.02
 -17 7 -8 1.05 0.03
 -8 17 -7 1.05 0.00
 -7 8 -17 1.05 0.01
 -8 17 9 0.48 -0.01
 -9 8 17 0.48 0.00
 -17 9 8 0.48 -0.01
 -17 9 -8 0.48 -0.01
 -9 8 -17 0.48 -0.01
 -8 17 -9 0.48 0.01
 -10 8 17 1.00 0.00
 -8 17 10 1.00 0.01
 -17 10 8 1.00 -0.01
 -17 10 -8 1.00 0.01
 -10 8 -17 1.00 0.00
 -8 17 -10 1.00 0.00
 -11 8 17 0.37 -0.02
 -17 11 8 0.37 -0.01
 -8 17 11 0.37 -0.02
 -11 8 -17 0.37 0.00
 -8 17 -11 0.37 -0.01
 -17 11 -8 0.37 0.01
 -8 17 12 -1.36 0.01
 -12 8 17 -1.35 -0.01
 -17 12 8 -1.35 0.01
 -12 8 -17 -1.36 0.01
 8 17 12 -1.36 0.00
 -17 12 -8 -1.36 0.01
 -8 17 13 1.13 0.00
 -13 8 17 1.13 0.00
 -17 13 8 1.13 0.00
 -17 13 -8 1.13 0.00
 8 17 13 1.13 -0.01
 -13 8 -17 1.13 0.01
 -8 17 14 -0.54 0.00
 -17 14 8 -0.54 0.00
 -14 8 17 -0.54 0.00
 -17 14 -8 -0.54 0.03
 8 17 14 -0.54 0.01
 -14 8 -17 -0.54 -0.01
 -17 0 9 2.72 -0.10
 -17 0 -9 2.72 0.03
 -9 17 0 2.72 -0.03
 -1 9 17 -0.24 -0.17
 -9 17 1 -0.24 -0.19
 -17 1 9 -0.25 -0.08
 -17 -1 -9 -0.24 0.18
 -17 1 -9 -0.24 -0.15
 -9 17 -1 -0.25 0.04
 -17 -2 -9 0.43 -0.08
 -17 2 9 0.44 0.02
 -9 17 2 0.43 0.07
 -2 9 17 0.43 0.06
 -17 2 -9 0.44 0.09
 -9 17 -2 0.44 -0.07
 -9 17 3 -1.82 -0.16
 -17 -3 -9 -1.82 0.15
 -3 9 17 -1.82 -0.12
 -17 3 9 -1.83 -0.06
 -9 17 -3 -1.84 0.07
 -17 3 -9 -1.83 -0.17
 -3 9 -17 -1.84 -0.03
 -9 17 4 1.30 -0.04
 -17 4 9 1.29 -0.01
 -17 -4 -9 1.30 0.06
 -4 9 17 1.29 -0.03
 -4 9 -17 1.30 -0.02
 -9 17 -4 1.29 0.03
 -17 4 -9 1.29 -0.03
 -5 9 17 -1.80 0.01
 -9 17 5 -1.79 0.04
 -17 -5 -9 -1.80 -0.04
 -17 5 9 -1.79 0.01
 -5 9 -17 -1.80 0.01
 -17 5 -9 -1.80 0.00
 -9 17 -5 -1.79 -0.01
 -6 9 17 -0.36 -0.03
 -17 -6 -9 -0.36 0.02
 -9 17 6 -0.36 -0.02
 -17 6 9 -0.36 -0.02
 -9 17 -6 -0.36 -0.01
 -6 9 -17 -0.36 -0.01
 -17 6 -9 -0.36 0.01
 -7 9 17 -0.56 0.01
 -17 -7 -9 -0.56 0.01
 -17 7 9 -0.56 0.00
 -9 17 7 -0.56 0.01
 -9 17 -7 -0.56 0.00
 -17 7 -9 -0.56 0.00
 -7 9 -17 -0.56 -0.01
 -8 9 17 0.48 -0.01
 -9 17 8 0.48 0.00
 -17 -8 -9 0.48 -0.01
 -17 8 9 0.48 -0.01
 -8 9 -17 0.48 0.01
 -17 8 -9 0.48 0.02
 -9 17 -8 0.48 -0.02
 -10 9 17 1.29 0.02
 -17 10 9 1.29 0.02
 -9 17 10 1.29 0.00
 -9 17 -10 1.29 0.01
 -10 9 -17 1.29 0.00
 -17 10 -9 1.29 0.01
 -9 17 11 -0.82 0.00
 -11 9 17 -0.81 0.00
 -17 11 9 -0.82 -0.01
 -17 11 -9 -0.82 0.01
 -11 9 -17 -0.82 0.00
 -9 17 -11 -0.82 -0.01
 -9 17 12 -0.93 0.00
 -17 12 9 -0.93 0.01
 -12 9 17 -0.93 0.01
 -17 12 -9 -0.93 -0.02
 -12 9 -17 -0.94 0.00
 -9 17 -12 -0.93 0.01
 -9 17 13 -0.90 0.00
 -13 9 17 -0.90 0.01
 -17 13 9 -0.90 0.01
 -17 13 -9 -0.90 -0.02
 -13 9 -17 -0.90 0.00
 -10 17 0 0.73 0.03
 -17 0 -10 0.73 0.00
 -17 1 10 1.95 0.08
 -10 17 1 1.94 0.10
 -1 10 17 1.94 0.09
 -17 -1 -10 1.94 -0.11
 -10 17 -1 1.95 -0.05
 -17 1 -10 1.94 0.09
 -10 17 2 -1.56 0.17
 -17 2 10 -1.55 0.05
 -17 -2 -10 -1.56 -0.23
 -2 10 17 -1.56 0.16
 -10 17 -2 -1.54 -0.06
 -17 2 -10 -1.55 0.19
 -2 10 -17 -1.54 0.04
 -17 3 10 -0.25 0.00
 -10 17 3 -0.26 0.06
 -17 -3 -10 -0.26 -0.08
 -3 10 17 -0.26 0.05
 -3 10 -17 -0.26 0.01
 -10 17 -3 -0.26 -0.04
 -17 3 -10 -0.26 0.07
 -17 -4 -10 -1.16 -0.01
 -10 17 4 -1.16 0.01
 -4 10 17 -1.17 0.02
 -17 4 10 -1.16 0.02
 -4 10 -17 -1.16 0.01
 -17 4 -10 -1.16 -0.02
 -10 17 -4 -1.16 0.04
 -17 5 10 1.43 0.01
 -5 10 17 1.43 -0.03
 -17 -5 -10 1.43 0.03
 -10 17 5 1.43 -0.01
 -10 17 -5 1.42 0.00
 -17 5 -10 1.43 -0.02
 -5 10 -17 1.43 0.01
 -17 -6 -10 -1.25 0.03
 -17 6 10 -1.25 -0.01
 -10 17 6 -1.25 -0.03
 -6 10 17 -1.25 -0.03
 -17 6 -10 -1.25 -0.04
 -6 10 -17 -1.25 0.01
 -10 17 -6 -1.25 0.03
 -17 -7 -10 1.18 0.00
 -10 17 7 1.19 -0.01
 -17 7 10 1.18 0.00
 -7 10 17 1.18 -0.01
 -7 10 -17 1.19 0.00
 -10 17 -7 1.18 0.01
 -17 7 -10 1.19 0.03
 -10 17 8 -1.00 0.00
 -17 8 10 -1.00 0.01
 -8 10 17 -1.00 -0.01
 -17 -8 -10 -1.00 0.00
 -10 17 -8 -1.00 0.01
 -17 8 -10 -1.00 -0.01
 -8 10 -17 -1.00 0.01
 -10 17 9 1.29 0.02
 -17 9 10 1.29 0.02
 -9 10 17 1.29 0.00
 -17 -9 -10 1.29 -0.01
 -10 17 -9 1.29 0.01
 -17 9 -10 1.29 -0.01
 -9 10 -17 1.29 0.02
 -17 11 10 0.61 0.00
 -10 17 11 0.61 0.01
 -11 10 17 0.61 -0.01
 -17 11 -10 0.61 0.02
 -11 10 -17 0.61 0.01
 -10 17 -11 0.60 -0.01
 -17 12 10 -0.15 0.00
 -12 10 17 -0.14 0.01
 -10 17 12 -0.15 0.00
 -12 10 -17 -0.15 -0.01
 -17 12 -10 -0.15 0.02
 -10 17 -12 -0.14 0.00
 -17 13 10 0.11 0.01
 -13 10 17 0.11 0.01
 -10 17 13 0.11 -0.01
 -13 10 -17 0.11 -0.01
 -10 17 -13 0.10 0.00
 -17 13 -10 0.11 0.01
 -11 17 0 1.77 -0.02
 -17 0 -11 1.76 0.02
 0 11 17 1.76 -0.04
 -17 1 11 0.42 0.00
 -1 11 17 0.42 -0.01
 -11 17 1 0.42 0.01
 -17 -1 -11 0.42 0.00
 -17 1 -11 0.42 0.03
 -11 17 -1 0.42 -0.03
 -11 17 2 -0.57 -0.08
 -17 2 11 -0.58 -0.03
 -17 -2 -11 -0.58 0.09
 -2 11 17 -0.58 -0.06
 -17 2 -11 -0.57 -0.09
 -11 17 -2 -0.58 0.04
 -11 17 3 -0.54 -0.01
 -3 11 17 -0.54 0.01
 -17 -3 -11 -0.54 0.00
 -17 3 11 -0.54 0.00
 -11 17 -3 -0.54 0.01
 -17 3 -11 -0.54 -0.02
 -17 -4 -11 -0.99 -0.01
 -17 4 11 -0.99 0.01
 -11 17 4 -0.99 0.00
 -4 11 17 -0.99 0.02
 -11 17 -4 -0.98 0.00
 -17 4 -11 -0.99 0.00
 -4 11 -17 -0.98 0.00
 -11 17 5 1.04 0.00
 -17 5 11 1.04 -0.02
 -5 11 17 1.04 -0.02
 -17 -5 -11 1.04 0.02
 -17 5 -11 1.04 0.01
 -5 11 -17 1.04 0.00
 -11 17 -5 1.04 -0.01
 -17 -6 -11 -1.42 0.00
 -17 6 11 -1.42 0.02
 -6 11 17 -1.42 0.00
 -11 17 6 -1.42 0.00
 -11 17 -6 -1.42 -0.01
 -6 11 -17 -1.42 0.00
 -17 6 -11 -1.42 -0.01
 -7 11 17 0.59 0.00
 -17 -7 -11 0.59 0.00
 -11 17 7 0.59 0.00
 -17 7 11 0.59 -0.04
 -17 7 -11 0.59 0.04
 -11 17 -7 0.59 -0.01
 -7 11 -17 0.59 -0.02
 -11 17 8 0.37 -0.02
 -17 8 11 0.37 -0.01
 -8 11 17 0.37 -0.02
 -17 -8 -11 0.37 0.02
 -17 8 -11 0.37 -0.02
 -8 11 -17 0.37 -0.02
 -11 17 -8 0.37 -0.01
 -11 17 9 0.81 0.00
 -9 11 17 0.82 0.00
 -17 9 11 0.82 0.01
 -11 17 -9 0.82 0.01
 -17 9 -11 0.82 -0.01
 -9 11 -17 0.82 0.01
 -17 10 11 0.61 0.00
 -11 17 10 0.61 -0.01
 -10 11 17 0.61 0.01
 -11 17 -10 0.61 0.00
 -10 11 -17 0.61 -0.01
 -17 10 -11 0.61 0.02
 -12 11 17 -0.96 0.00
 -11 17 12 -0.96 0.01
 -17 12 11 -0.96 0.01
 -17 12 -11 -0.96 0.01
 -12 11 -17 -0.96 0.00
 -11 17 -12 -0.96 -0.01
 0 12 17 3.09 0.02
 -17 0 -12 3.10 0.00
 -12 17 0 3.09 0.03
 -12 17 1 -0.18 0.01
 -1 12 17 -0.18 0.01
 -17 -1 -12 -0.18 -0.05
 1 12 17 -0.18 0.00
 -12 17 -1 -0.18 -0.05
 -17 1 -12 -0.18 0.03
 -17 -2 -12 -0.27 -0.03
 -2 12 17 -0.28 -0.04
 -12 17 2 -0.28 0.01
 -17 2 12 -0.27 -0.04
 -12 17 -2 -0.28 -0.02
 -17 2 -12 -0.27 0.03
 -17 -3 -12 -1.50 -0.01
 -12 17 3 -1.50 -0.01
 -17 3 12 -1.50 0.00
 -3 12 17 -1.50 -0.01
 -17 3 -12 -1.50 -0.02
 -12 17 -3 -1.50 0.00
 -17 -4 -12 0.07 0.01
 -12 17 4 0.07 0.01
 -4 12 17 0.07 -0.01
 -17 4 12 0.07 0.00
 -12 17 -4 0.07 0.01
 -17 4 -12 0.07 0.00
 -17 5 12 -0.55 -0.01
 -12 17 5 -0.55 -0.03
 -5 12 17 -0.55 -0.03
 -17 -5 -12 -0.55 0.03
 -5 12 -17 -0.55 0.00
 -17 5 -12 -0.55 -0.01
 -12 17 -5 -0.56 0.01
 -17 6 12 0.03 0.00
 -12 17 6 0.03 -0.03
 -17 -6 -12 0.03 0.01
 -6 12 17 0.03 -0.04
 -12 17 -6 0.03 0.02
 -17 6 -12 0.03 -0.04
 -6 12 -17 0.03 0.02
 -17 -7 -12 -0.84 -0.01
 -7 12 17 -0.84 0.01
 -17 7 12 -0.84 0.00
 -12 17 7 -0.83 0.00
 -7 12 -17 -0.84 0.00
 -17 7 -12 -0.84 0.01
 -12 17 -7 -0.84 0.00
 -12 17 8 1.35 0.01
 -17 8 12 1.35 -0.01
 -17 -8 -12 1.36 -0.01
 -8 12 17 1.36 -0.01
 -17 8 -12 1.36 0.01
 -12 17 -8 1.36 -0.01
 -8 12 -17 1.35 0.03
 -9 12 17 -0.93 0.00
 -12 17 9 -0.93 0.01
 -17 9 12 -0.93 0.01
 -12 17 -9 -0.94 -0.01
 -9 12 -17 -0.93 0.03
 -17 9 -12 -0.93 -0.02
 -12 17 10 0.14 -0.01
 -17 10 12 0.15 0.00
 -10 12 17 0.15 0.00
 -17 10 -12 0.15 -0.01
 -12 17 -10 0.15 0.00
 -10 12 -17 0.14 0.01
 -11 12 17 -0.96 0.01
 -17 11 12 -0.96 0.01
 -12 17 11 -0.96 0.00
 -17 11 -12 -0.96 -0.01
 -11 12 -17 -0.96 -0.01
 -12 17 -11 -0.96 0.00
 0 13 17 0.21 0.06
 -13 17 0 0.22 0.03
 -17 0 -13 0.22 0.01
 -1 13 17 1.01 0.07
 -13 17 1 1.01 0.01
 -17 -1 -13 1.01 0.00
 -17 1 -13 1.01 0.00
 -13 17 -1 1.01 0.01
 1 13 17 1.01 0.06
 -17 -2 -13 -1.79 0.01
 -17 2 13 -1.79 0.00
 -13 17 2 -1.79 -0.02
 -2 13 17 -1.80 -0.01
 -13 17 -2 -1.79 0.01
 -17 2 -13 -1.79 0.00
 2 13 17 -1.80 0.00
 -17 3 13 1.19 0.02
 -3 13 17 1.18 0.03
 -13 17 3 1.18 0.04
 -17 -3 -13 1.18 -0.03
 -17 3 -13 1.19 0.05
 -13 17 -3 1.19 -0.01
 -17 -4 -13 -0.94 0.00
 -13 17 4 -0.93 0.02
 -17 4 13 -0.93 0.01
 -4 13 17 -0.93 0.02
 -13 17 -4 -0.94 0.00
 -17 4 -13 -0.93 0.00
 -17 5 13 0.64 0.00
 -17 -5 -13 0.63 -0.02
 -13 17 5 0.63 0.02
 -5 13 17 0.63 0.02
 -13 17 -5 0.64 -0.02
 -17 -6 -13 0.07 -0.01
 -13 17 6 0.07 -0.01
 -17 6 13 0.07 0.00
 -6 13 17 0.07 -0.02
 -13 17 -6 0.07 0.00
 -17 6 -13 0.07 -0.03
 -7 13 17 -0.22 -0.02
 -17 7 13 -0.22 0.00
 -17 -7 -13 -0.23 0.02
 -13 17 7 -0.23 -0.02
 -17 7 -13 -0.23 -0.01
 -13 17 -7 -0.23 -0.01
 -7 13 -17 -0.22 -0.02
 -17 8 13 1.13 0.00
 -8 13 17 1.13 0.00
 -8 13 -17 1.13 0.00
 -17 8 -13 1.13 0.00
 -13 17 -8 1.13 0.01
 -13 17 9 0.90 -0.01
 -9 13 17 0.90 0.00
 -17 9 13 0.90 -0.01
 -9 13 -17 0.90 -0.01
 -17 9 -13 0.90 0.01
 -13 17 -9 0.90 0.02
 -13 17 10 0.11 0.01
 -10 13 17 0.11 -0.01
 -17 10 13 0.11 0.01
 -10 13 -17 0.11 -0.01
 -13 17 -10 0.11 0.01
 -17 10 -13 0.11 0.00
 -17 0 -14 0.32 -0.02
 0 14 17 0.32 0.02
 -14 17 0 0.32 -0.01
 -14 17 1 1.26 -0.01
 -17 -1 -14 1.26 0.01
 -1 14 17 1.26 -0.04
 -17 1 -14 1.26 -0.01
 1 14 17 1.26 -0.05
 -14 17 -1 1.26 0.00
 -2 14 17 -0.19 -0.02
 -14 17 2 -0.19 -0.01
 -17 -2 -14 -0.18 -0.02
 -17 2 -14 -0.19 -0.05
 2 14 17 -0.19 0.00
 -14 17 -2 -0.19 -0.02
 -17 -3 -14 0.35 0.02
 -14 17 3 0.35 -0.01
 -3 14 17 0.35 -0.03
 -17 3 14 0.35 -0.01
 -17 3 -14 0.35 0.00
 3 14 17 0.35 -0.03
 -14 17 -3 0.35 -0.01
 -4 14 17 -1.27 -0.01
 -14 17 4 -1.27 0.00
 -17 4 14 -1.27 -0.02
 -17 -4 -14 -1.27 0.01
 -14 17 -4 -1.27 0.01
 4 14 17 -1.27 -0.01
 -17 4 -14 -1.27 0.01
 -14 17 5 -0.93 -0.01
 -5 14 17 -0.93 0.00
 -17 -5 -14 -0.93 -0.02
 -17 5 14 -0.93 -0.01
 -17 5 -14 -0.93 0.00
 -14 17 -5 -0.93 0.00
 -17 -6 -14 0.40 -0.02
 -17 6 14 0.40 0.01
 -6 14 17 0.40 -0.01
 -14 17 6 0.40 0.00
 -17 6 -14 0.40 0.02
 -14 17 -6 0.40 -0.01
 -17 7 14 -0.97 0.00
 -7 14 17 -0.97 -0.01
 -17 -7 -14 -0.97 -0.01
 -14 17 7 -0.97 0.00
 -14 17 -7 -0.97 -0.02
 -17 7 -14 -0.97 -0.01
 -17 8 14 0.54 0.00
 -14 17 8 0.54 0.00
 -8 14 17 0.54 0.00
 -17 8 -14 0.54 0.00
 -14 17 -8 0.54 0.02
 0 15 17 -0.23 0.02
 -15 17 0 -0.23 0.00
 -17 0 -15 -0.23 0.01
 -17 -1 -15 -1.62 0.00
 -15 17 1 -1.62 0.00
 -1 15 17 -1.62 0.02
 1 15 17 -1.62 0.00
 -17 1 -15 -1.62 0.00
 -15 17 -1 -1.62 0.03
 -2 15 17 1.08 0.01
 -15 17 2 1.09 -0.01
 -17 -2 -15 1.08 0.01
 2 15 17 1.08 0.03
 -15 17 -2 1.08 0.01
 -17 2 -15 1.09 0.00
 -17 3 15 -0.73 0.02
 -17 -3 -15 -0.73 0.03
 -15 17 3 -0.73 0.00
 -3 15 17 -0.73 0.00
 3 15 17 -0.73 0.01
 -17 3 -15 -0.73 0.00
 -15 17 -3 -0.73 0.02
 -17 -4 -15 -0.28 0.02
 -17 4 15 -0.28 -0.02
 -15 17 4 -0.28 0.01
 -4 15 17 -0.28 -0.01
 -17 4 -15 -0.28 0.02
 -15 17 -4 -0.28 0.00
 4 15 17 -0.28 0.03
 -17 5 15 -0.22 0.01
 -5 15 17 -0.22 0.00
 -17 -5 -15 -0.22 0.01
 -15 17 5 -0.22 0.01
 5 15 17 -0.22 0.02
 -17 5 -15 -0.22 -0.03
 -15 17 -5 -0.22 0.02
 -17 6 15 1.85 0.00
 -15 17 6 1.85 -0.01
 -6 15 17 1.85 -0.02
 -17 -6 -15 1.85 0.00
 -15 17 -6 1.85 -0.03
 -17 6 -15 1.85 -0.01
 -16 17 0 0.83 0.00
 -17 0 -16 0.84 0.01
 0 16 17 0.83 -0.03
 -17 -1 -16 -0.11 -0.04
 -1 16 17 -0.11 0.02
 -16 17 1 -0.11 0.01
 -16 17 -1 -0.11 -0.02
 1 16 17 -0.11 0.01
 -17 1 -16 -0.11 -0.01
 -17 -2 -16 1.37 0.00
 -16 17 2 1.37 0.00
 -2 16 17 1.37 -0.02
 2 16 17 1.37 0.00
 -16 17 -2 1.37 -0.02
 -17 2 -16 1.37 -0.01
 -17 -3 -16 1.17 -0.02
 -3 16 17 1.17 0.01
 -16 17 3 1.17 0.01
 3 16 17 1.17 -0.01
 -16 17 -3 1.17 0.00
 -17 3 -16 1.17 0.00
 -17 -4 -16 -1.76 -0.01
 -16 17 -4 -1.76 -0.02
 -17 4 -16 -1.76 0.02
 -18 0 0 14.25 -0.01
 -18 1 0 16.21 0.02
 -18 -1 0 16.21 0.02
 0 18 2 10.11 -0.02
 -18 2 0 10.10 0.02
 -18 -2 0 10.11 0.01
 0 18 3 8.30 0.00
 -18 3 0 8.30 0.01
 -18 -3 0 8.30 0.00
 -18 -4 0 1.87 0.00
 0 18 4 1.87 0.00
 -18 4 0 1.86 0.01
 -18 5 0 3.72 0.03
 0 18 5 3.72 0.05
 -18 6 0 0.67 -0.03
 -6 0 18 0.68 -0.02
 0 18 6 0.68 -0.05
 -18 7 0 3.93 -0.01
 0 18 7 3.93 0.02
 0 18 8 -0.87 -0.04
 -8 0 18 -0.87 0.00
 -18 8 0 -0.87 -0.03
 0 18 9 4.58 0.02
 -18 9 0 4.58 0.02
 -9 0 -18 4.58 0.01
 -9 0 18 4.58 0.01
 -18 10 0 -0.64 -0.04
 -10 0 -18 -0.64 -0.01
 -10 0 18 -0.64 -0.02
 0 18 10 -0.63 -0.04
 -11 0 18 3.11 0.02
 -18 11 0 3.11 0.00
 0 18 11 3.11 0.01
 -11 0 -18 3.11 0.00
 -12 0 -18 1.09 -0.03
 0 18 12 1.09 -0.07
 -18 12 0 1.09 -0.05
 -13 0 -18 2.92 -0.01
 -18 13 0 2.92 0.03
 0 18 13 2.91 0.04
 0 18 14 -0.90 -0.01
 -18 14 0 -0.90 -0.01
 -14 0 -18 -0.90 0.00
 -15 0 -18 -0.42 -0.02
 -18 15 0 -0.43 -0.01
 0 18 15 -0.43 -0.04
 -18 0 -1 -16.21 -0.02
 -18 0 1 -16.21 -0.02
 -18 1 1 -14.08 -0.04
 -1 18 1 -14.08 0.00
 -18 -1 -1 -14.09 -0.01
 -18 -1 1 -14.09 0.01
 -18 1 -1 -14.08 0.01
 -18 -2 -1 -9.47 0.00
 -18 2 1 -9.46 -0.01
 -1 18 2 -9.47 0.00
 -18 2 -1 -9.47 -0.02
 -18 -2 1 -9.47 -0.02
 -18 -3 -1 -7.26 -0.02
 -18 3 1 -7.26 -0.02
 -1 18 3 -7.26 0.00
 -18 3 -1 -7.26 -0.01
 -18 -3 1 -7.26 -0.01
 -1 18 4 -3.36 0.03
 -18 4 1 -3.35 0.01
 -18 -4 -1 -3.35 -0.01
 1 18 4 -3.36 0.00
 -18 4 -1 -3.35 0.00
 -5 1 18 -0.56 0.03
 -18 5 1 -0.56 0.02
 -1 18 5 -0.56 0.03
 1 18 5 -0.56 0.04
 -18 5 -1 -0.56 0.00
 -1 18 6 0.24 0.01
 -6 1 18 0.25 0.02
 -18 6 1 0.25 0.01
 -6 -1 18 0.25 -0.01
 -18 6 -1 0.25 0.01
 1 18 6 0.24 -0.01
 -18 7 1 -1.95 -0.04
 -1 18 7 -1.95 -0.02
 -7 1 18 -1.95 0.01
 -7 -1 18 -1.95 -0.02
 -18 7 -1 -1.94 -0.02
 1 18 7 -1.95 -0.03
 -1 18 8 -2.43 -0.03
 -8 1 18 -2.43 0.03
 -18 8 1 -2.42 0.02
 -8 1 -18 -2.43 0.00
 -18 8 -1 -2.42 -0.02
 -8 -1 18 -2.42 0.00
 1 18 8 -2.42 0.03
 -1 18 9 -3.16 0.02
 -9 1 18 -3.16 -0.02
 -18 9 1 -3.16 0.03
 1 18 9 -3.16 0.00
 -9 1 -18 -3.16 0.01
 -9 -1 18 -3.16 0.03
 -18 9 -1 -3.16 0.03
 -18 10 1 -2.28 0.02
 -10 -1 -18 -2.28 -0.02
 -1 18 10 -2.28 0.02
 -10 1 18 -2.28 0.00
 -10 1 -18 -2.28 0.00
 1 18 10 -2.28 0.01
 -18 10 -1 -2.27 0.02
 -1 18 11 -2.32 -0.01
 -11 -1 -18 -2.32 -0.03
 -11 1 18 -2.32 0.00
 -18 11 1 -2.32 -0.02
 1 18 11 -2.32 -0.04
 -11 1 -18 -2.32 -0.04
 -18 11 -1 -2.32 0.01
 -18 12 1 0.33 0.01
 -1 18 12 0.32 -0.01
 -12 1 18 0.32 0.01
 -12 -1 -18 0.32 0.00
 -12 1 -18 0.32 0.01
 -18 12 -1 0.33 0.00
 1 18 12 0.32 0.00
 -18 13 1 -0.18 0.03
 -13 -1 -18 -0.18 0.03
 -1 18 13 -0.18 0.03
 1 18 13 -0.18 0.03
 -13 1 -18 -0.18 0.00
 -18 13 -1 -0.18 0.04
 -18 14 1 -1.09 0.01
 -1 18 14 -1.10 0.07
 -14 -1 -18 -1.10 0.03
 -18 14 -1 -1.10 0.05
 -14 1 -18 -1.09 0.02
 1 18 14 -1.10 0.06
 -15 -1 -18 -0.53 0.01
 -1 18 15 -0.53 0.02
 -18 15 1 -0.53 0.01
 -18 15 -1 -0.53 0.01
 -15 1 -18 -0.53 0.00
 1 18 15 -0.53 0.03
 -18 0 2 10.10 0.02
 -18 0 -2 10.11 0.01
 -2 18 0 10.11 0.00
 -18 -1 -2 9.47 0.00
 -18 1 2 9.46 0.01
 -2 18 1 9.47 0.00
 -18 -1 2 9.47 0.02
 -18 1 -2 9.47 0.02
 -2 18 2 9.94 0.00
 -18 2 2 9.94 0.01
 -18 -2 -2 9.94 0.01
 -18 2 -2 9.94 0.00
 -18 -2 2 9.94 0.00
 -2 18 3 3.60 0.02
 -18 3 2 3.60 0.02
 -18 -3 -2 3.60 0.01
 -18 3 -2 3.60 0.02
 -18 -3 2 3.60 0.00
 -18 -4 -2 2.00 0.00
 -18 4 2 2.00 -0.02
 -2 18 4 2.01 0.00
 -18 4 -2 2.00 0.00
 -5 2 18 1.67 0.00
 -18 5 2 1.67 0.01
 -18 -5 -2 1.67 0.00
 -2 18 5 1.67 0.01
 -18 5 -2 1.67 0.02
 2 18 5 1.67 0.04
 -2 18 6 3.31 0.01
 -6 2 18 3.31 0.03
 -18 6 2 3.30 0.01
 2 18 6 3.31 0.02
 -6 -2 18 3.31 0.00
 -18 6 -2 3.30 0.05
 -2 18 7 0.30 -0.04
 -7 2 18 0.30 -0.05
 -18 7 2 0.30 -0.05
 -18 7 -2 0.29 -0.05
 -7 -2 18 0.30 -0.04
 2 18 7 0.30 -0.05
 -7 2 -18 0.30 0.00
 -18 8 2 3.38 0.01
 -2 18 8 3.39 -0.02
 -8 2 18 3.39 0.00
 2 18 8 3.39 0.02
 -18 8 -2 3.38 -0.02
 -8 2 -18 3.38 0.02
 -8 -2 18 3.39 0.03
 -2 18 9 -0.17 -0.03
 -18 9 2 -0.17 -0.02
 -9 2 18 -0.16 -0.01
 -18 9 -2 -0.17 -0.03
 2 18 9 -0.16 -0.01
 -9 2 -18 -0.16 0.00
 -18 10 2 1.75 0.02
 -10 2 18 1.75 -0.02
 -2 18 10 1.76 0.02
 -18 10 -2 1.75 0.01
 2 18 10 1.75 -0.01
 -10 2 -18 1.75 0.01
 -18 11 2 0.07 -0.06
 -2 18 11 0.07 -0.06
 -11 2 18 0.07 0.01
 2 18 11 0.07 -0.01
 -18 11 -2 0.07 -0.05
 -11 2 -18 0.07 -0.02
 -2 18 12 1.33 -0.01
 -12 2 18 1.32 0.04
 -18 12 2 1.32 0.02
 -12 -2 -18 1.32 0.02
 -18 12 -2 1.32 -0.02
 -12 2 -18 1.33 0.01
 2 18 12 1.33 0.03
 -13 2 18 0.85 0.01
 -2 18 13 0.85 -0.01
 -18 13 2 0.85 -0.01
 -13 -2 -18 0.85 0.00
 -13 2 -18 0.85 -0.01
 -18 13 -2 0.84 0.00
 2 18 13 0.85 0.00
 -2 18 14 0.05 0.00
 -18 14 2 0.05 -0.01
 -14 -2 -18 0.05 0.01
 -14 2 -18 0.06 -0.02
 -18 14 -2 0.05 0.01
 2 18 14 0.06 0.00
 -15 -2 -18 -0.19 -0.01
 -2 18 15 -0.19 -0.01
 -18 15 2 -0.20 0.01
 -15 2 -18 -0.19 0.02
 -18 15 -2 -0.20 0.00
 2 18 15 -0.20 -0.01
 -18 0 -3 -8.30 0.00
 -3 18 0 -8.30 0.00
 -18 0 3 -8.30 -0.01
 -18 -1 -3 -7.26 -0.02
 -3 18 1 -7.26 0.00
 -18 1 3 -7.26 -0.01
 -18 -1 3 -7.26 -0.01
 -3 18 -1 -7.26 -0.01
 -18 1 -3 -7.26 -0.01
 -3 18 2 -3.60 -0.02
 -18 2 3 -3.60 -0.02
 -18 -2 -3 -3.60 -0.01
 -3 18 -2 -3.60 -0.03
 -18 2 -3 -3.60 0.00
 -18 -2 3 -3.60 -0.02
 -3 18 3 -2.72 0.00
 -18 -3 -3 -2.72 -0.01
 -18 3 3 -2.72 0.02
 -18 3 -3 -2.72 -0.01
 -18 4 3 -1.53 0.03
 -3 18 4 -1.53 -0.01
 -18 -4 -3 -1.53 0.00
 -18 4 -3 -1.53 -0.04
 -3 18 5 -0.04 0.03
 -18 5 3 -0.04 0.01
 -18 -5 -3 -0.04 -0.03
 -5 3 18 -0.04 0.04
 -18 5 -3 -0.04 0.03
 -3 18 6 0.18 -0.01
 -18 6 3 0.18 0.01
 -6 3 18 0.18 0.01
 -18 6 -3 0.18 -0.02
 -6 -3 18 0.18 -0.01
 -6 3 -18 0.17 -0.01
 -3 18 7 -2.56 0.00
 -18 7 3 -2.55 -0.02
 -7 3 18 -2.55 -0.02
 -7 3 -18 -2.55 0.01
 -18 7 -3 -2.55 -0.04
 -7 -3 18 -2.56 0.00
 3 18 7 -2.55 -0.03
 -3 18 8 -2.90 0.00
 -8 3 18 -2.90 -0.01
 -18 8 3 -2.90 -0.01
 -8 3 -18 -2.91 -0.01
 -18 8 -3 -2.90 -0.01
 3 18 8 -2.90 -0.01
 -9 3 18 -2.72 -0.01
 -3 18 9 -2.72 -0.01
 -18 9 3 -2.71 0.00
 3 18 9 -2.72 0.02
 -9 3 -18 -2.72 0.00
 -18 9 -3 -2.72 0.00
 -18 10 3 -1.39 0.02
 -3 18 10 -1.40 0.09
 -10 3 18 -1.39 -0.01
 -18 10 -3 -1.39 0.05
 -10 3 -18 -1.40 -0.08
 3 18 10 -1.39 -0.07
 -3 18 11 0.66 -0.01
 -18 11 3 0.67 0.00
 -11 3 18 0.66 -0.01
 -18 11 -3 0.67 -0.01
 3 18 11 0.66 0.00
 -11 3 -18 0.66 0.01
 -18 12 3 -0.06 0.01
 -3 18 12 -0.07 0.02
 -12 3 18 -0.07 0.00
 3 18 12 -0.07 -0.03
 -18 12 -3 -0.06 0.01
 -12 3 -18 -0.07 -0.01
 -18 13 3 1.12 0.00
 -13 3 18 1.11 0.02
 -13 -3 -18 1.11 0.03
 -3 18 13 1.11 0.02
 3 18 13 1.11 0.02
 -18 13 -3 1.12 0.05
 -13 3 -18 1.11 -0.03
 -18 14 3 -0.13 0.01
 -14 -3 -18 -0.13 0.02
 -3 18 14 -0.14 0.00
 -14 3 18 -0.14 0.01
 -14 3 -18 -0.13 0.01
 3 18 14 -0.13 0.00
 -18 14 -3 -0.13 0.02
 -18 15 3 -1.46 0.01
 -15 -3 -18 -1.46 -0.01
 -3 18 15 -1.46 0.03
 -18 15 -3 -1.46 0.01
 -15 3 -18 -1.46 0.02
 3 18 15 -1.46 0.01
 -18 0 4 1.86 0.01
 -18 0 -4 1.87 0.00
 -4 18 0 1.87 0.00
 -18 -1 -4 3.35 0.01
 -18 1 4 3.35 -0.01
 -4 18 1 3.35 0.01
 -4 18 -1 3.35 0.00
 -18 1 -4 3.36 0.02
 -18 -1 4 3.35 0.00
 -18 2 4 2.00 -0.02
 -4 18 2 2.01 0.00
 -18 -2 -4 2.00 0.00
 -18 2 -4 2.00 0.03
 -18 -2 4 2.00 0.00
 -4 18 -2 2.00 -0.01
 -18 3 4 1.53 -0.03
 -18 -3 -4 1.53 0.00
 -4 18 3 1.53 0.03
 -4 18 -3 1.53 0.01
 -18 3 -4 1.53 0.01
 -18 -4 -4 0.03 0.01
 -4 18 4 0.04 0.02
 -18 4 4 0.03 0.02
 -4 4 18 0.04 0.02
 -18 4 -4 0.03 0.01
 -18 5 4 1.88 -0.02
 -5 4 18 1.88 0.04
 -18 -5 -4 1.88 -0.02
 -4 18 5 1.88 0.00
 -18 5 -4 1.88 0.04
 -6 4 18 1.82 -0.01
 -18 -6 -4 1.82 0.02
 -18 6 4 1.81 0.02
 -4 18 6 1.82 -0.02
 -18 6 -4 1.82 0.00
 -6 4 -18 1.81 0.01
 -7 4 18 3.03 0.00
 -4 18 7 3.03 -0.01
 -18 7 4 3.03 0.06
 -7 4 -18 3.03 0.02
 -18 7 -4 3.02 0.01
 -18 8 4 1.19 -0.01
 -8 4 18 1.19 -0.01
 -4 18 8 1.19 -0.03
 -18 8 -4 1.19 -0.02
 -8 4 -18 1.19 0.03
 4 18 8 1.19 -0.01
 -4 18 9 1.39 0.01
 -18 9 4 1.39 0.02
 -9 4 18 1.39 0.04
 4 18 9 1.39 0.06
 -18 9 -4 1.39 0.03
 -9 4 -18 1.39 0.01
 -10 4 18 0.83 0.00
 -4 18 10 0.83 -0.01
 -18 10 4 0.82 -0.01
 4 18 10 0.83 -0.01
 -18 10 -4 0.83 -0.01
 -10 4 -18 0.83 -0.03
 -11 4 18 -0.24 0.01
 -4 18 11 -0.24 -0.02
 -18 11 4 -0.25 -0.01
 -11 4 -18 -0.24 0.01
 4 18 11 -0.24 0.02
 -18 11 -4 -0.25 -0.01
 -4 18 12 1.07 -0.02
 -12 4 18 1.06 -0.01
 -18 12 4 1.06 -0.02
 -12 4 -18 1.07 0.02
 4 18 12 1.07 0.00
 -18 12 -4 1.06 -0.02
 -13 4 18 0.09 0.03
 -4 18 13 0.09 0.01
 -18 13 4 0.09 -0.02
 -18 13 -4 0.09 0.01
 -13 4 -18 0.09 -0.02
 4 18 13 0.09 0.02
 -14 4 18 1.06 -0.01
 -4 18 14 1.06 0.00
 -18 14 4 1.06 0.00
 4 18 14 1.07 -0.02
 -18 14 -4 1.06 -0.01
 -14 4 -18 1.07 0.02
 -5 18 0 -3.72 -0.01
 -18 0 -5 -3.72 0.00
 -18 0 5 -3.72 -0.03
 -18 -1 -5 -0.56 0.00
 -5 18 1 -0.56 0.03
 -18 1 5 -0.56 0.02
 -5 18 -1 -0.56 0.01
 -18 1 -5 -0.56 0.00
 -18 -1 5 -0.56 0.00
 -18 2 5 -1.67 -0.01
 -5 18 2 -1.67 0.00
 -18 -2 -5 -1.67 0.00
 -18 2 -5 -1.68 -0.02
 -5 18 -2 -1.68 -0.02
 -18 3 5 -0.04 0.01
 -5 18 3 -0.04 0.04
 -18 -3 -5 -0.04 -0.03
 -18 3 -5 -0.04 0.02
 -5 18 -3 -0.04 0.00
 -5 18 4 -1.88 -0.04
 -4 5 18 -1.88 0.00
 -18 4 5 -1.88 0.02
 -18 -4 -5 -1.88 0.02
 -18 4 -5 -1.88 -0.04
 -5 18 -4 -1.88 0.01
 -18 5 5 1.60 -0.03
 -5 5 18 1.60 0.01
 -18 -5 -5 1.60 -0.01
 -5 18 5 1.60 0.01
 -5 18 -5 1.60 0.00
 -18 5 -5 1.60 0.00
 -5 5 -18 1.60 0.02
 -5 18 6 -2.20 -0.01
 -18 -6 -5 -2.20 0.02
 -6 5 18 -2.20 0.01
 -18 6 5 -2.20 -0.05
 -18 6 -5 -2.20 -0.02
 -6 5 -18 -2.21 -0.03
 -7 5 18 -1.79 -0.06
 -18 7 5 -1.79 0.01
 -5 18 7 -1.79 -0.02
 -18 7 -5 -1.79 -0.04
 -7 5 -18 -1.79 0.03
 -18 8 5 -3.96 -0.04
 -5 18 8 -3.97 0.02
 -8 5 18 -3.97 0.01
 -18 8 -5 -3.96 -0.02
 -8 5 -18 -3.97 -0.01
 -5 18 9 -1.49 0.04
 -18 9 5 -1.48 0.01
 -9 5 18 -1.49 0.01
 -18 9 -5 -1.49 0.02
 -9 5 -18 -1.49 -0.02
 -18 10 5 -2.15 0.02
 -10 5 18 -2.16 -0.01
 -5 18 10 -2.16 0.00
 -10 5 -18 -2.16 0.00
 5 18 10 -2.16 -0.03
 -18 10 -5 -2.15 -0.01
 -5 18 11 -0.03 0.00
 -18 11 5 -0.03 -0.01
 -11 5 18 -0.03 -0.01
 -18 11 -5 -0.03 -0.01
 5 18 11 -0.04 -0.03
 -11 5 -18 -0.04 -0.02
 -5 18 12 0.68 -0.01
 -18 12 5 0.68 0.01
 -12 5 18 0.67 0.00
 -12 5 -18 0.68 0.00
 -18 12 -5 0.68 0.00
 5 18 12 0.68 0.01
 -5 18 13 -0.08 0.00
 -18 13 5 -0.08 0.02
 -13 5 18 -0.09 0.01
 -13 5 -18 -0.08 -0.02
 -18 13 -5 -0.08 0.01
 5 18 13 -0.08 0.02
 -18 14 5 -0.55 0.01
 -5 18 14 -0.55 -0.01
 -14 5 18 -0.55 0.00
 -14 5 -18 -0.55 0.00
 -18 14 -5 -0.54 0.00
 5 18 14 -0.55 0.01
 -18 0 6 0.67 -0.03
 -6 18 0 0.68 -0.02
 -18 0 -6 0.67 0.01
 -18 -1 -6 -0.25 0.01
 -6 18 1 -0.25 -0.03
 -18 1 6 -0.25 -0.01
 -18 -1 6 -0.25 -0.01
 -18 1 -6 -0.25 -0.01
 -6 18 -1 -0.25 0.01
 -6 18 2 3.31 0.03
 -18 -2 -6 3.31 -0.01
 -18 2 6 3.31 0.01
 -18 2 -6 3.31 0.02
 -18 3 6 -0.18 -0.02
 -6 18 3 -0.18 -0.01
 -3 6 18 -0.18 0.01
 -18 -3 -6 -0.18 0.01
 -18 3 -6 -0.18 0.01
 -6 18 -3 -0.18 0.01
 -18 -4 -6 1.82 0.02
 -6 18 4 1.82 -0.01
 -18 4 6 1.81 0.02
 -4 6 18 1.82 -0.02
 -18 4 -6 1.82 -0.03
 -6 18 -4 1.82 -0.01
 -18 5 6 2.20 0.05
 -6 18 5 2.20 -0.01
 -18 -5 -6 2.20 -0.02
 -5 6 18 2.20 0.00
 -18 5 -6 2.20 -0.01
 -5 6 -18 2.20 0.00
 -6 18 -5 2.20 0.01
 -6 18 6 4.42 0.00
 -18 -6 -6 4.42 0.00
 -6 6 18 4.42 0.00
 -18 6 6 4.41 0.01
 -6 6 -18 4.42 -0.01
 -18 6 -6 4.42 0.02
 -6 18 -6 4.42 -0.01
 -7 6 18 -0.06 -0.04
 -18 -7 -6 -0.06 0.00
 -18 7 6 -0.07 0.02
 -6 18 7 -0.07 -0.04
 -18 7 -6 -0.07 0.00
 -7 6 -18 -0.06 0.02
 -6 18 8 2.70 0.02
 -8 6 18 2.70 0.04
 -18 8 6 2.69 0.02
 -18 8 -6 2.70 0.03
 -8 6 -18 2.70 -0.04
 -18 9 6 0.69 -0.01
 -6 18 9 0.69 -0.01
 -9 6 18 0.69 0.00
 -18 9 -6 0.69 -0.01
 -9 6 -18 0.69 0.01
 -18 10 6 0.30 -0.01
 -10 6 18 0.30 0.02
 -6 18 10 0.30 0.03
 -18 10 -6 0.30 0.02
 -10 6 -18 0.31 -0.02
 -11 6 18 0.33 -0.01
 -6 18 11 0.33 -0.03
 -18 11 6 0.32 -0.05
 6 18 11 0.33 -0.01
 -18 11 -6 0.32 -0.02
 -11 6 -18 0.33 -0.02
 -12 6 18 1.30 0.02
 -6 18 12 1.30 0.03
 -18 12 6 1.30 -0.03
 -12 6 -18 1.31 -0.01
 -18 12 -6 1.30 0.02
 6 18 12 1.30 -0.01
 -13 6 18 0.91 -0.01
 -6 18 13 0.92 0.00
 -18 13 6 0.91 0.00
 -18 13 -6 0.91 -0.01
 6 18 13 0.92 0.00
 -13 6 -18 0.92 0.01
 -6 18 14 -0.18 0.02
 -14 6 18 -0.18 0.01
 -18 14 6 -0.18 -0.02
 6 18 14 -0.18 -0.02
 -18 14 -6 -0.18 -0.05
 -14 6 -18 -0.18 0.02
 -18 0 7 -3.93 0.01
 -18 0 -7 -3.93 -0.02
 -7 18 0 -3.93 -0.01
 -18 1 7 -1.95 -0.04
 -18 -1 -7 -1.95 0.00
 -7 18 1 -1.95 0.01
 -18 1 -7 -1.95 0.01
 -7 18 -1 -1.95 -0.02
 -18 2 7 -0.30 0.05
 -7 18 2 -0.30 0.05
 -18 -2 -7 -0.30 -0.01
 -7 18 -2 -0.30 0.04
 -18 2 -7 -0.30 -0.03
 -3 7 18 -2.56 0.00
 -7 18 3 -2.55 -0.02
 -18 3 7 -2.55 -0.02
 -18 -3 -7 -2.56 0.01
 -18 3 -7 -2.55 0.00
 -7 18 -3 -2.56 0.00
 -18 -4 -7 -3.03 -0.01
 -7 18 4 -3.03 0.00
 -4 7 18 -3.03 0.01
 -18 4 7 -3.03 -0.06
 -7 18 -4 -3.03 0.00
 -18 4 -7 -3.03 0.01
 -4 7 -18 -3.03 -0.01
 -5 7 18 -1.79 -0.02
 -7 18 5 -1.79 -0.06
 -18 -5 -7 -1.79 0.01
 -18 5 7 -1.79 0.01
 -5 7 -18 -1.79 -0.01
 -18 5 -7 -1.79 -0.02
 -7 18 -5 -1.79 0.00
 -7 18 6 0.06 0.04
 -6 7 18 0.07 0.04
 -18 -6 -7 0.06 0.00
 -18 6 7 0.07 -0.02
 -7 18 -6 0.07 0.00
 -6 7 -18 0.06 0.00
 -18 6 -7 0.07 0.01
 -18 7 7 -3.74 -0.02
 -18 -7 -7 -3.75 -0.03
 -7 7 18 -3.74 0.00
 -7 18 7 -3.74 0.00
 -18 7 -7 -3.74 -0.01
 -7 18 -7 -3.74 0.00
 -7 7 -18 -3.74 0.00
 -18 8 7 -0.62 0.04
 -8 7 18 -0.63 0.02
 -7 18 8 -0.63 0.01
 -18 8 -7 -0.62 -0.03
 -7 18 -8 -0.63 0.02
 -8 7 -18 -0.63 -0.02
 -18 9 7 -1.54 0.07
 -9 7 18 -1.54 0.01
 -7 18 9 -1.54 0.03
 -18 9 -7 -1.54 0.03
 -9 7 -18 -1.55 0.05
 -10 7 18 -0.57 0.00
 -7 18 10 -0.57 0.00
 -18 10 7 -0.56 0.02
 -18 10 -7 -0.56 0.00
 -10 7 -18 -0.56 0.01
 -18 11 7 -0.56 0.03
 -7 18 11 -0.56 -0.01
 -11 7 18 -0.56 0.00
 -11 7 -18 -0.56 0.00
 -18 11 -7 -0.56 0.00
 -12 7 18 -0.15 -0.01
 -18 12 7 -0.15 0.01
 -7 18 12 -0.15 -0.01
 -12 7 -18 -0.15 -0.01
 -18 12 -7 -0.15 0.01
 -13 7 18 0.35 -0.02
 -7 18 13 0.35 -0.01
 -18 13 7 0.35 0.03
 -13 7 -18 0.35 0.01
 7 18 13 0.35 0.01
 -18 13 -7 0.36 -0.01
 -18 0 8 -0.87 -0.03
 -8 18 0 -0.87 0.00
 -18 0 -8 -0.87 0.01
 -18 -1 -8 2.43 -0.01
 -18 1 8 2.42 -0.02
 -8 18 1 2.43 -0.02
 -18 1 -8 2.43 0.02
 -8 18 -1 2.42 -0.01
 -2 8 18 3.39 -0.02
 -18 2 8 3.39 0.01
 -8 18 2 3.39 0.00
 -18 -2 -8 3.39 0.06
 -8 18 -2 3.39 0.03
 -18 2 -8 3.39 -0.01
 -3 8 18 2.90 0.00
 -8 18 3 2.90 0.01
 -18 3 8 2.90 0.01
 -18 -3 -8 2.90 0.03
 -8 18 -3 2.90 0.00
 -18 3 -8 2.90 0.01
 -8 18 4 1.19 -0.01
 -18 -4 -8 1.19 0.04
 -4 8 18 1.19 -0.03
 -18 4 8 1.19 -0.01
 -18 4 -8 1.19 0.01
 -4 8 -18 1.18 0.00
 -8 18 -4 1.19 -0.01
 -18 -5 -8 3.97 -0.01
 -18 5 8 3.96 0.04
 -5 8 18 3.97 -0.02
 -8 18 5 3.97 -0.01
 -5 8 -18 3.97 0.03
 -8 18 -5 3.96 -0.02
 -18 5 -8 3.97 -0.01
 -8 18 6 2.70 0.04
 -18 -6 -8 2.70 -0.02
 -6 8 18 2.70 0.02
 -18 6 8 2.69 0.02
 -18 6 -8 2.70 0.04
 -8 18 -6 2.70 0.00
 -6 8 -18 2.70 -0.01
 -8 18 7 0.63 -0.02
 -18 7 8 0.62 -0.04
 -7 8 18 0.63 -0.01
 -18 -7 -8 0.63 0.00
 -7 8 -18 0.63 0.00
 -8 18 -7 0.62 -0.01
 -18 7 -8 0.62 0.00
 -18 8 8 0.17 -0.05
 -8 18 8 0.17 0.00
 -8 8 18 0.17 0.00
 -8 8 -18 0.18 -0.03
 -8 18 -8 0.18 0.00
 -18 8 -8 0.17 0.02
 -8 18 9 0.44 -0.03
 -18 9 8 0.43 -0.04
 -9 8 18 0.43 -0.02
 -9 8 -18 0.43 0.01
 -8 18 -9 0.43 0.00
 -18 9 -8 0.43 0.01
 -10 8 18 -1.11 0.00
 -18 10 8 -1.11 -0.04
 -8 18 10 -1.11 0.00
 -10 8 -18 -1.11 0.00
 -18 10 -8 -1.11 -0.02
 -8 18 11 0.72 -0.01
 -18 11 8 0.72 -0.05
 -11 8 18 0.72 0.01
 -18 11 -8 0.72 0.00
 -11 8 -18 0.72 -0.02
 -18 12 8 -0.41 -0.03
 -12 8 18 -0.41 0.00
 -8 18 12 -0.41 0.01
 -12 8 -18 -0.40 -0.01
 -18 12 -8 -0.41 0.01
 -13 8 18 1.52 -0.01
 -18 13 8 1.52 -0.03
 -8 18 13 1.52 -0.01
 -13 8 -18 1.52 0.00
 -18 13 -8 1.52 -0.01
 -9 18 0 -4.58 -0.01
 -18 0 -9 -4.58 0.01
 -1 9 18 -3.16 0.02
 -18 -1 -9 -3.16 -0.02
 -9 18 1 -3.16 -0.02
 -18 1 9 -3.16 0.03
 -18 1 -9 -3.17 -0.06
 -9 18 -1 -3.16 0.03
 -18 -2 -9 0.16 -0.02
 -2 9 18 0.17 0.03
 -18 2 9 0.17 0.02
 -9 18 2 0.16 0.02
 -9 18 -2 0.16 0.02
 -18 2 -9 0.16 -0.02
 -3 9 18 -2.72 -0.01
 -18 3 9 -2.71 0.00
 -9 18 3 -2.72 -0.01
 -18 -3 -9 -2.72 0.01
 -9 18 -3 -2.72 0.02
 -18 3 -9 -2.72 -0.03
 -3 9 -18 -2.72 -0.01
 -9 18 4 -1.39 -0.04
 -18 4 9 -1.39 -0.02
 -18 -4 -9 -1.40 -0.01
 -4 9 18 -1.39 -0.01
 -18 4 -9 -1.39 -0.02
 -4 9 -18 -1.40 -0.02
 -9 18 -4 -1.39 -0.01
 -18 -5 -9 -1.49 -0.05
 -9 18 5 -1.49 0.01
 -5 9 18 -1.49 0.04
 -18 5 9 -1.48 0.01
 -9 18 -5 -1.49 0.00
 -18 5 -9 -1.49 -0.01
 -5 9 -18 -1.48 0.01
 -18 6 9 -0.69 0.01
 -18 -6 -9 -0.70 -0.02
 -6 9 18 -0.69 0.01
 -9 18 6 -0.69 0.00
 -6 9 -18 -0.69 -0.02
 -18 6 -9 -0.69 0.00
 -9 18 -6 -0.69 0.00
 -7 9 18 -1.54 0.02
 -9 18 7 -1.54 0.01
 -18 -7 -9 -1.55 -0.03
 -18 7 -9 -1.54 -0.11
 -7 9 -18 -1.54 0.01
 -9 18 -7 -1.55 0.02
 -8 9 18 -0.44 0.03
 -18 8 9 -0.43 0.04
 -18 -8 -9 -0.44 -0.05
 -9 18 8 -0.43 0.02
 -9 18 -8 -0.43 -0.01
 -8 9 -18 -0.43 -0.01
 -18 8 -9 -0.43 0.03
 -9 18 9 0.78 0.01
 -18 9 9 0.78 0.03
 -9 9 18 0.78 0.01
 -9 18 -9 0.78 -0.01
 -18 9 -9 0.78 0.00
 -9 9 -18 0.78 0.00
 -10 9 18 -1.01 0.02
 -18 10 9 -1.00 0.06
 -9 18 10 -1.00 0.00
 -9 18 -10 -1.01 0.00
 -18 10 -9 -1.00 0.01
 -10 9 -18 -1.00 0.00
 -18 11 9 0.14 0.02
 -11 9 18 0.14 0.00
 -9 18 11 0.14 0.02
 -18 11 -9 0.14 0.00
 -11 9 -18 0.14 0.00
 -18 12 9 0.34 0.01
 -12 9 18 0.33 0.00
 -9 18 12 0.34 -0.01
 -18 12 -9 0.34 -0.01
 -12 9 -18 0.34 0.00
 -10 18 0 -0.64 -0.02
 0 10 18 -0.63 -0.04
 -18 0 -10 -0.63 0.02
 -18 -1 -10 2.28 0.00
 -18 1 10 2.28 -0.02
 -10 18 1 2.28 0.00
 -1 10 18 2.28 -0.02
 -18 1 -10 2.28 0.00
 -10 18 -1 2.28 -0.03
 -18 -2 -10 1.76 0.05
 -10 18 2 1.75 -0.02
 -2 10 18 1.76 0.02
 -18 2 10 1.75 0.02
 -10 18 -2 1.75 0.05
 -18 2 -10 1.75 -0.02
 -18 -3 -10 1.40 0.09
 -3 10 18 1.40 -0.09
 -18 3 10 1.39 -0.02
 -10 18 3 1.39 0.01
 -3 10 -18 1.39 0.03
 -10 18 -3 1.39 -0.06
 -18 3 -10 1.40 0.05
 -18 4 10 0.82 -0.01
 -10 18 4 0.83 0.00
 -4 10 18 0.83 -0.01
 -18 -4 -10 0.83 0.02
 -10 18 -4 0.83 0.01
 -18 4 -10 0.83 0.00
 -4 10 -18 0.82 0.00
 -5 10 18 2.16 0.00
 -18 5 10 2.15 -0.02
 -18 -5 -10 2.16 0.02
 -10 18 5 2.16 0.01
 -18 5 -10 2.16 0.06
 -5 10 -18 2.16 0.00
 -10 18 -5 2.15 -0.02
 -6 10 18 0.30 0.03
 -18 6 10 0.30 -0.01
 -18 -6 -10 0.31 -0.01
 -10 18 6 0.30 0.02
 -18 6 -10 0.30 0.05
 -6 10 -18 0.30 -0.01
 -10 18 -6 0.31 0.00
 -18 7 10 0.56 -0.02
 -7 10 18 0.56 0.00
 -18 -7 -10 0.57 0.02
 -10 18 7 0.57 0.00
 -18 7 -10 0.56 0.01
 -7 10 -18 0.57 0.01
 -10 18 -7 0.56 -0.01
 -18 8 10 -1.11 -0.04
 -8 10 18 -1.11 0.00
 -18 -8 -10 -1.11 0.03
 -10 18 8 -1.11 0.00
 -10 18 -8 -1.11 -0.01
 -18 8 -10 -1.11 0.02
 -8 10 -18 -1.11 -0.01
 -18 9 10 1.00 -0.06
 -9 10 18 1.00 0.00
 -10 18 9 1.01 -0.01
 -9 10 -18 1.01 -0.01
 -10 18 -9 1.00 0.01
 -18 9 -10 1.00 0.04
 -18 10 10 -1.46 -0.02
 -10 10 18 -1.46 -0.01
 -10 18 10 -1.46 -0.01
 -10 18 -10 -1.46 0.00
 -10 10 -18 -1.46 0.00
 -18 10 -10 -1.46 -0.01
 -10 18 11 -0.05 0.00
 -11 10 18 -0.05 -0.01
 -18 11 10 -0.05 0.00
 -11 10 -18 -0.05 0.02
 -10 18 -11 -0.05 -0.01
 -18 11 -10 -0.05 -0.02
 -18 0 -11 -3.11 -0.02
 -11 18 0 -3.11 -0.02
 0 11 18 -3.11 -0.01
 -11 18 1 -2.32 0.00
 -1 11 18 -2.32 -0.01
 -18 -1 -11 -2.32 -0.05
 -11 18 -1 -2.32 0.00
 -18 1 -11 -2.32 0.00
 -11 18 2 -0.07 -0.01
 -18 2 11 -0.07 0.06
 -18 -2 -11 -0.07 -0.01
 -2 11 18 -0.07 0.06
 -11 18 -2 -0.07 0.05
 -18 2 -11 -0.07 -0.05
 -3 11 18 0.66 -0.01
 -11 18 3 0.67 -0.01
 -18 -3 -11 0.66 0.00
 -18 3 11 0.67 0.00
 -11 18 -3 0.66 0.00
 -18 3 -11 0.66 -0.01
 -4 11 18 0.24 0.02
 -18 -4 -11 0.24 -0.05
 -18 4 11 0.25 0.01
 -18 4 -11 0.24 -0.02
 -11 18 -4 0.24 0.00
 -11 18 5 -0.03 -0.01
 -5 11 18 -0.03 0.00
 -18 -5 -11 -0.04 0.00
 -18 5 11 -0.03 -0.01
 -11 18 -5 -0.04 0.02
 -5 11 -18 -0.04 0.00
 -18 5 -11 -0.04 -0.05
 -11 18 6 -0.33 0.01
 -18 -6 -11 -0.33 -0.04
 -18 6 11 -0.32 0.05
 -6 11 18 -0.33 0.03
 -11 18 -6 -0.33 0.00
 -6 11 -18 -0.33 0.00
 -18 6 -11 -0.33 -0.03
 -11 18 7 -0.56 0.01
 -18 7 11 -0.56 0.03
 -18 -7 -11 -0.56 -0.01
 -7 11 18 -0.56 -0.01
 -11 18 -7 -0.56 -0.01
 -18 7 -11 -0.56 -0.04
 -7 11 -18 -0.56 0.02
 -18 8 11 -0.72 0.05
 -18 -8 -11 -0.72 -0.01
 -8 11 18 -0.72 0.01
 -11 18 8 -0.72 -0.01
 -8 11 -18 -0.72 0.00
 -11 18 -8 -0.72 0.02
 -18 8 -11 -0.72 -0.04
 -11 18 9 0.14 0.00
 -18 9 11 0.14 0.02
 -9 11 18 0.14 0.02
 -18 -9 -11 0.14 -0.02
 -18 9 -11 0.14 0.02
 -11 18 -9 0.14 0.01
 -9 11 -18 0.14 -0.01
 -10 11 18 0.05 0.00
 -11 18 10 0.05 0.01
 -18 10 11 0.05 0.00
 -11 18 -10 0.05 -0.02
 -18 10 -11 0.05 0.02
 -10 11 -18 0.05 0.00
 0 12 18 1.09 -0.07
 -12 18 0 1.09 0.00
 -18 0 -12 1.09 0.04
 -1 12 18 -0.32 0.01
 -18 -1 -12 -0.32 0.02
 -12 18 1 -0.32 -0.01
 1 12 18 -0.32 0.00
 -12 18 -1 -0.32 0.00
 -18 1 -12 -0.32 0.01
 -2 12 18 1.33 -0.01
 -18 -2 -12 1.33 0.05
 -12 18 2 1.32 0.04
 -18 2 12 1.32 0.02
 -12 18 -2 1.32 0.01
 -18 2 -12 1.33 0.02
 -12 18 3 0.07 0.00
 -18 -3 -12 0.07 0.03
 -18 3 12 0.06 -0.01
 -3 12 18 0.07 -0.02
 -12 18 -3 0.07 -0.02
 -18 3 -12 0.07 0.01
 -18 -4 -12 1.07 0.04
 -18 4 12 1.06 -0.02
 -12 18 4 1.07 -0.01
 -4 12 18 1.07 -0.02
 -18 4 -12 1.07 0.01
 -12 18 -4 1.06 0.00
 -18 5 12 -0.68 -0.01
 -18 -5 -12 -0.67 0.01
 -12 18 5 -0.67 0.00
 -5 12 18 -0.67 0.01
 -12 18 -5 -0.67 0.01
 -18 5 -12 -0.67 0.02
 -18 6 12 1.30 -0.03
 -18 -6 -12 1.31 0.00
 -6 12 18 1.30 0.03
 -12 18 6 1.30 0.02
 -12 18 -6 1.30 0.02
 -6 12 -18 1.30 -0.03
 -18 6 -12 1.30 0.05
 -18 -7 -12 0.15 0.02
 -7 12 18 0.15 0.01
 -18 7 12 0.15 -0.01
 -12 18 7 0.15 0.01
 -18 7 -12 0.15 0.03
 -7 12 -18 0.15 -0.01
 -12 18 -7 0.15 -0.01
 -12 18 8 -0.41 0.00
 -18 8 12 -0.41 -0.02
 -18 -8 -12 -0.40 0.01
 -8 12 18 -0.41 0.01
 -18 8 -12 -0.41 0.02
 -8 12 -18 -0.40 -0.01
 -12 18 -8 -0.40 0.02
 -9 12 18 -0.34 0.01
 -18 9 12 -0.34 -0.01
 -12 18 9 -0.33 0.00
 -9 12 -18 -0.34 -0.02
 -18 9 -12 -0.34 0.00
 -12 18 -9 -0.34 -0.01
 -13 18 0 -2.92 -0.03
 -18 0 -13 -2.92 -0.05
 0 13 18 -2.91 -0.04
 -18 -1 -13 -0.18 -0.04
 -1 13 18 -0.18 0.03
 -13 18 1 -0.18 -0.01
 -13 18 -1 -0.18 -0.02
 -18 1 -13 -0.18 -0.01
 1 13 18 -0.18 0.03
 -18 -2 -13 -0.85 -0.02
 -2 13 18 -0.85 0.01
 -13 18 2 -0.85 -0.01
 2 13 18 -0.85 0.00
 -13 18 -2 -0.85 0.01
 -18 2 -13 -0.85 -0.02
 -13 18 3 1.11 0.02
 -18 -3 -13 1.11 -0.05
 -18 3 13 1.12 0.00
 -3 13 18 1.11 0.02
 -13 18 -3 1.12 -0.02
 -18 3 -13 1.11 0.02
 3 13 18 1.11 0.02
 -13 18 4 -0.09 -0.03
 -4 13 18 -0.09 -0.01
 -18 -4 -13 -0.09 0.01
 -18 4 13 -0.09 0.02
 -13 18 -4 -0.09 0.02
 -18 4 -13 -0.09 -0.07
 -13 18 5 -0.08 0.01
 -18 5 13 -0.08 0.02
 -18 -5 -13 -0.09 -0.03
 -5 13 18 -0.08 0.00
 -13 18 -5 -0.08 -0.02
 -18 5 -13 -0.08 0.00
 -18 6 13 -0.91 0.00
 -6 13 18 -0.92 0.00
 -13 18 6 -0.91 0.01
 -18 -6 -13 -0.92 -0.01
 -18 6 -13 -0.92 -0.03
 -13 18 -6 -0.92 0.00
 -18 7 13 0.35 0.03
 -13 18 7 0.35 -0.02
 -7 13 18 0.35 -0.01
 -18 -7 -13 0.35 0.00
 -18 7 -13 0.35 -0.04
 -13 18 -7 0.35 -0.02
 -8 13 18 -1.52 0.01
 -18 -8 -13 -1.52 -0.02
 -13 18 8 -1.52 0.01
 -18 8 13 -1.52 0.03
 -8 13 -18 -1.52 0.03
 -13 18 -8 -1.52 -0.01
 -18 8 -13 -1.52 -0.02
 -14 18 0 -0.90 -0.01
 -18 0 -14 -0.90 0.00
 0 14 18 -0.89 -0.01
 -14 18 1 1.10 0.03
 -1 14 18 1.10 -0.07
 -18 -1 -14 1.10 0.10
 1 14 18 1.10 -0.06
 -14 18 -1 1.10 0.03
 -18 1 -14 1.10 0.06
 -2 14 18 0.05 0.00
 -18 -2 -14 0.06 -0.01
 -14 18 2 0.05 0.02
 2 14 18 0.06 0.00
 -14 18 -2 0.05 -0.02
 -18 2 -14 0.05 0.02
 -18 -3 -14 0.14 0.03
 -3 14 18 0.13 0.00
 -14 18 3 0.14 -0.01
 3 14 18 0.14 0.00
 -14 18 -3 0.14 0.01
 -18 3 -14 0.14 0.00
 -18 -4 -14 1.07 0.01
 -18 4 14 1.06 0.00
 -4 14 18 1.06 0.00
 -14 18 4 1.06 -0.01
 4 14 18 1.07 -0.02
 -14 18 -4 1.06 0.01
 -18 4 -14 1.06 -0.01
 -18 5 14 0.55 -0.01
 -5 14 18 0.55 0.01
 -14 18 5 0.55 0.00
 -18 -5 -14 0.55 0.00
 -14 18 -5 0.55 -0.01
 -18 5 -14 0.55 0.02
 -18 -6 -14 -0.17 0.06
 -14 18 6 -0.18 0.01
 -6 14 18 -0.18 0.02
 -18 6 -14 -0.17 0.03
 -14 18 -6 -0.18 0.05
 0 15 18 0.42 0.04
 -18 0 -15 0.42 -0.04
 -15 18 0 0.42 -0.03
 -18 -1 -15 -0.53 -0.02
 -1 15 18 -0.53 0.02
 -15 18 1 -0.53 0.00
 -15 18 -1 -0.53 0.01
 -18 1 -15 -0.53 -0.03
 1 15 18 -0.53 0.03
 -2 15 18 0.20 0.01
 -18 -2 -15 0.19 -0.03
 -15 18 2 0.20 0.00
 -15 18 -2 0.19 -0.03
 -18 2 -15 0.19 0.01
 2 15 18 0.20 0.01
 -18 -3 -15 -1.47 -0.02
 -15 18 3 -1.46 -0.01
 -3 15 18 -1.46 0.03
 3 15 18 -1.46 0.01
 -15 18 -3 -1.46 0.01
 -18 3 -15 -1.46 -0.02
 -19 1 0 1.09 0.01
 -19 -1 0 1.10 0.00
 -19 2 0 -1.68 -0.01
 -19 -2 0 -1.68 0.00
 -19 -3 0 1.94 0.01
 -19 3 0 1.94 -0.01
 -19 4 0 -0.67 0.02
 0 19 4 -0.67 0.00
 -19 5 0 1.54 0.00
 -5 0 19 1.54 0.01
 0 19 5 1.54 0.00
 -6 0 19 -1.63 0.00
 -19 6 0 -1.63 -0.02
 0 19 6 -1.62 -0.03
 0 19 7 2.57 0.03
 -7 0 19 2.57 0.01
 -19 7 0 2.57 0.03
 0 19 8 -2.01 -0.09
 -19 8 0 -2.01 -0.07
 -8 0 19 -2.02 -0.04
 0 19 9 2.16 -0.02
 -9 0 19 2.16 0.00
 -19 9 0 2.16 -0.03
 -10 0 -19 -0.61 -0.01
 -10 0 19 -0.61 -0.03
 0 19 10 -0.60 -0.08
 -19 10 0 -0.61 -0.06
 0 19 11 2.15 0.04
 -19 11 0 2.15 0.02
 -11 0 -19 2.15 0.01
 -12 0 -19 -1.07 0.01
 0 19 12 -1.07 -0.04
 -19 12 0 -1.07 -0.06
 -19 13 0 0.59 -0.02
 -13 0 -19 0.59 0.00
 0 19 13 0.59 -0.02
 -19 14 0 1.34 -0.01
 -14 0 -19 1.33 0.00
 0 19 14 1.34 -0.02
 -19 0 -1 1.10 0.00
 -19 0 1 1.09 0.01
 -19 -2 -1 0.35 0.00
 -19 2 1 0.35 0.00
 -19 -2 1 0.35 -0.02
 -19 2 -1 0.35 0.00
 -1 19 3 -0.53 -0.03
 -19 -3 -1 -0.53 0.01
 -19 3 1 -0.53 -0.03
 -19 3 -1 -0.53 -0.02
 -19 4 1 -0.22 -0.01
 -1 19 4 -0.22 -0.01
 -19 4 -1 -0.22 0.00
 -1 19 5 -2.18 -0.01
 -5 1 19 -2.18 -0.01
 -19 5 1 -2.18 -0.03
 -19 5 -1 -2.18 0.00
 -1 19 6 -1.65 0.03
 -6 1 19 -1.66 0.01
 -19 6 1 -1.65 0.02
 -6 -1 19 -1.66 -0.01
 1 19 6 -1.65 0.02
 -19 6 -1 -1.65 0.01
 -1 19 7 -0.39 0.08
 -7 1 19 -0.39 0.04
 -19 7 1 -0.39 0.05
 -7 -1 19 -0.39 0.01
 1 19 7 -0.39 0.05
 -19 7 -1 -0.39 0.09
 -19 8 1 1.06 0.02
 -1 19 8 1.06 0.05
 -8 1 19 1.06 -0.01
 1 19 8 1.06 0.02
 -19 8 -1 1.06 0.03
 -8 -1 19 1.06 -0.01
 -9 1 19 0.52 0.00
 -19 9 1 0.52 -0.01
 -1 19 9 0.52 0.01
 -19 9 -1 0.52 0.00
 1 19 9 0.52 0.00
 -9 -1 19 0.52 0.00
 -9 1 -19 0.52 0.00
 -19 10 1 0.23 0.05
 -10 1 19 0.23 0.00
 -1 19 10 0.23 0.00
 -10 1 -19 0.23 0.06
 -19 10 -1 0.23 0.00
 1 19 10 0.23 0.05
 -1 19 11 -0.01 0.07
 -19 11 1 -0.01 0.06
 -11 1 19 -0.01 0.03
 1 19 11 -0.01 0.06
 -19 11 -1 -0.01 0.07
 -11 1 -19 -0.01 0.00
 -1 19 12 -1.04 0.05
 -19 12 1 -1.03 0.03
 -12 -1 -19 -1.03 0.03
 -12 1 -19 -1.03 0.02
 1 19 12 -1.04 0.06
 -19 12 -1 -1.04 0.05
 -19 13 1 -1.66 0.01
 -1 19 13 -1.66 -0.01
 -13 -1 -19 -1.66 0.00
 1 19 13 -1.66 0.00
 -13 1 -19 -1.66 -0.01
 -19 13 -1 -1.66 0.01
 -19 14 1 0.22 0.00
 -14 -1 -19 0.22 -0.02
 -1 19 14 0.22 -0.01
 -14 1 -19 0.21 -0.01
 1 19 14 0.22 -0.02
 -19 14 -1 0.22 0.00
 -19 0 2 1.68 0.01
 -19 0 -2 1.68 0.01
 -19 -1 -2 0.35 0.00
 -19 1 2 0.35 0.00
 -19 1 -2 0.35 -0.02
 -19 -1 2 0.35 0.00
 -19 -3 -2 -0.71 0.01
 -19 3 2 -0.71 0.00
 -2 19 3 -0.71 -0.01
 -19 3 -2 -0.71 0.00
 -19 -4 -2 1.25 0.00
 -2 19 4 1.26 0.00
 -19 4 2 1.25 0.00
 -19 4 -2 1.25 0.00
 -5 2 19 -0.12 -0.05
 -2 19 5 -0.13 -0.01
 -19 5 2 -0.13 0.01
 -19 5 -2 -0.13 -0.02
 -2 19 6 0.32 -0.02
 -19 6 2 0.32 0.00
 -6 2 19 0.32 -0.03
 -19 6 -2 0.32 -0.04
 -6 -2 19 0.31 0.00
 -7 2 19 -1.26 -0.03
 -19 7 2 -1.26 -0.01
 -2 19 7 -1.26 -0.03
 -19 7 -2 -1.26 -0.04
 -7 -2 19 -1.26 0.01
 2 19 7 -1.26 -0.01
 -2 19 8 2.34 0.01
 -19 8 2 2.34 0.00
 -8 2 19 2.34 -0.01
 2 19 8 2.34 -0.02
 -8 2 -19 2.34 0.00
 -19 8 -2 2.34 0.02
 -19 9 2 -0.77 -0.09
 -2 19 9 -0.77 -0.09
 -9 2 19 -0.77 -0.01
 -9 2 -19 -0.77 -0.05
 -19 9 -2 -0.76 -0.07
 2 19 9 -0.77 -0.04
 -2 19 10 0.02 -0.02
 -19 10 2 0.02 -0.01
 -10 2 19 0.02 0.00
 2 19 10 0.02 0.01
 -19 10 -2 0.02 -0.01
 -10 2 -19 0.02 0.02
 -2 19 11 0.35 -0.01
 -11 2 19 0.35 -0.01
 -19 11 2 0.35 -0.03
 -11 2 -19 0.35 -0.01
 -19 11 -2 0.35 -0.01
 2 19 11 0.35 -0.02
 -19 12 2 -0.34 -0.01
 -2 19 12 -0.33 0.00
 -12 2 19 -0.33 -0.02
 2 19 12 -0.33 -0.02
 -12 2 -19 -0.34 0.01
 -19 12 -2 -0.33 -0.01
 -19 13 2 -0.54 -0.01
 -2 19 13 -0.54 -0.01
 2 19 13 -0.54 -0.02
 -19 13 -2 -0.54 -0.05
 -13 2 -19 -0.54 0.04
 -19 14 2 0.42 0.01
 -14 -2 -19 0.42 -0.01
 -14 2 -19 0.42 -0.01
 -19 14 -2 0.42 -0.02
 -19 0 3 1.94 -0.01
 -19 0 -3 1.94 0.01
 -3 19 0 1.94 -0.01
 -3 19 1 0.53 0.00
 -19 -1 -3 0.53 -0.01
 -19 1 3 0.53 0.02
 -19 1 -3 0.53 -0.02
 -19 -1 3 0.53 0.02
 -19 2 3 -0.71 0.00
 -3 19 2 -0.71 0.00
 -19 -2 -3 -0.71 0.01
 -19 2 -3 -0.71 -0.01
 -3 19 4 -0.36 -0.01
 -19 -4 -3 -0.36 0.00
 -19 4 3 -0.36 -0.01
 -4 3 19 -0.36 -0.01
 -19 4 -3 -0.36 -0.01
 -3 19 5 -1.18 0.03
 -5 3 19 -1.18 0.01
 -19 5 3 -1.18 0.01
 -19 5 -3 -1.18 0.04
 -19 6 3 -1.24 0.01
 -3 19 6 -1.24 0.01
 -6 3 19 -1.24 0.01
 -6 -3 19 -1.24 -0.01
 -19 6 -3 -1.24 0.03
 -19 7 3 -0.73 -0.04
 -3 19 7 -0.73 0.06
 -7 3 19 -0.73 0.08
 -19 7 -3 -0.73 0.05
 -3 19 8 1.58 0.06
 -8 3 19 1.58 0.01
 -19 8 3 1.58 0.06
 -19 8 -3 1.58 0.07
 -8 3 -19 1.59 0.00
 -19 9 3 0.17 0.00
 -3 19 9 0.17 -0.03
 -9 3 19 0.17 0.00
 3 19 9 0.17 0.02
 -9 3 -19 0.17 0.03
 -19 9 -3 0.17 -0.03
 -19 10 3 0.24 0.02
 -3 19 10 0.24 0.02
 -10 3 19 0.24 0.01
 3 19 10 0.24 0.02
 -10 3 -19 0.24 0.02
 -19 10 -3 0.24 0.01
 -3 19 11 0.38 0.01
 -19 11 3 0.38 0.03
 -11 3 19 0.38 0.04
 3 19 11 0.38 0.05
 -19 11 -3 0.38 0.05
 -11 3 -19 0.38 0.01
 -12 3 19 -0.26 0.01
 -3 19 12 -0.27 0.04
 -19 12 3 -0.27 0.01
 -12 3 -19 -0.27 -0.02
 -19 12 -3 -0.27 0.04
 3 19 12 -0.27 -0.01
 -13 3 19 0.41 -0.01
 -3 19 13 0.41 0.01
 -19 13 3 0.41 0.00
 -19 13 -3 0.41 0.00
 3 19 13 0.41 0.00
 -13 3 -19 0.41 0.02
 -19 0 4 0.67 -0.02
 -19 0 -4 0.67 0.00
 -4 19 0 0.68 -0.02
 -19 -1 -4 -0.22 -0.02
 -4 19 1 -0.23 -0.01
 -19 1 4 -0.22 -0.01
 -19 -1 4 -0.22 0.00
 -19 1 -4 -0.22 0.01
 -4 19 -1 -0.23 -0.01
 -4 19 2 -1.25 -0.02
 -19 -2 -4 -1.25 0.00
 -19 2 4 -1.25 0.00
 -19 2 -4 -1.25 0.00
 -19 3 4 -0.36 -0.01
 -4 19 3 -0.36 -0.01
 -19 -3 -4 -0.36 0.00
 -19 3 -4 -0.36 0.00
 -4 19 5 -0.64 -0.02
 -5 4 19 -0.64 -0.01
 -19 5 4 -0.64 0.01
 -19 -5 -4 -0.64 0.00
 -19 5 -4 -0.64 -0.01
 -19 6 4 -0.09 0.00
 -4 19 6 -0.09 0.00
 -6 4 19 -0.09 -0.06
 -19 6 -4 -0.09 -0.03
 -4 19 7 1.18 0.00
 -19 7 4 1.18 -0.05
 -7 4 19 1.18 0.02
 -19 7 -4 1.18 -0.01
 -7 4 -19 1.18 -0.02
 -4 19 8 0.80 -0.02
 -8 4 19 0.79 -0.06
 -19 8 4 0.79 -0.02
 -19 8 -4 0.80 -0.04
 -8 4 -19 0.80 0.03
 -4 19 9 0.39 -0.02
 -9 4 19 0.39 -0.01
 -19 9 4 0.39 0.01
 -9 4 -19 0.39 0.02
 -19 9 -4 0.39 -0.01
 -19 10 4 0.42 -0.04
 -4 19 10 0.43 -0.06
 -10 4 19 0.43 -0.02
 -19 10 -4 0.43 -0.06
 -10 4 -19 0.42 0.03
 -11 4 19 -1.47 0.00
 -4 19 11 -1.47 0.00
 -19 11 4 -1.46 0.00
 -11 4 -19 -1.47 0.00
 -19 11 -4 -1.47 0.01
 4 19 11 -1.47 0.01
 -12 4 19 -0.13 -0.03
 -19 12 4 -0.13 0.00
 -4 19 12 -0.13 -0.01
 -19 12 -4 -0.13 -0.02
 -12 4 -19 -0.14 0.01
 4 19 12 -0.13 -0.02
 -4 19 13 -1.21 -0.01
 -19 13 4 -1.21 0.01
 -13 4 19 -1.21 0.00
 -19 13 -4 -1.21 -0.02
 4 19 13 -1.21 0.00
 -13 4 -19 -1.21 0.02
 -19 0 5 1.54 0.00
 -19 0 -5 1.54 0.01
 -5 19 0 1.54 0.01
 -19 1 5 2.18 0.03
 -5 19 1 2.18 0.01
 -19 -1 -5 2.18 -0.02
 -5 19 -1 2.18 0.01
 -19 1 -5 2.18 0.00
 -19 2 5 -0.13 0.02
 -19 -2 -5 -0.13 0.05
 -5 19 2 -0.12 -0.05
 -19 2 -5 -0.13 -0.05
 -5 19 -2 -0.13 0.04
 -5 19 3 1.18 -0.01
 -19 3 5 1.18 -0.01
 -19 -3 -5 1.18 0.02
 -19 3 -5 1.18 -0.02
 -5 19 -3 1.18 0.00
 -4 5 19 -0.64 -0.02
 -19 4 5 -0.64 0.01
 -5 19 4 -0.64 -0.01
 -19 -4 -5 -0.64 0.00
 -19 4 -5 -0.63 -0.02
 -6 5 19 -1.81 0.01
 -5 19 6 -1.81 0.05
 -19 6 5 -1.81 -0.01
 -19 6 -5 -1.81 0.00
 -6 5 -19 -1.81 -0.02
 -5 19 7 0.86 0.02
 -19 7 5 0.86 0.02
 -7 5 19 0.86 0.03
 -19 7 -5 0.86 0.03
 -7 5 -19 0.86 -0.02
 -19 8 5 -1.49 -0.02
 -8 5 19 -1.49 0.01
 -5 19 8 -1.49 0.02
 -19 8 -5 -1.49 0.01
 -8 5 -19 -1.48 -0.02
 -9 5 19 1.09 -0.01
 -5 19 9 1.09 0.00
 -19 9 5 1.09 0.05
 -9 5 -19 1.09 -0.01
 -19 9 -5 1.09 0.04
 -5 19 10 -0.43 -0.01
 -19 10 5 -0.43 0.01
 -10 5 19 -0.43 0.01
 -19 10 -5 -0.43 0.00
 -10 5 -19 -0.43 0.01
 -11 5 19 0.86 0.01
 -19 11 5 0.86 0.02
 -5 19 11 0.86 0.05
 -19 11 -5 0.86 0.03
 -11 5 -19 0.86 -0.01
 -5 19 12 0.01 0.00
 -12 5 19 0.01 0.00
 -19 12 5 0.00 0.00
 -12 5 -19 0.00 0.00
 -19 12 -5 0.01 0.00
 5 19 12 0.01 -0.01
 -13 5 19 -0.02 0.01
 -19 13 5 -0.02 0.00
 -5 19 13 -0.02 0.01
 5 19 13 -0.02 0.01
 -19 13 -5 -0.02 0.01
 -13 5 -19 -0.02 0.00
 -19 0 -6 1.63 0.00
 -6 19 0 1.63 0.00
 -19 0 6 1.63 0.02
 -19 1 6 -1.65 0.02
 -6 19 1 -1.66 0.01
 -19 -1 -6 -1.65 -0.01
 -19 1 -6 -1.65 0.02
 -6 19 -1 -1.66 -0.01
 -6 19 2 -0.32 0.03
 -19 -2 -6 -0.32 -0.02
 -19 2 6 -0.32 0.00
 -6 19 -2 -0.31 0.00
 -19 2 -6 -0.32 0.03
 -19 -3 -6 -1.24 -0.03
 -6 19 3 -1.24 0.01
 -3 6 19 -1.24 0.01
 -19 3 6 -1.24 0.01
 -6 19 -3 -1.24 -0.01
 -19 3 -6 -1.24 0.01
 -19 4 6 0.09 0.00
 -6 19 4 0.09 0.06
 -4 6 19 0.09 0.00
 -19 -4 -6 0.09 -0.03
 -19 4 -6 0.09 0.05
 -6 19 -4 0.09 -0.01
 -19 5 6 -1.81 -0.01
 -5 6 19 -1.81 0.05
 -6 19 5 -1.81 0.02
 -19 -5 -6 -1.81 -0.01
 -19 5 -6 -1.81 0.06
 -6 19 7 0.44 0.00
 -19 7 6 0.44 -0.01
 -7 6 19 0.44 -0.01
 -19 7 -6 0.44 -0.03
 -7 6 -19 0.44 0.00
 -8 6 19 1.27 -0.01
 -19 8 6 1.27 -0.01
 -6 19 8 1.27 -0.01
 -8 6 -19 1.27 0.01
 -19 8 -6 1.27 -0.01
 -19 9 6 0.20 -0.03
 -6 19 9 0.20 -0.05
 -9 6 19 0.20 -0.03
 -19 9 -6 0.20 -0.02
 -9 6 -19 0.20 0.00
 -6 19 10 0.17 0.00
 -19 10 6 0.17 0.00
 -10 6 19 0.17 0.01
 -10 6 -19 0.17 0.00
 -19 10 -6 0.17 -0.01
 -6 19 11 -0.25 -0.01
 -19 11 6 -0.25 0.01
 -11 6 19 -0.25 -0.02
 -19 11 -6 -0.25 -0.02
 -11 6 -19 -0.25 0.02
 -12 6 19 -0.95 0.00
 -6 19 12 -0.95 0.00
 -19 12 6 -0.95 -0.01
 -12 6 -19 -0.95 0.01
 -19 12 -6 -0.95 -0.01
 -7 19 0 2.57 0.01
 -19 0 -7 2.57 -0.03
 -19 -1 -7 0.39 0.04
 -19 1 7 0.39 -0.06
 -7 19 1 0.39 -0.04
 -19 1 -7 0.39 -0.02
 -7 19 -1 0.39 -0.01
 -2 7 19 -1.26 -0.02
 -7 19 2 -1.26 -0.03
 -19 -2 -7 -1.26 0.01
 -19 2 7 -1.26 -0.01
 -19 2 -7 -1.26 -0.01
 -7 19 -2 -1.26 0.01
 -3 7 19 0.73 -0.06
 -19 -3 -7 0.73 0.01
 -7 19 3 0.73 -0.08
 -19 3 7 0.73 0.04
 -7 19 -3 0.73 0.00
 -19 3 -7 0.73 -0.09
 -4 7 19 1.18 -0.01
 -19 -4 -7 1.19 0.01
 -19 4 7 1.18 -0.05
 -7 19 4 1.18 0.02
 -7 19 -4 1.19 -0.01
 -19 4 -7 1.19 0.01
 -19 5 7 -0.86 -0.02
 -7 19 5 -0.86 -0.03
 -5 7 19 -0.86 -0.02
 -19 -5 -7 -0.86 0.02
 -19 5 -7 -0.86 -0.03
 -7 19 -5 -0.86 0.00
 -5 7 -19 -0.86 -0.01
 -7 19 6 0.44 -0.01
 -19 6 7 0.44 -0.01
 -19 -6 -7 0.44 0.02
 -6 7 19 0.44 0.00
 -19 6 -7 0.44 -0.01
 -6 7 -19 0.44 0.01
 -8 7 19 0.83 -0.01
 -19 8 7 0.83 0.01
 -7 19 8 0.83 -0.02
 -19 8 -7 0.83 -0.01
 -8 7 -19 0.83 0.02
 -9 7 19 -1.24 0.00
 -19 9 7 -1.25 -0.01
 -7 19 9 -1.24 0.01
 -19 9 -7 -1.24 0.02
 -9 7 -19 -1.25 -0.01
 -10 7 19 1.45 0.00
 -19 10 7 1.45 -0.02
 -7 19 10 1.45 0.00
 -19 10 -7 1.45 0.00
 -10 7 -19 1.45 -0.01
 -19 11 7 0.13 0.03
 -11 7 19 0.14 -0.02
 -7 19 11 0.14 0.00
 -11 7 -19 0.14 0.02
 -19 11 -7 0.14 -0.01
 -7 19 12 0.22 -0.01
 -12 7 19 0.22 0.00
 -19 12 7 0.22 0.00
 -12 7 -19 0.21 0.00
 -19 12 -7 0.22 -0.01
 -19 0 -8 2.01 -0.01
 -8 19 0 2.02 0.04
 -19 1 8 1.06 0.02
 -19 -1 -8 1.06 0.02
 -8 19 1 1.06 -0.01
 -19 1 -8 1.07 0.01
 -8 19 -1 1.06 -0.01
 -2 8 19 -2.34 -0.02
 -19 -2 -8 -2.34 0.02
 -19 2 8 -2.34 0.00
 -8 19 2 -2.34 0.01
 -19 2 -8 -2.34 0.01
 -8 19 -2 -2.34 -0.01
 -8 19 3 1.59 0.01
 -19 -3 -8 1.58 -0.07
 -3 8 19 1.58 0.06
 -19 3 8 1.58 0.06
 -19 3 -8 1.58 0.00
 -8 19 -3 1.58 -0.01
 -19 4 8 -0.79 0.01
 -4 8 19 -0.80 0.02
 -8 19 4 -0.79 0.06
 -19 -4 -8 -0.79 -0.03
 -19 4 -8 -0.79 0.06
 -8 19 -4 -0.79 -0.01
 -19 5 8 -1.49 -0.02
 -19 -5 -8 -1.49 -0.01
 -8 19 5 -1.49 0.01
 -5 8 19 -1.49 0.02
 -8 19 -5 -1.49 0.00
 -5 8 -19 -1.49 0.01
 -19 5 -8 -1.49 0.02
 -19 6 8 -1.27 0.01
 -6 8 19 -1.27 0.01
 -8 19 6 -1.27 0.01
 -19 -6 -8 -1.27 0.00
 -6 8 -19 -1.26 0.00
 -8 19 -6 -1.26 0.02
 -19 6 -8 -1.27 0.01
 -8 19 7 0.83 -0.01
 -19 -7 -8 0.83 0.01
 -19 7 8 0.83 0.01
 -7 8 19 0.83 -0.02
 -8 19 -7 0.82 0.00
 -19 7 -8 0.83 0.01
 -7 8 -19 0.82 0.01
 -19 9 8 -0.32 0.00
 -9 8 19 -0.32 -0.01
 -8 19 9 -0.32 -0.01
 -19 9 -8 -0.32 -0.01
 -9 8 -19 -0.32 0.00
 -19 10 8 0.10 0.00
 -10 8 19 0.10 0.00
 -8 19 10 0.09 0.02
 -10 8 -19 0.10 0.00
 -19 10 -8 0.10 0.01
 -19 11 8 0.32 0.02
 -11 8 19 0.32 0.00
 -8 19 11 0.32 -0.02
 -19 11 -8 0.32 0.00
 -11 8 -19 0.32 0.01
 -19 0 -9 2.16 0.01
 -9 19 0 2.16 0.00
 -1 9 19 -0.52 -0.01
 -9 19 1 -0.52 0.00
 -19 -1 -9 -0.52 0.00
 -9 19 -1 -0.52 0.01
 -19 1 -9 -0.52 0.01
 -2 9 19 -0.77 -0.09
 -9 19 2 -0.77 -0.01
 -19 -2 -9 -0.77 0.01
 -19 2 9 -0.77 -0.09
 -9 19 -2 -0.77 -0.03
 -19 2 -9 -0.77 0.01
 -19 3 9 -0.17 0.00
 -19 -3 -9 -0.17 -0.03
 -9 19 3 -0.17 0.00
 -3 9 19 -0.17 0.03
 -19 3 -9 -0.17 -0.01
 -9 19 -3 -0.17 0.02
 -19 -4 -9 0.39 0.01
 -19 4 9 0.39 0.01
 -9 19 4 0.39 -0.01
 -4 9 19 0.39 -0.02
 -9 19 -4 0.39 0.00
 -19 4 -9 0.39 -0.02
 -4 9 -19 0.39 -0.01
 -19 -5 -9 -1.09 0.04
 -5 9 19 -1.09 0.00
 -19 5 9 -1.09 -0.05
 -9 19 5 -1.09 0.01
 -19 5 -9 -1.09 -0.02
 -9 19 -5 -1.09 0.01
 -5 9 -19 -1.09 0.00
 -6 9 19 0.20 -0.05
 -19 6 9 0.20 -0.02
 -19 -6 -9 0.20 0.02
 -9 19 6 0.20 -0.03
 -9 19 -6 0.20 -0.01
 -19 6 -9 0.20 0.00
 -6 9 -19 0.20 -0.01
 -9 19 7 1.24 0.00
 -19 -7 -9 1.24 0.00
 -7 9 19 1.25 -0.01
 -19 7 9 1.24 0.01
 -19 7 -9 1.24 0.00
 -9 19 -7 1.24 0.01
 -7 9 -19 1.24 0.01
 -8 9 19 -0.32 -0.01
 -19 8 9 -0.32 0.00
 -9 19 8 -0.32 -0.01
 -9 19 -8 -0.32 0.00
 -19 8 -9 -0.32 0.02
 -8 9 -19 -0.32 0.01
 -9 19 10 0.16 -0.01
 -10 9 19 0.16 -0.01
 -19 10 9 0.16 0.00
 -19 10 -9 0.16 0.00
 -10 9 -19 0.15 -0.01
 -10 19 0 0.61 0.03
 -19 0 -10 0.61 0.00
 0 10 19 0.60 0.08
 -10 19 1 0.23 0.00
 -19 -1 -10 0.23 0.02
 -19 1 -10 0.23 -0.02
 -10 19 -1 0.23 -0.01
 -19 2 10 -0.02 0.01
 -2 10 19 -0.02 0.02
 -19 -2 -10 -0.02 0.00
 -10 19 2 -0.02 0.00
 -10 19 -2 -0.02 0.02
 -19 2 -10 -0.02 -0.01
 -10 19 3 0.24 0.00
 -19 -3 -10 0.24 -0.02
 -3 10 19 0.23 0.02
 -19 3 10 0.24 0.02
 -10 19 -3 0.24 -0.03
 -19 3 -10 0.24 0.00
 -19 4 10 -0.42 0.05
 -4 10 19 -0.43 0.06
 -19 -4 -10 -0.43 -0.07
 -10 19 4 -0.43 0.02
 -4 10 -19 -0.42 0.00
 -10 19 -4 -0.42 0.02
 -19 4 -10 -0.42 0.03
 -19 5 10 -0.43 0.01
 -10 19 5 -0.43 0.01
 -19 -5 -10 -0.43 0.01
 -5 10 19 -0.43 -0.01
 -5 10 -19 -0.43 0.01
 -19 5 -10 -0.43 0.03
 -10 19 -5 -0.43 -0.03
 -19 -6 -10 -0.17 0.00
 -6 10 19 -0.17 0.00
 -19 6 10 -0.17 0.00
 -10 19 6 -0.17 -0.01
 -6 10 -19 -0.17 -0.01
 -10 19 -6 -0.17 0.02
 -19 6 -10 -0.17 0.00
 -19 -7 -10 1.45 0.01
 -19 7 10 1.45 -0.02
 -7 10 19 1.45 0.00
 -10 19 7 1.45 0.00
 -10 19 -7 1.45 0.00
 -7 10 -19 1.45 -0.01
 -19 7 -10 1.45 0.03
 -8 10 19 -0.09 -0.02
 -19 8 10 -0.10 0.00
 -10 19 8 -0.10 0.00
 -19 8 -10 -0.10 -0.02
 -8 10 -19 -0.10 0.01
 -10 19 -8 -0.09 -0.01
 -9 10 19 0.16 0.00
 -10 19 9 0.16 -0.01
 -19 9 10 0.16 0.00
 -9 10 -19 0.16 0.00
 -10 19 -9 0.15 0.00
 -19 9 -10 0.16 -0.01
 -11 19 0 2.15 0.01
 -19 0 -11 2.16 -0.01
 0 11 19 2.15 0.03
 -19 -1 -11 0.02 0.02
 -11 19 1 0.01 -0.03
 -1 11 19 0.01 -0.07
 1 11 19 0.01 -0.06
 -11 19 -1 0.01 -0.02
 -19 1 -11 0.01 0.00
 -2 11 19 0.35 -0.01
 -19 -2 -11 0.35 0.01
 -11 19 2 0.35 -0.01
 -19 2 -11 0.35 0.01
 -11 19 -2 0.35 -0.01
 -19 -3 -11 -0.38 0.03
 -3 11 19 -0.38 -0.01
 -19 3 11 -0.38 -0.03
 -11 19 3 -0.38 -0.04
 -11 19 -3 -0.38 0.02
 -19 3 -11 -0.38 -0.05
 -4 11 19 -1.47 0.00
 -11 19 4 -1.47 0.00
 -19 4 11 -1.46 0.00
 -19 -4 -11 -1.47 -0.01
 -11 19 -4 -1.47 0.00
 -19 4 -11 -1.47 0.00
 -19 -5 -11 -0.86 0.04
 -11 19 5 -0.86 -0.01
 -5 11 19 -0.86 -0.05
 -19 5 11 -0.86 -0.02
 -5 11 -19 -0.86 0.00
 -19 5 -11 -0.86 -0.03
 -11 19 -5 -0.86 -0.01
 -19 -6 -11 -0.25 0.00
 -19 6 11 -0.25 0.01
 -11 19 6 -0.25 -0.02
 -6 11 19 -0.25 -0.01
 -19 6 -11 -0.25 -0.02
 -11 19 -6 -0.25 0.01
 -6 11 -19 -0.25 0.01
 -7 11 19 -0.14 0.00
 -19 7 11 -0.13 -0.03
 -19 -7 -11 -0.14 -0.01
 -11 19 7 -0.14 0.02
 -7 11 -19 -0.14 0.00
 -19 7 -11 -0.14 0.04
 -11 19 -7 -0.14 0.00
 -8 11 19 0.33 -0.02
 -19 8 11 0.32 0.02
 -11 19 8 0.33 0.00
 -19 -8 -11 0.32 -0.01
 -11 19 -8 0.32 0.00
 -8 11 -19 0.32 0.02
 -19 8 -11 0.32 -0.01
 -19 0 -12 1.07 0.00
 0 12 19 1.07 0.04
 -12 19 0 1.07 0.04
 -1 12 19 -1.04 0.05
 -19 -1 -12 -1.04 -0.03
 -12 19 1 -1.03 0.01
 1 12 19 -1.04 0.06
 -19 1 -12 -1.04 -0.01
 -12 19 -1 -1.03 -0.01
 -2 12 19 0.33 0.00
 -19 -2 -12 0.33 0.00
 -12 19 2 0.33 0.02
 -12 19 -2 0.33 -0.01
 -19 2 -12 0.33 0.02
 2 12 19 0.33 0.02
 -19 3 12 -0.27 0.01
 -3 12 19 -0.27 0.04
 -12 19 3 -0.26 0.01
 -19 -3 -12 -0.27 -0.05
 -12 19 -3 -0.26 -0.01
 -12 19 4 0.13 0.03
 -4 12 19 0.13 0.01
 -19 4 12 0.13 -0.01
 -19 -4 -12 0.13 -0.04
 -19 4 -12 0.13 0.05
 -12 19 -4 0.13 -0.02
 -19 5 12 0.00 0.00
 -19 -5 -12 0.01 0.00
 -5 12 19 0.01 0.00
 -12 19 5 0.01 0.00
 -12 19 -5 0.01 -0.01
 -19 5 -12 0.01 0.01
 -12 19 6 0.95 0.00
 -19 -6 -12 0.95 -0.01
 -19 6 12 0.95 0.01
 -6 12 19 0.95 0.00
 -19 6 -12 0.95 0.00
 -12 19 -6 0.95 0.00
 -7 12 19 0.22 -0.01
 -12 19 7 0.22 0.00
 -19 7 12 0.21 0.00
 -19 -7 -12 0.22 0.01
 -19 7 -12 0.22 0.00
 -12 19 -7 0.21 0.00
 -7 12 -19 0.22 -0.01
 0 13 19 0.59 -0.02
 -19 0 -13 0.59 0.00
 -13 19 0 0.59 0.01
 -13 19 1 1.67 -0.01
 -1 13 19 1.66 0.01
 -19 -1 -13 1.66 0.00
 -13 19 -1 1.66 -0.02
 -19 1 -13 1.66 0.00
 1 13 19 1.66 0.00
 -13 19 2 -0.53 -0.05
 -19 -2 -13 -0.54 0.05
 -2 13 19 -0.54 -0.01
 -19 2 -13 -0.54 -0.06
 -13 19 -2 -0.54 0.04
 2 13 19 -0.54 -0.02
 -13 19 3 -0.41 0.01
 -3 13 19 -0.41 -0.01
 -19 -3 -13 -0.41 0.02
 3 13 19 -0.41 0.00
 -19 3 -13 -0.41 0.01
 -13 19 -3 -0.41 0.00
 -19 4 13 -1.21 0.01
 -19 -4 -13 -1.21 0.02
 -4 13 19 -1.21 -0.01
 -13 19 4 -1.21 0.00
 -19 4 -13 -1.21 -0.03
 -13 19 -4 -1.21 0.02
 -19 5 13 0.02 0.00
 -19 -5 -13 0.02 0.01
 -5 13 19 0.02 -0.01
 -13 19 5 0.02 -0.01
 -13 19 -5 0.02 0.00
 -19 5 -13 0.02 0.00
 -14 19 0 -1.34 -0.01
 -19 0 -14 -1.34 -0.03
 0 14 19 -1.34 0.02
 -1 14 19 0.22 0.00
 -14 19 1 0.22 0.01
 -19 -1 -14 0.22 0.01
 -19 1 -14 0.22 0.03
 1 14 19 0.22 -0.02
 -14 19 -1 0.22 0.01
 -19 -2 -14 -0.42 -0.04
 -14 19 -2 -0.43 -0.02
 -19 2 -14 -0.43 0.00
 -20 0 0 -4.64 0.02
 -20 1 0 -3.97 0.02
 -20 -1 0 -3.97 0.01
 -20 -2 0 -3.08 0.01
 -20 2 0 -3.09 0.00
 -20 3 0 1.85 0.02
 -20 4 0 1.51 -0.01
 -5 0 20 3.01 -0.01
 -20 5 0 3.00 -0.02
 -20 6 0 0.53 0.00
 -6 0 20 0.54 0.01
 -7 0 20 1.62 0.00
 0 20 7 1.62 -0.01
 -20 7 0 1.62 -0.02
 -8 0 20 -2.06 0.01
 0 20 8 -2.06 -0.01
 -20 8 0 -2.06 -0.01
 -9 0 20 0.97 0.00
 0 20 9 0.97 0.03
 -20 9 0 0.97 0.02
 -20 10 0 -0.35 -0.03
 0 20 10 -0.35 -0.03
 -20 11 0 -0.78 -0.02
 0 20 11 -0.78 -0.01
 0 20 12 0.69 -0.02
 -20 12 0 0.68 -0.02
 -12 0 -20 0.68 -0.02
 -20 0 -1 3.97 -0.02
 -20 0 1 3.97 -0.02
 -20 1 1 1.91 -0.02
 -20 -1 -1 1.91 0.00
 -20 -1 1 1.91 -0.01
 -20 1 -1 1.91 -0.01
 -20 2 1 1.08 -0.01
 -20 -2 -1 1.08 -0.01
 -20 2 -1 1.08 0.00
 -20 -2 1 1.08 0.00
 -20 -3 -1 -1.48 0.01
 -20 3 1 -1.47 0.00
 -20 3 -1 -1.47 0.01
 -20 4 1 -1.10 0.00
 -20 4 -1 -1.10 0.00
 -5 1 20 -1.71 0.01
 -20 5 1 -1.70 -0.01
 -1 20 5 -1.71 0.00
 -20 5 -1 -1.70 0.00
 -5 -1 20 -1.70 0.00
 -20 6 1 0.10 0.01
 -6 1 20 0.10 -0.01
 -1 20 6 0.10 -0.01
 -20 6 -1 0.10 -0.01
 -6 -1 20 0.10 0.02
 -20 7 1 -0.39 -0.01
 -7 1 20 -0.39 -0.01
 -1 20 7 -0.39 -0.02
 -20 7 -1 -0.39 0.00
 -7 -1 20 -0.39 0.02
 -1 20 8 -0.96 0.01
 -20 8 1 -0.95 0.01
 -8 1 20 -0.96 0.00
 1 20 8 -0.96 0.01
 -8 -1 20 -0.96 0.03
 -20 8 -1 -0.95 0.00
 -9 1 20 -0.22 0.01
 -1 20 9 -0.21 0.03
 -20 9 1 -0.21 0.04
 1 20 9 -0.22 0.01
 -20 9 -1 -0.21 0.03
 -1 20 10 -0.59 0.01
 -10 1 20 -0.58 0.01
 -20 10 1 -0.58 0.00
 -20 10 -1 -0.58 0.01
 1 20 10 -0.58 0.00
 -1 20 11 -1.00 -0.02
 -20 11 1 -1.00 0.00
 1 20 11 -1.01 -0.01
 -20 11 -1 -1.00 -0.01
 -11 1 -20 -1.01 -0.01
 -20 12 1 0.79 0.01
 -1 20 12 0.78 0.00
 -12 1 -20 0.78 0.00
 1 20 12 0.78 0.00
 -20 12 -1 0.79 0.00
 -20 0 2 -3.08 0.00
 -20 0 -2 -3.08 0.01
 -20 1 2 -1.08 0.01
 -20 -1 -2 -1.08 0.01
 -20 -1 2 -1.08 0.00
 -20 1 -2 -1.08 0.01
 -20 -2 -2 0.92 -0.01
 -20 2 2 0.92 0.02
 -20 2 -2 0.91 0.01
 -20 -3 -2 2.36 0.00
 -20 3 2 2.36 0.00
 -20 3 -2 2.35 0.00
 -2 20 4 3.11 -0.01
 -20 4 2 3.10 0.00
 -20 4 -2 3.10 -0.02
 -2 20 5 2.77 0.00
 -20 5 2 2.77 -0.01
 -5 2 20 2.77 0.01
 -20 5 -2 2.76 0.00
 -2 20 6 1.77 0.00
 -20 6 2 1.77 0.00
 -6 2 20 1.77 0.02
 -20 6 -2 1.77 0.01
 -6 -2 20 1.77 -0.01
 -7 2 20 -0.33 -0.01
 -2 20 7 -0.33 -0.02
 -20 7 2 -0.33 -0.01
 -20 7 -2 -0.33 -0.02
 -20 8 2 -0.52 -0.01
 -8 2 20 -0.52 0.01
 -2 20 8 -0.51 0.01
 -20 8 -2 -0.52 0.01
 -2 20 9 0.15 0.01
 -20 9 2 0.16 0.01
 -9 2 20 0.16 0.00
 -20 9 -2 0.16 0.00
 -20 10 2 0.85 -0.01
 -2 20 10 0.85 0.04
 -10 2 20 0.85 0.00
 -10 2 -20 0.85 -0.02
 -20 10 -2 0.85 0.02
 2 20 10 0.86 -0.03
 -11 2 20 1.02 -0.02
 -2 20 11 1.02 -0.01
 -20 11 2 1.02 -0.02
 2 20 11 1.02 -0.01
 -20 11 -2 1.02 -0.02
 -11 2 -20 1.02 0.00
 -12 2 20 0.57 0.01
 -20 12 2 0.57 -0.01
 -2 20 12 0.57 -0.01
 -12 2 -20 0.57 -0.01
 2 20 12 0.57 0.00
 -20 12 -2 0.57 0.00
 -20 0 3 -1.85 -0.02
 -20 0 -3 -1.86 0.00
 -20 1 3 -1.47 0.00
 -20 -1 -3 -1.47 0.01
 -20 1 -3 -1.47 0.00
 -20 -1 3 -1.47 0.01
 -3 20 2 -2.36 0.02
 -20 2 3 -2.36 0.00
 -20 -2 -3 -2.36 0.00
 -20 2 -3 -2.36 0.00
 -20 -3 -3 -2.40 -0.02
 -3 20 3 -2.41 0.03
 -20 3 3 -2.40 -0.01
 -20 3 -3 -2.40 0.03
 -4 3 20 -3.29 0.00
 -20 -4 -3 -3.29 0.01
 -20 4 3 -3.29 -0.02
 -3 20 4 -3.29 0.00
 -20 4 -3 -3.29 -0.01
 -3 20 5 -1.66 0.01
 -5 3 20 -1.66 0.02
 -20 5 3 -1.66 -0.02
 -20 5 -3 -1.66 0.01
 -3 20 6 -0.80 -0.02
 -6 3 20 -0.80 0.02
 -20 6 3 -0.80 0.06
 -20 6 -3 -0.80 0.02
 -20 7 3 0.29 0.01
 -7 3 20 0.28 -0.01
 -3 20 7 0.28 -0.02
 -20 7 -3 0.29 -0.02
 -8 3 20 -0.21 0.00
 -20 8 3 -0.21 0.05
 -3 20 8 -0.21 -0.02
 -20 8 -3 -0.21 0.01
 -20 9 3 -1.29 -0.01
 -3 20 9 -1.29 -0.01
 -9 3 20 -1.29 0.03
 -20 9 -3 -1.29 0.01
 -9 3 -20 -1.29 0.00
 -20 10 3 0.22 0.02
 -3 20 10 0.21 0.02
 -10 3 20 0.21 0.01
 -10 3 -20 0.21 -0.02
 -20 10 -3 0.22 0.02
 -11 3 20 -1.53 -0.01
 -20 11 3 -1.53 -0.01
 -3 20 11 -1.53 -0.05
 -11 3 -20 -1.53 0.01
 -20 11 -3 -1.53 -0.02
 -3 20 12 -1.02 -0.01
 -20 12 3 -1.02 0.00
 -12 3 20 -1.02 0.00
 -20 12 -3 -1.02 0.00
 -12 3 -20 -1.02 -0.01
 3 20 12 -1.02 0.00
 -20 0 4 1.51 -0.01
 -20 0 -4 1.51 0.00
 -20 -1 -4 1.10 0.01
 -20 1 4 1.10 -0.01
 -4 20 1 1.10 0.00
 -20 1 -4 1.10 0.00
 -4 20 2 3.10 0.00
 -20 2 4 3.10 0.00
 -20 -2 -4 3.10 0.00
 -20 2 -4 3.10 -0.01
 -20 3 4 3.29 0.02
 -20 -3 -4 3.29 -0.01
 -4 20 3 3.29 0.00
 -20 3 -4 3.29 0.00
 -20 -4 -4 4.74 0.01
 -4 20 4 4.75 -0.03
 -4 4 20 4.75 -0.03
 -20 4 -4 4.74 -0.01
 -4 20 5 1.14 -0.01
 -20 5 4 1.14 -0.04
 -5 4 20 1.14 -0.02
 -20 5 -4 1.14 -0.02
 -4 20 6 1.07 0.02
 -20 6 4 1.07 -0.02
 -6 4 20 1.07 0.00
 -20 6 -4 1.07 -0.02
 -7 4 20 -0.61 -0.01
 -4 20 7 -0.61 -0.01
 -20 7 4 -0.61 -0.01
 -20 7 -4 -0.61 0.00
 -20 8 4 -0.80 -0.05
 -4 20 8 -0.80 0.00
 -8 4 20 -0.80 -0.03
 -8 4 -20 -0.80 -0.02
 -20 8 -4 -0.80 -0.04
 -20 9 4 -1.30 -0.05
 -4 20 9 -1.30 0.03
 -9 4 20 -1.30 0.00
 -9 4 -20 -1.30 -0.03
 -20 9 -4 -1.31 -0.01
 -4 20 10 1.81 0.03
 -20 10 4 1.80 0.00
 -10 4 20 1.81 -0.02
 -10 4 -20 1.80 -0.01
 -20 10 -4 1.80 -0.01
 -20 11 4 0.06 -0.01
 -11 4 20 0.06 0.00
 -4 20 11 0.06 0.00
 -11 4 -20 0.06 -0.01
 -20 11 -4 0.06 -0.01
 -12 4 20 1.35 0.01
 -20 12 4 1.35 0.00
 -20 12 -4 1.35 0.00
 -12 4 -20 1.35 0.00
 -5 20 0 -3.00 0.01
 -20 0 5 -3.00 0.02
 -20 0 -5 -3.00 0.00
 -20 1 5 -1.70 -0.01
 -5 20 1 -1.71 0.01
 -20 -1 -5 -1.70 -0.02
 -20 1 -5 -1.70 0.00
 -5 20 -1 -1.70 -0.01
 -5 20 2 -2.77 -0.01
 -20 -2 -5 -2.77 0.01
 -20 2 5 -2.77 0.01
 -20 2 -5 -2.76 -0.02
 -5 20 3 -1.66 0.02
 -20 -3 -5 -1.66 -0.01
 -3 5 20 -1.66 0.01
 -20 3 5 -1.66 -0.02
 -20 3 -5 -1.66 0.01
 -20 -4 -5 -1.14 -0.03
 -20 4 5 -1.14 0.04
 -4 5 20 -1.14 0.01
 -5 20 4 -1.14 0.02
 -20 4 -5 -1.14 0.00
 -20 5 5 -0.90 0.02
 -5 5 20 -0.90 -0.02
 -5 20 5 -0.90 -0.02
 -20 5 -5 -0.90 -0.01
 -6 5 20 -0.63 0.00
 -20 6 5 -0.63 0.04
 -5 20 6 -0.64 0.00
 -20 6 -5 -0.63 -0.01
 -7 5 20 1.57 0.01
 -20 7 5 1.57 0.14
 -5 20 7 1.57 -0.06
 -20 7 -5 1.57 0.08
 -7 5 -20 1.57 0.05
 -8 5 20 0.02 0.03
 -20 8 5 0.03 0.00
 -5 20 8 0.02 0.00
 -8 5 -20 0.02 -0.01
 -20 8 -5 0.02 0.00
 -20 9 5 0.96 0.03
 -5 20 9 0.96 0.01
 -9 5 20 0.96 0.02
 -20 9 -5 0.96 0.02
 -9 5 -20 0.96 0.01
 -5 20 10 -1.05 0.01
 -10 5 20 -1.05 0.01
 -20 10 5 -1.05 0.02
 -10 5 -20 -1.05 -0.02
 -20 10 -5 -1.05 0.02
 -11 5 20 0.43 0.02
 -5 20 11 0.43 0.00
 -20 11 5 0.44 0.01
 -11 5 -20 0.44 -0.02
 -20 11 -5 0.44 0.03
 -20 0 -6 0.53 0.01
 -6 20 0 0.54 0.01
 -20 1 6 -0.10 -0.01
 -20 -1 -6 -0.10 0.00
 -6 20 1 -0.10 0.01
 -6 20 -1 -0.10 -0.02
 -20 1 -6 -0.10 0.01
 -20 2 6 1.77 0.00
 -20 -2 -6 1.77 -0.01
 -6 20 2 1.77 0.02
 -6 20 -2 1.78 -0.01
 -20 2 -6 1.77 0.02
 -20 -3 -6 0.80 0.03
 -20 3 6 0.80 -0.06
 -3 6 20 0.80 0.02
 -6 20 3 0.80 -0.02
 -20 3 -6 0.80 0.03
 -20 -4 -6 1.07 0.03
 -6 20 4 1.07 0.00
 -4 6 20 1.08 0.02
 -20 4 6 1.07 -0.01
 -20 4 -6 1.07 0.02
 -20 -5 -6 0.63 0.03
 -20 5 6 0.63 -0.04
 -5 6 20 0.64 0.00
 -6 20 5 0.63 0.00
 -20 5 -6 0.63 -0.02
 -20 6 6 -1.27 -0.07
 -6 20 6 -1.27 0.00
 -6 6 20 -1.27 0.00
 -20 6 -6 -1.27 -0.01
 -7 6 20 -0.45 0.02
 -6 20 7 -0.45 0.01
 -20 7 6 -0.45 -0.03
 -20 7 -6 -0.45 0.01
 -7 6 -20 -0.45 0.00
 -6 20 8 -0.80 0.03
 -8 6 20 -0.80 0.03
 -20 8 6 -0.80 -0.03
 -20 8 -6 -0.80 -0.02
 -8 6 -20 -0.80 -0.01
 -20 9 6 -0.29 -0.04
 -9 6 20 -0.29 -0.01
 -6 20 9 -0.29 0.00
 -9 6 -20 -0.29 0.00
 -20 9 -6 -0.29 -0.03
 -10 6 20 -0.65 0.00
 -20 10 6 -0.65 -0.01
 -6 20 10 -0.65 0.00
 -10 6 -20 -0.65 -0.01
 -20 10 -6 -0.65 -0.01
 -6 20 11 0.28 -0.01
 -20 11 6 0.28 0.00
 -11 6 20 0.27 0.01
 -20 11 -6 0.27 0.00
 -11 6 -20 0.28 0.00
 -7 20 0 -1.62 0.01
 -20 0 -7 -1.62 -0.01
 -7 20 1 -0.39 -0.01
 -20 -1 -7 -0.39 0.01
 -20 1 7 -0.39 -0.01
 -7 20 -1 -0.39 0.02
 -20 1 -7 -0.39 -0.03
 -20 2 7 0.33 0.01
 -2 7 20 0.33 0.02
 -20 -2 -7 0.33 -0.03
 -7 20 2 0.33 0.01
 -7 20 -2 0.33 0.00
 -20 2 -7 0.33 0.01
 -20 3 7 0.29 0.01
 -3 7 20 0.28 -0.02
 -7 20 3 0.28 -0.01
 -20 -3 -7 0.29 0.01
 -20 3 -7 0.29 -0.04
 -7 20 -3 0.28 0.00
 -4 7 20 0.61 0.01
 -20 4 7 0.61 0.01
 -7 20 4 0.61 0.01
 -20 -4 -7 0.61 0.01
 -20 4 -7 0.61 -0.01
 -20 5 7 1.57 0.14
 -7 20 5 1.57 0.01
 -20 -5 -7 1.57 -0.09
 -5 7 20 1.57 -0.06
 -20 5 -7 1.57 -0.06
 -6 7 20 0.45 -0.01
 -20 6 7 0.45 0.03
 -7 20 6 0.45 -0.02
 -6 7 -20 0.44 -0.01
 -20 6 -7 0.45 0.01
 -7 20 7 0.24 -0.02
 -20 7 7 0.24 0.01
 -7 7 20 0.24 -0.02
 -20 7 -7 0.24 0.01
 -7 7 -20 0.24 0.00
 -8 7 20 0.77 0.00
 -20 8 7 0.77 0.05
 -7 20 8 0.77 -0.03
 -8 7 -20 0.77 -0.01
 -20 8 -7 0.77 0.02
 -20 9 7 -0.70 0.01
 -7 20 9 -0.70 0.01
 -9 7 20 -0.70 -0.01
 -20 9 -7 -0.70 0.00
 -9 7 -20 -0.70 0.00
 -20 10 7 0.43 -0.01
 -10 7 20 0.43 0.01
 -7 20 10 0.43 -0.01
 -20 10 -7 0.44 0.01
 -10 7 -20 0.43 -0.02
 -20 0 -8 -2.06 0.00
 -8 20 0 -2.06 0.00
 -8 20 1 0.96 0.00
 -20 -1 -8 0.95 -0.01
 -8 20 -1 0.96 -0.03
 -20 1 -8 0.95 0.01
 -8 20 2 -0.52 0.01
 -2 8 20 -0.51 0.01
 -20 -2 -8 -0.52 0.00
 -20 2 8 -0.52 -0.01
 -20 2 -8 -0.51 0.01
 -8 20 -2 -0.51 0.00
 -20 -3 -8 0.21 0.02
 -8 20 3 0.21 0.00
 -20 3 8 0.21 -0.05
 -3 8 20 0.21 0.02
 -8 20 -3 0.21 0.00
 -20 3 -8 0.21 0.02
 -4 8 20 -0.80 0.00
 -8 20 4 -0.80 -0.03
 -20 -4 -8 -0.80 0.06
 -20 4 8 -0.80 -0.05
 -8 20 -4 -0.80 0.02
 -20 4 -8 -0.81 0.00
 -20 5 8 -0.03 0.00
 -5 8 20 -0.02 0.00
 -8 20 5 -0.02 -0.03
 -20 -5 -8 -0.02 0.00
 -20 5 -8 -0.02 0.00
 -20 -6 -8 -0.80 0.03
 -8 20 6 -0.80 0.03
 -20 6 8 -0.80 -0.04
 -6 8 20 -0.80 0.03
 -20 6 -8 -0.80 0.01
 -6 8 -20 -0.80 -0.01
 -7 8 20 -0.77 0.03
 -20 7 8 -0.77 -0.05
 -8 20 7 -0.77 0.00
 -7 8 -20 -0.77 0.01
 -20 7 -8 -0.77 -0.02
 -20 8 8 0.39 0.00
 -8 8 20 0.39 0.04
 -8 20 8 0.39 0.04
 -20 8 -8 0.39 0.00
 -8 8 -20 0.39 -0.01
 -20 9 8 0.11 0.01
 -8 20 9 0.11 -0.01
 -9 8 20 0.11 0.01
 -9 8 -20 0.11 0.01
 -20 9 -8 0.11 -0.01
 -9 20 0 -0.97 0.00
 -20 0 -9 -0.97 0.00
 -1 9 20 -0.21 0.03
 -20 -1 -9 -0.21 -0.02
 -9 20 1 -0.22 0.01
 -9 20 -1 -0.21 0.00
 -20 1 -9 -0.21 0.00
 -20 -2 -9 -0.16 0.00
 -9 20 2 -0.16 0.00
 -20 2 9 -0.16 -0.01
 -2 9 20 -0.15 -0.01
 -20 2 -9 -0.16 0.00
 -9 20 -2 -0.16 -0.01
 -20 -3 -9 -1.29 0.01
 -3 9 20 -1.29 -0.01
 -9 20 3 -1.29 0.03
 -20 3 9 -1.29 -0.01
 -20 3 -9 -1.29 0.03
 -9 20 -3 -1.29 0.00
 -4 9 20 1.31 -0.03
 -20 4 9 1.30 0.05
 -20 -4 -9 1.30 -0.01
 -9 20 4 1.30 0.00
 -9 20 -4 1.30 0.00
 -20 4 -9 1.30 -0.03
 -20 -5 -9 0.96 -0.02
 -5 9 20 0.96 0.00
 -20 5 9 0.96 0.03
 -9 20 5 0.96 0.02
 -20 5 -9 0.96 0.00
 -9 20 -5 0.96 0.01
 -6 9 20 0.29 -0.01
 -20 -6 -9 0.28 -0.03
 -20 6 9 0.29 0.04
 -9 20 6 0.29 0.01
 -20 6 -9 0.29 0.02
 -6 9 -20 0.28 -0.01
 -9 20 -6 0.29 -0.01
 -9 20 7 -0.70 -0.01
 -20 7 9 -0.70 0.01
 -7 9 -20 -0.70 -0.01
 -20 7 -9 -0.70 -0.01
 -20 8 9 -0.11 -0.01
 -9 20 8 -0.11 -0.01
 -8 9 20 -0.11 0.01
 -8 9 -20 -0.11 -0.02
 -20 8 -9 -0.11 0.04
 0 10 20 -0.35 -0.03
 -10 20 0 -0.35 0.00
 -20 0 -10 -0.35 0.02
 -20 -1 -10 0.58 0.00
 -10 20 1 0.59 -0.01
 -1 10 20 0.59 -0.01
 -10 20 -1 0.59 -0.01
 -20 1 -10 0.58 -0.01
 -2 10 20 0.85 0.04
 -20 -2 -10 0.85 -0.01
 -10 20 2 0.85 0.00
 -10 20 -2 0.85 0.02
 -20 2 -10 0.85 0.01
 -20 3 10 -0.22 -0.02
 -3 10 20 -0.21 -0.02
 -20 -3 -10 -0.21 0.03
 -10 20 3 -0.21 -0.01
 -10 20 -3 -0.21 -0.01
 -20 3 -10 -0.22 0.01
 -20 4 10 1.80 0.00
 -4 10 20 1.81 0.03
 -20 -4 -10 1.81 0.02
 -10 20 4 1.81 -0.02
 -20 4 -10 1.80 -0.03
 -10 20 -4 1.81 0.04
 -20 -5 -10 1.05 0.02
 -10 20 5 1.05 -0.01
 -5 10 20 1.05 -0.01
 -20 5 10 1.05 -0.02
 -5 10 -20 1.05 0.02
 -10 20 -5 1.05 -0.02
 -20 5 -10 1.05 -0.01
 -6 10 20 -0.65 0.00
 -20 -6 -10 -0.65 0.00
 -20 6 10 -0.65 -0.01
 -10 20 6 -0.65 0.00
 -10 20 -6 -0.65 0.00
 -20 6 -10 -0.65 -0.02
 -6 10 -20 -0.65 0.00
 -7 10 20 -0.43 0.00
 -20 -7 -10 -0.43 0.01
 -10 20 7 -0.43 -0.01
 -20 7 10 -0.43 0.01
 -20 7 -10 -0.44 -0.03
 -10 20 -7 -0.44 -0.01
 -7 10 -20 -0.43 0.01
 0 11 20 0.78 0.01
 -11 20 0 0.78 0.00
 -20 0 -11 0.78 -0.01
 -11 20 1 -1.01 -0.01
 -20 -1 -11 -1.01 0.00
 -1 11 20 -1.00 -0.02
 -20 1 -11 -1.01 -0.02
 -11 20 -1 -1.01 0.00
 1 11 20 -1.01 -0.01
 -2 11 20 -1.02 0.01
 -20 -2 -11 -1.02 -0.04
 -11 20 2 -1.03 0.02
 -11 20 -2 -1.02 -0.02
 -20 2 -11 -1.02 0.01
 -20 -3 -11 -1.53 0.00
 -11 20 3 -1.53 -0.01
 -3 11 20 -1.53 -0.05
 -11 20 -3 -1.53 -0.02
 -20 3 -11 -1.53 0.01
 -20 4 11 -0.06 0.01
 -20 -4 -11 -0.07 0.00
 -11 20 4 -0.06 0.00
 -4 11 20 -0.06 0.00
 -20 4 -11 -0.06 0.00
 -11 20 -4 -0.06 0.00
 -11 20 5 0.43 0.02
 -20 5 11 0.44 0.01
 -20 -5 -11 0.43 -0.02
 -5 11 20 0.43 0.00
 -11 20 -5 0.44 0.00
 -20 5 -11 0.44 0.00
 -20 6 11 -0.28 0.00
 -6 11 20 -0.28 0.01
 -11 20 6 -0.27 -0.01
 -20 -6 -11 -0.28 0.00
 -6 11 -20 -0.28 -0.02
 -20 6 -11 -0.27 0.00
 -11 20 -6 -0.28 0.02
 0 12 20 0.69 -0.02
 -20 0 -12 0.68 0.01
 -12 20 0 0.68 -0.01
 -20 -1 -12 -0.78 0.00
 -1 12 20 -0.78 0.00
 -12 20 1 -0.78 0.00
 -12 20 -1 -0.78 0.00
 -20 1 -12 -0.78 0.00
 1 12 20 -0.78 0.00
 -2 12 20 0.57 -0.01
 -20 -2 -12 0.57 0.00
 -12 20 2 0.57 0.01
 -12 20 -2 0.56 0.00
 2 12 20 0.57 0.00
 -20 2 -12 0.57 0.01
 -12 20 3 1.02 0.00
 -3 12 20 1.02 0.01
 -20 -3 -12 1.02 0.00
 -20 3 -12 1.02 0.01
 -12 20 -3 1.02 0.01
 -20 -4 -12 1.35 0.02
 -12 20 4 1.35 0.01
 -20 4 12 1.35 0.00
 -12 20 -4 1.35 0.01
 -20 4 -12 1.35 0.00
 -21 1 0 0.75 0.00
 -21 -1 0 0.75 -0.01
 -21 2 0 1.99 0.00
 -21 3 0 1.25 0.00
 -21 4 0 -0.43 -0.01
 -5 0 21 -0.95 0.00
 -21 5 0 -0.95 -0.01
 -21 6 0 -1.34 0.00
 -6 0 21 -1.34 0.00
 -21 7 0 0.04 -0.01
 -7 0 21 0.04 -0.02
 -21 8 0 -0.05 0.00
 -8 0 21 -0.05 0.00
 -21 9 0 -0.13 0.00
 0 21 9 -0.13 0.01
 -21 10 0 0.52 0.01
 0 21 10 0.52 0.00
 -21 0 1 0.75 0.00
 -21 0 -1 0.75 -0.01
 -21 2 1 0.60 -0.01
 -21 -2 -1 0.59 0.00
 -21 2 -1 0.60 0.00
 -21 3 1 -1.89 0.01
 -21 3 -1 -1.89 0.01
 -21 4 1 -0.76 0.02
 -21 4 -1 -0.76 0.03
 -5 1 21 -0.67 0.01
 -21 5 1 -0.67 0.01
 -5 -1 21 -0.67 0.02
 -21 5 -1 -0.67 0.04
 -6 1 21 1.04 -0.01
 -21 6 1 1.04 0.01
 -21 6 -1 1.04 -0.01
 -6 -1 21 1.04 -0.01
 -7 1 21 0.44 0.00
 -21 7 1 0.44 0.01
 -21 7 -1 0.44 0.00
 -7 -1 21 0.44 -0.01
 -1 21 8 0.86 -0.01
 -21 8 1 0.86 -0.02
 -8 1 21 0.86 -0.01
 -21 8 -1 0.86 -0.01
 -1 21 9 0.05 -0.02
 -21 9 1 0.05 0.00
 -9 1 21 0.05 0.00
 -21 9 -1 0.05 -0.01
 -10 1 21 -0.04 -0.01
 -21 10 1 -0.04 0.00
 -1 21 10 -0.05 0.01
 -21 10 -1 -0.04 0.01
 -21 0 2 -1.99 0.00
 -21 0 -2 -1.99 -0.01
 -21 1 2 0.60 -0.01
 -21 -1 -2 0.60 0.00
 -21 1 -2 0.60 -0.01
 -21 3 2 0.45 0.00
 -21 3 -2 0.45 -0.02
 -21 4 2 -1.29 0.01
 -4 2 21 -1.30 -0.01
 -21 4 -2 -1.29 -0.01
 -5 2 21 -0.19 -0.01
 -21 5 2 -0.19 -0.01
 -5 -2 21 -0.19 0.00
 -21 5 -2 -0.19 -0.01
 -21 6 2 -1.26 -0.02
 -2 21 6 -1.26 -0.02
 -6 2 21 -1.27 -0.02
 -21 6 -2 -1.26 -0.01
 -6 -2 21 -1.27 -0.02
 -21 7 2 -0.42 0.00
 -7 2 21 -0.42 0.02
 -2 21 7 -0.42 0.02
 -21 7 -2 -0.42 0.01
 -21 8 2 0.27 -0.01
 -8 2 21 0.27 -0.01
 -2 21 8 0.27 0.00
 -21 8 -2 0.27 0.01
 -9 2 21 0.42 0.00
 -2 21 9 0.42 -0.01
 -21 9 2 0.42 0.00
 -21 9 -2 0.42 0.00
 -21 10 2 -1.05 -0.02
 -10 2 21 -1.05 -0.01
 -2 21 10 -1.05 0.01
 -21 10 -2 -1.06 0.00
 -21 0 -3 1.25 0.00
 -21 0 3 1.25 0.00
 -21 1 3 1.89 -0.01
 -21 -1 -3 1.89 0.00
 -21 1 -3 1.89 0.00
 -21 2 3 0.45 0.00
 -21 -2 -3 0.45 0.00
 -21 2 -3 0.45 0.00
 -4 3 21 -1.54 0.01
 -21 4 3 -1.54 0.02
 -21 4 -3 -1.54 0.01
 -3 21 5 1.09 0.01
 -21 5 3 1.10 0.01
 -5 3 21 1.09 0.00
 -21 5 -3 1.09 0.01
 -6 3 21 0.40 -0.01
 -3 21 6 0.40 0.00
 -21 6 3 0.40 0.01
 -21 6 -3 0.40 0.01
 -21 7 3 0.71 -0.04
 -3 21 7 0.71 0.01
 -7 3 21 0.71 0.00
 -21 7 -3 0.71 -0.01
 -21 8 3 0.93 0.04
 -3 21 8 0.93 0.01
 -8 3 21 0.94 0.00
 -21 8 -3 0.94 0.00
 -9 3 21 -0.11 0.01
 -3 21 9 -0.11 -0.01
 -21 9 3 -0.11 -0.01
 -21 9 -3 -0.12 0.00
 -21 10 3 -0.01 0.01
 -3 21 10 -0.01 0.00
 -10 3 21 -0.01 -0.01
 -21 10 -3 -0.01 0.00
 -21 0 -4 0.43 0.00
 -21 1 4 -0.76 0.02
 -21 -1 -4 -0.76 0.00
 -21 1 -4 -0.76 -0.01
 -21 -2 -4 1.29 0.00
 -21 2 4 1.29 -0.01
 -21 2 -4 1.29 0.00
 -21 -3 -4 -1.54 0.00
 -21 3 4 -1.54 0.02
 -4 21 3 -1.54 0.01
 -21 3 -4 -1.54 0.01
 -21 5 4 -1.48 0.03
 -5 4 21 -1.48 0.00
 -4 21 5 -1.48 0.00
 -21 5 -4 -1.48 0.00
 -4 21 6 1.35 0.00
 -21 6 4 1.35 -0.03
 -6 4 21 1.35 -0.01
 -21 6 -4 1.35 -0.01
 -21 7 4 -2.21 -0.04
 -4 21 7 -2.21 0.00
 -7 4 21 -2.21 -0.01
 -21 7 -4 -2.21 -0.01
 -21 8 4 0.12 0.01
 -4 21 8 0.13 0.00
 -8 4 21 0.12 -0.01
 -21 8 -4 0.12 0.00
 -21 9 4 -0.55 0.01
 -4 21 9 -0.56 -0.02
 -9 4 21 -0.55 0.00
 -21 9 -4 -0.55 0.01
 -4 21 10 0.67 0.00
 -21 10 4 0.67 0.00
 -10 4 21 0.67 -0.02
 -10 4 -21 0.67 0.02
 -21 10 -4 0.67 0.00
 -21 0 -5 -0.95 0.00
 -21 -1 -5 0.67 -0.02
 -21 1 5 0.67 -0.01
 -21 1 -5 0.67 -0.01
 -21 -2 -5 -0.19 0.00
 -21 2 5 -0.19 -0.01
 -5 21 2 -0.19 -0.01
 -21 2 -5 -0.19 0.00
 -21 -3 -5 -1.10 0.00
 -5 21 3 -1.09 0.00
 -21 3 5 -1.10 -0.01
 -3 5 21 -1.09 -0.01
 -21 3 -5 -1.09 0.00
 -4 5 21 -1.48 0.00
 -21 4 5 -1.48 0.03
 -5 21 4 -1.48 0.00
 -21 -4 -5 -1.48 -0.01
 -21 4 -5 -1.48 0.00
 -21 6 5 1.91 -0.03
 -5 21 6 1.91 0.01
 -6 5 21 1.91 -0.01
 -21 6 -5 1.91 0.00
 -5 21 7 -0.15 0.00
 -7 5 21 -0.16 0.01
 -21 7 5 -0.16 0.01
 -21 7 -5 -0.16 0.01
 -21 8 5 0.01 -0.03
 -8 5 21 0.01 0.01
 -5 21 8 0.01 0.02
 -21 8 -5 0.01 -0.01
 -9 5 21 1.50 0.01
 -21 9 5 1.50 0.04
 -5 21 9 1.50 0.00
 -21 9 -5 1.50 0.03
 -9 5 -21 1.50 0.02
 -6 21 0 1.34 0.00
 -21 0 -6 1.34 0.01
 -6 21 1 1.04 -0.01
 -21 -1 -6 1.04 0.00
 -21 1 -6 1.04 -0.01
 -21 -2 -6 1.27 0.00
 -21 2 6 1.26 0.02
 -6 21 2 1.27 0.02
 -21 2 -6 1.26 0.01
 -3 6 21 0.40 0.00
 -21 3 6 0.40 0.01
 -6 21 3 0.40 -0.01
 -21 -3 -6 0.40 -0.01
 -21 3 -6 0.40 0.00
 -21 4 6 -1.35 0.03
 -21 -4 -6 -1.35 -0.01
 -4 6 21 -1.35 0.00
 -6 21 4 -1.35 0.01
 -21 4 -6 -1.35 0.00
 -6 21 5 1.91 -0.01
 -21 5 6 1.91 -0.03
 -5 6 21 1.91 0.01
 -21 5 -6 1.91 0.00
 -6 21 7 -0.39 0.01
 -7 6 21 -0.38 -0.02
 -21 7 6 -0.38 0.00
 -21 7 -6 -0.38 -0.04
 -8 6 21 -1.46 -0.01
 -6 21 8 -1.46 -0.01
 -21 8 6 -1.46 -0.01
 -8 6 -21 -1.46 0.01
 -21 8 -6 -1.46 -0.01
 -21 9 6 0.60 0.02
 -9 6 21 0.60 -0.02
 -6 21 9 0.60 -0.01
 -9 6 -21 0.59 0.02
 -21 9 -6 0.60 0.01
 -7 21 0 0.04 -0.02
 -21 0 -7 0.04 0.00
 -7 21 1 -0.44 0.00
 -21 -1 -7 -0.44 0.00
 -21 1 -7 -0.44 -0.02
 -7 21 -1 -0.44 0.01
 -21 -2 -7 -0.42 -0.01
 -21 2 7 -0.42 0.00
 -2 7 21 -0.42 0.02
 -7 21 2 -0.42 0.02
 -21 2 -7 -0.42 0.03
 -3 7 21 -0.71 -0.01
 -21 3 7 -0.71 0.04
 -7 21 3 -0.71 0.00
 -21 -3 -7 -0.71 -0.04
 -21 3 -7 -0.70 -0.01
 -4 7 21 -2.21 0.00
 -21 4 7 -2.21 -0.04
 -7 21 4 -2.21 -0.01
 -21 -4 -7 -2.21 0.02
 -21 4 -7 -2.21 0.01
 -5 7 21 0.16 0.00
 -7 21 5 0.16 -0.01
 -21 5 7 0.16 -0.01
 -21 -5 -7 0.16 0.00
 -21 5 -7 0.16 0.00
 -21 6 7 -0.38 0.00
 -7 21 6 -0.39 -0.01
 -6 7 21 -0.39 0.01
 -21 6 -7 -0.38 0.03
 -7 21 8 0.03 -0.02
 -21 8 7 0.03 0.00
 -8 7 21 0.04 0.00
 -21 8 -7 0.03 0.02
 -8 7 -21 0.04 0.00
 -21 0 -8 0.05 0.00
 -8 21 0 0.05 0.00
 -21 -1 -8 0.86 0.00
 -1 8 21 0.86 -0.01
 -8 21 1 0.86 -0.01
 -8 21 -1 0.86 0.00
 -21 1 -8 0.86 0.01
 -21 -2 -8 -0.27 0.02
 -2 8 21 -0.27 0.00
 -8 21 2 -0.27 0.01
 -8 21 -2 -0.27 0.02
 -21 2 -8 -0.27 -0.01
 -21 -3 -8 0.94 0.00
 -3 8 21 0.93 0.01
 -8 21 3 0.94 0.00
 -21 3 8 0.93 0.04
 -21 3 -8 0.94 0.00
 -21 4 8 -0.12 -0.01
 -21 -4 -8 -0.12 0.00
 -4 8 21 -0.13 -0.01
 -8 21 4 -0.12 0.01
 -21 4 -8 -0.12 0.00
 -8 21 5 0.01 0.01
 -21 5 8 0.01 -0.03
 -5 8 21 0.01 0.02
 -21 -5 -8 0.01 0.01
 -21 5 -8 0.01 0.02
 -21 6 8 1.46 0.01
 -8 21 6 1.46 0.01
 -6 8 21 1.46 0.01
 -21 6 -8 1.46 0.00
 -8 21 7 0.04 0.00
 -7 8 21 0.03 -0.01
 -21 7 8 0.03 0.00
 -21 7 -8 0.03 0.00
 -7 8 -21 0.03 0.01
 -9 21 0 -0.13 0.00
 -21 0 -9 -0.13 0.00
 -21 -1 -9 -0.05 -0.03
 -1 9 21 -0.05 0.02
 -9 21 1 -0.05 -0.01
 -21 1 -9 -0.05 0.02
 -9 21 -1 -0.05 -0.01
 -2 9 21 0.42 -0.01
 -21 -2 -9 0.42 0.00
 -9 21 2 0.42 0.00
 -21 2 -9 0.42 -0.02
 -9 21 -2 0.42 -0.01
 -21 -3 -9 0.11 -0.01
 -9 21 3 0.12 -0.01
 -21 3 9 0.11 0.01
 -3 9 21 0.11 0.01
 -21 3 -9 0.11 0.00
 -9 21 -3 0.11 -0.01
 -4 9 21 -0.56 -0.01
 -21 4 9 -0.55 0.01
 -9 21 4 -0.55 0.00
 -21 -4 -9 -0.55 -0.04
 -21 4 -9 -0.55 0.01
 -9 21 -4 -0.55 -0.03
 -9 21 5 -1.50 -0.01
 -5 9 21 -1.50 0.00
 -21 5 9 -1.50 -0.04
 -21 -5 -9 -1.50 0.03
 -21 5 -9 -1.50 0.00
 -6 9 21 0.60 -0.01
 -21 6 9 0.60 0.02
 -9 21 6 0.60 -0.02
 -21 6 -9 0.60 -0.02
 -10 21 0 -0.52 0.01
 -21 0 -10 -0.52 0.01
 0 10 21 -0.52 -0.01
 -1 10 21 -0.05 0.01
 -21 -1 -10 -0.04 -0.01
 -10 21 1 -0.04 -0.01
 -21 1 -10 -0.04 0.00
 -10 21 -1 -0.04 -0.01
 -2 10 21 1.05 0.00
 -21 -2 -10 1.05 0.02
 -10 21 2 1.05 0.01
 -10 21 -2 1.05 0.02
 -21 2 -10 1.06 -0.02
 -10 21 3 -0.01 -0.01
 -21 -3 -10 -0.01 0.02
 -3 10 21 -0.01 0.00
 -10 21 -3 -0.01 0.01
 -21 3 -10 -0.01 -0.02
 -4 10 21 -0.67 0.00
 -21 -4 -10 -0.67 -0.01
 -10 21 4 -0.67 0.02
 -21 4 10 -0.67 0.00
 -10 21 -4 -0.67 0.00
 -21 4 -10 -0.67 0.01
 -22 0 0 1.38 -0.02
 -22 -1 0 -2.38 -0.02
 -22 1 0 -2.37 -0.02
 -22 2 0 -3.07 -0.03
 -22 3 0 -3.29 -0.01
 -22 4 0 -2.58 -0.01
 -5 0 22 -2.65 0.00
 -22 5 0 -2.65 -0.01
 -6 0 22 -1.97 0.02
 -22 6 0 -1.97 0.00
 -22 7 0 -1.12 -0.01
 -7 0 22 -1.12 0.02
 -22 8 0 -0.90 0.00
 -22 0 1 2.37 0.02
 -22 0 -1 2.38 0.02
 -22 1 1 0.24 0.06
 -22 -1 -1 0.24 0.00
 -22 1 -1 0.24 0.02
 -22 2 1 2.32 0.01
 -22 2 -1 2.32 0.01
 -22 3 1 3.90 0.01
 -22 3 -1 3.90 0.01
 -4 1 22 5.26 0.01
 -22 4 1 5.27 0.01
 -22 4 -1 5.27 -0.01
 -22 5 1 3.34 0.00
 -5 1 22 3.34 0.00
 -5 -1 22 3.34 0.00
 -22 5 -1 3.34 0.03
 -6 1 22 2.23 0.00
 -22 6 1 2.23 0.02
 -6 -1 22 2.23 0.00
 -22 6 -1 2.23 0.01
 -22 7 1 0.41 0.01
 -7 1 22 0.41 0.01
 -22 7 -1 0.41 0.03
 -8 1 22 0.64 0.00
 -22 8 1 0.64 0.01
 -22 8 -1 0.64 0.02
 -22 0 -2 -3.07 0.00
 -22 0 2 -3.07 -0.03
 -22 1 2 -2.32 -0.01
 -22 -1 -2 -2.32 0.01
 -22 1 -2 -2.32 0.00
 -22 2 2 -5.37 -0.04
 -22 2 -2 -5.38 0.00
 -22 3 2 -3.55 -0.03
 -22 3 -2 -3.55 -0.02
 -4 2 22 -4.42 0.02
 -22 4 2 -4.42 -0.02
 -22 4 -2 -4.43 -0.01
 -22 5 2 -2.20 -0.01
 -5 2 22 -2.20 0.01
 -5 -2 22 -2.20 0.00
 -22 5 -2 -2.20 -0.01
 -22 6 2 -2.80 0.00
 -6 2 22 -2.79 -0.02
 -22 6 -2 -2.79 -0.03
 -22 7 2 -1.01 -0.02
 -7 2 22 -1.00 0.00
 -22 7 -2 -1.01 -0.03
 -22 8 2 -1.06 -0.01
 -8 2 22 -1.06 -0.01
 -22 8 -2 -1.06 -0.01
 -22 0 -3 3.29 -0.01
 -22 1 3 3.90 0.01
 -22 -1 -3 3.90 0.00
 -22 1 -3 3.90 0.00
 -22 -2 -3 3.55 0.00
 -22 2 3 3.55 0.03
 -22 2 -3 3.55 0.00
 -22 3 3 5.74 0.01
 -22 3 -3 5.74 0.00
 -22 4 3 5.42 0.01
 -4 3 22 5.42 0.00
 -22 4 -3 5.43 0.00
 -22 5 3 4.26 0.00
 -5 3 22 4.26 0.00
 -22 5 -3 4.26 0.02
 -6 3 22 0.71 0.02
 -22 6 3 0.71 0.03
 -22 6 -3 0.71 0.03
 -22 7 3 1.43 0.00
 -7 3 22 1.43 0.00
 -3 22 7 1.43 0.00
 -22 7 -3 1.43 0.01
 -8 3 22 0.32 0.00
 -3 22 8 0.32 0.01
 -22 8 3 0.32 0.02
 -22 8 -3 0.32 0.01
 -22 0 -4 -2.58 0.00
 -22 -1 -4 -5.27 0.01
 -22 1 4 -5.27 -0.01
 -22 1 -4 -5.27 0.01
 -22 2 4 -4.42 -0.02
 -22 -2 -4 -4.42 0.01
 -22 2 -4 -4.42 0.00
 -22 3 4 -5.42 -0.02
 -3 4 22 -5.42 0.00
 -22 3 -4 -5.43 -0.01
 -22 4 4 -1.46 -0.03
 -4 4 22 -1.45 0.00
 -22 4 -4 -1.46 -0.01
 -22 5 4 -4.92 0.00
 -5 4 22 -4.91 0.00
 -22 5 -4 -4.92 0.00
 -6 4 22 -1.56 0.02
 -4 22 6 -1.56 0.00
 -22 6 4 -1.57 0.00
 -22 6 -4 -1.57 -0.01
 -7 4 22 -0.66 0.00
 -4 22 7 -0.66 -0.02
 -22 7 4 -0.66 0.02
 -22 7 -4 -0.66 0.00
 -22 0 -5 2.65 -0.01
 -22 -1 -5 3.34 -0.01
 -22 1 -5 3.34 0.02
 -22 -2 -5 2.20 0.01
 -22 2 5 2.20 0.01
 -22 2 -5 2.20 0.00
 -22 3 5 4.26 0.00
 -22 -3 -5 4.26 0.01
 -3 5 22 4.26 0.00
 -22 3 -5 4.26 -0.01
 -22 4 5 4.91 0.00
 -4 5 22 4.92 0.00
 -5 22 4 4.91 0.00
 -22 4 -5 4.92 0.02
 -5 22 5 0.87 0.01
 -5 5 22 0.87 0.01
 -22 5 5 0.87 0.00
 -22 5 -5 0.87 0.01
 -6 5 22 0.55 0.01
 -22 6 5 0.56 -0.02
 -5 22 6 0.55 0.01
 -22 6 -5 0.56 -0.01
 -22 7 5 0.87 0.03
 -5 22 7 0.87 0.00
 -7 5 22 0.87 0.01
 -22 7 -5 0.88 0.02
 -22 0 -6 -1.97 0.00
 -22 -1 -6 -2.23 0.01
 -22 1 -6 -2.23 0.00
 -22 -2 -6 -2.80 0.02
 -2 6 22 -2.79 -0.01
 -22 2 -6 -2.80 -0.02
 -22 -3 -6 -0.71 0.02
 -3 6 22 -0.71 -0.03
 -6 22 3 -0.71 -0.02
 -22 3 6 -0.71 -0.03
 -22 3 -6 -0.72 -0.03
 -4 6 22 -1.56 0.00
 -22 4 6 -1.57 0.00
 -6 22 4 -1.56 0.01
 -22 4 -6 -1.57 -0.01
 -6 22 5 -0.55 -0.01
 -22 5 6 -0.56 0.02
 -5 6 22 -0.55 -0.01
 -22 5 -6 -0.55 -0.02
 -22 6 6 -2.36 0.01
 -6 22 6 -2.36 -0.01
 -6 6 22 -2.36 -0.01
 -22 6 -6 -2.37 -0.01
 -22 0 -7 1.12 0.00
 -22 -1 -7 0.41 0.00
 -22 1 -7 0.41 0.00
 -22 -2 -7 1.00 -0.01
 -2 7 22 1.01 0.01
 -7 22 2 1.00 0.00
 -22 2 -7 1.01 0.01
 -7 22 3 1.43 0.01
 -22 -3 -7 1.43 -0.01
 -3 7 22 1.43 0.00
 -22 3 7 1.43 0.00
 -22 3 -7 1.43 0.01
 -7 22 4 0.66 0.00
 -4 7 22 0.66 0.02
 -22 4 7 0.66 -0.02
 -22 -4 -7 0.66 0.03
 -22 4 -7 0.66 0.03
 -22 5 7 0.87 0.03
 -5 7 22 0.87 0.00
 -7 22 5 0.87 0.01
 -22 5 -7 0.88 0.01
 -22 0 -8 -0.90 0.00
 -8 22 0 -0.90 0.01
 -22 -1 -8 -0.64 0.02
 -8 22 1 -0.64 0.00
 -1 8 22 -0.64 -0.01
 -22 1 -8 -0.64 0.00
 -2 8 22 -1.05 0.00
 -8 22 2 -1.06 -0.01
 -22 -2 -8 -1.06 0.01
 -22 2 -8 -1.06 -0.01
 -3 8 22 -0.32 -0.01
 -8 22 3 -0.32 0.00
 -22 -3 -8 -0.32 -0.01
 -22 3 -8 -0.32 -0.01
 -23 1 0 -0.63 -0.01
 -23 2 0 -0.24 -0.02
 -23 3 0 -2.99 -0.01
 -4 0 23 -2.14 -0.01
 -23 4 0 -2.14 0.00
 -23 5 0 -1.32 -0.01
 -5 0 23 -1.32 0.00
 -23 0 -1 -0.64 0.00
 -23 2 1 2.31 0.01
 -23 2 -1 2.31 0.00
 -23 3 1 1.18 0.02
 -23 3 -1 1.18 0.02
 -23 4 1 1.07 0.02
 -4 1 23 1.06 -0.02
 -23 4 -1 1.06 -0.02
 -5 1 23 -0.16 -0.02
 -23 5 1 -0.16 0.00
 -5 -1 23 -0.16 0.02
 -23 5 -1 -0.16 0.00
 -23 0 -2 0.24 0.00
 -23 -1 -2 2.31 0.00
 -23 1 2 2.31 0.01
 -23 1 -2 2.31 -0.01
 -23 3 2 -0.43 0.01
 -23 3 -2 -0.43 0.00
 -23 4 2 -2.14 -0.03
 -4 2 23 -2.14 -0.01
 -23 4 -2 -2.14 0.01
 -23 5 2 -0.28 -0.01
 -5 2 23 -0.28 0.01
 -23 5 -2 -0.28 0.01
 -23 0 -3 -2.99 0.01
 -23 -1 -3 -1.18 -0.01
 -23 1 -3 -1.18 0.00
 -23 2 3 -0.43 0.01
 -23 2 -3 -0.43 0.01
 -4 3 23 -0.75 -0.01
 -23 4 3 -0.75 0.00
 -23 4 -3 -0.75 0.00
 -23 0 -4 2.14 0.01
 -23 -1 -4 1.06 0.00
 -23 1 -4 1.06 -0.01
 -23 2 4 2.14 0.03
 -23 -2 -4 2.14 0.00
 -23 2 -4 2.14 -0.02
 -3 4 23 -0.75 0.00
 -23 3 4 -0.75 0.00
 -23 3 -4 -0.75 0.00
 -23 0 -5 -1.32 0.01
 -23 -1 -5 0.16 -0.01
 -23 1 -5 0.16 0.01
 -2 5 23 -0.28 0.01
 -23 -2 -5 -0.28 -0.02
 -23 2 -5 -0.27 0.02
 -23 2 -5 -0.27 0.02
 0 0 0 0.00 0.00
# SQUEEZE RESULTS (APPEND TO CIF)
# Note: Data are Listed for all Voids in the P1 Unit Cell
# i.e. Centre of Gravity, Solvent Accessible Volume,
# Recovered number of Electrons in the Void and
# Details about the Squeezed Material
;
_olex2_submission_special_instructions 'No special instructions were received'
loop_
_space_group_symop_operation_xyz
'x, y, z'
'-x, -y, z'
'-x, y, -z'
'x, -y, -z'
'z, x, y'
'z, -x, -y'
'-z, -x, y'
'-z, x, -y'
'y, z, x'
'-y, z, -x'
'y, -z, -x'
'-y, -z, x'
'y+1/2, x+1/2, -z+1/2'
'-y+1/2, -x+1/2, -z+1/2'
'y+1/2, -x+1/2, z+1/2'
'-y+1/2, x+1/2, z+1/2'
'x+1/2, z+1/2, -y+1/2'
'-x+1/2, z+1/2, y+1/2'
'-x+1/2, -z+1/2, -y+1/2'
'x+1/2, -z+1/2, y+1/2'
'z+1/2, y+1/2, -x+1/2'
'z+1/2, -y+1/2, x+1/2'
'-z+1/2, y+1/2, x+1/2'
'-z+1/2, -y+1/2, -x+1/2'
'-x, -y, -z'
'x, y, -z'
'x, -y, z'
'-x, y, z'
'-z, -x, -y'
'-z, x, y'
'z, x, -y'
'z, -x, y'
'-y, -z, -x'
'y, -z, x'
'-y, z, x'
'y, z, -x'
'-y-1/2, -x-1/2, z-1/2'
'y-1/2, x-1/2, z-1/2'
'-y-1/2, x-1/2, -z-1/2'
'y-1/2, -x-1/2, -z-1/2'
'-x-1/2, -z-1/2, y-1/2'
'x-1/2, -z-1/2, -y-1/2'
'x-1/2, z-1/2, y-1/2'
'-x-1/2, z-1/2, -y-1/2'
'-z-1/2, -y-1/2, x-1/2'
'-z-1/2, y-1/2, -x-1/2'
'z-1/2, -y-1/2, -x-1/2'
'z-1/2, y-1/2, x-1/2'
loop_
_atom_site_label
_atom_site_type_symbol
_atom_site_fract_x
_atom_site_fract_y
_atom_site_fract_z
_atom_site_U_iso_or_equiv
_atom_site_adp_type
_atom_site_occupancy
_atom_site_site_symmetry_order
_atom_site_calc_flag
_atom_site_refinement_flags_posn
_atom_site_refinement_flags_adp
_atom_site_refinement_flags_occupancy
N6 N 0.2500 0.59311(11) 0.09311(11) 0.0465(10) Uani 1 2 d S T P
Na1 Na 0.31514(4) 0.68486(4) 0.31514(4) 0.0165(4) Uani 1 3 d S T P
N5 N 0.29308(15) 0.59468(11) 0.15185(11) 0.0394(7) Uani 1 1 d . . .
Na4 Na 0.5000 0.5000 0.5000 0.229(10) Uani 1 24 d S T P
N1 N 0.31506(17) 0.6900(2) 0.5000 0.0359(8) Uani 1 2 d S T P
Na2 Na 0.5000 0.80469(7) 0.38001(8) 0.0276(4) Uani 1 2 d S T P
N4 N 0.27639(13) 0.65428(11) 0.18904(11) 0.0311(6) Uani 1 1 d . . .
N2 N 0.34965(12) 0.71580(15) 0.44153(11) 0.0390(6) Uani 1 1 d . . .
N3 N 0.40526(12) 0.75665(15) 0.46361(11) 0.0429(7) Uani 1 1 d . . .
O2 O 0.5000 0.9450(4) 0.3970(5) 0.067(2) Uani 0.5 2 d S T P
O1 O 0.5000 0.8887(5) 0.5000 0.061(3) Uani 0.5 4 d S T P
Na3 Na 0.2500 0.5000 0.0000 0.0828(18) Uani 1 8 d S T P
loop_
_atom_site_aniso_label
_atom_site_aniso_U_11
_atom_site_aniso_U_22
_atom_site_aniso_U_33
_atom_site_aniso_U_23
_atom_site_aniso_U_13
_atom_site_aniso_U_12
N6 0.092(3) 0.0236(10) 0.0236(10) -0.0054(12) -0.0222(13) 0.0222(13)
Na1 0.0165(4) 0.0165(4) 0.0165(4) 0.0004(3) -0.0004(3) 0.0004(3)
N5 0.0715(17) 0.0213(11) 0.0253(11) -0.0042(8) -0.0146(11) 0.0155(10)
Na4 0.229(10) 0.229(10) 0.229(10) 0.000 0.000 0.000
N1 0.0261(16) 0.061(2) 0.0208(15) 0.000 0.000 -0.0002(14)
Na2 0.0136(6) 0.0312(8) 0.0381(8) -0.0029(6) 0.000 0.000
N4 0.0504(14) 0.0207(10) 0.0221(10) -0.0028(7) -0.0081(9) 0.0061(9)
N2 0.0309(12) 0.0659(16) 0.0203(11) -0.0004(10) -0.0016(9) -0.0060(11)
N3 0.0254(11) 0.0836(19) 0.0196(10) 0.0014(11) 0.0001(8) -0.0097(12)
O2 0.047(4) 0.045(4) 0.110(6) -0.040(4) 0.000 0.000
O1 0.077(7) 0.045(5) 0.061(6) 0.000 0.000 0.000
Na3 0.208(6) 0.0203(10) 0.0203(10) 0.000 0.000 0.000
loop_
_atom_type_symbol
_atom_type_description
_atom_type_scat_dispersion_real
_atom_type_scat_dispersion_imag
_atom_type_scat_source
N N 0.0061 0.0033 'International Tables Vol C Tables 4.2.6.8 and 6.1.1.4'
Na Na 0.0362 0.0249 'International Tables Vol C Tables 4.2.6.8 and 6.1.1.4'
O O 0.0106 0.0060 'International Tables Vol C Tables 4.2.6.8 and 6.1.1.4'
loop_
_geom_angle_atom_site_label_1
_geom_angle_atom_site_label_2
_geom_angle_atom_site_label_3
_geom_angle
_geom_angle_site_symmetry_1
_geom_angle_site_symmetry_3
N5 N6 N5 108.4(3) . 18_554
N5 N6 Na3 125.83(14) . .
N5 N6 Na3 125.82(14) 18_554 .
Na1 Na1 Na2 109.06(3) 13_455 33_666
Na1 Na1 Na2 109.06(3) 13_455 .
Na1 Na1 Na2 109.06(3) 13_455 6_566
Na2 Na1 Na2 109.88(3) 33_666 .
Na2 Na1 Na2 109.88(3) 6_566 33_666
Na2 Na1 Na2 109.88(3) 6_566 .
N4 Na1 Na1 55.08(6) . 13_455
N4 Na1 Na1 55.08(6) 12_665 13_455
N4 Na1 Na1 55.08(6) 6_566 13_455
N4 Na1 Na2 122.44(6) 12_665 6_566
N4 Na1 Na2 54.07(5) 12_665 .
N4 Na1 Na2 127.68(6) 6_566 6_566
N4 Na1 Na2 127.68(6) . .
N4 Na1 Na2 54.07(5) . 6_566
N4 Na1 Na2 122.44(6) . 33_666
N4 Na1 Na2 127.68(6) 12_665 33_666
N4 Na1 Na2 122.44(6) 6_566 .
N4 Na1 Na2 54.07(5) 6_566 33_666
N4 Na1 N4 90.48(8) 12_665 .
N4 Na1 N4 90.48(8) 12_665 6_566
N4 Na1 N4 90.48(8) 6_566 .
N2 Na1 Na1 123.87(7) 12_665 13_455
N2 Na1 Na1 123.87(7) . 13_455
N2 Na1 Na1 123.87(7) 6_566 13_455
N2 Na1 Na2 53.74(6) 12_665 33_666
N2 Na1 Na2 127.05(8) 6_566 33_666
N2 Na1 Na2 56.15(6) . 33_666
N2 Na1 Na2 56.15(6) 12_665 6_566
N2 Na1 Na2 56.15(6) 6_566 .
N2 Na1 Na2 53.74(6) 6_566 6_566
N2 Na1 Na2 127.05(8) . 6_566
N2 Na1 Na2 127.05(8) 12_665 .
N2 Na1 Na2 53.74(6) . .
N2 Na1 N4 87.76(7) 12_665 .
N2 Na1 N4 178.22(8) . .
N2 Na1 N4 89.82(8) 6_566 .
N2 Na1 N4 89.81(8) . 12_665
N2 Na1 N4 178.22(8) 6_566 6_566
N2 Na1 N4 178.22(8) 12_665 12_665
N2 Na1 N4 87.76(7) . 6_566
N2 Na1 N4 87.76(7) 6_566 12_665
N2 Na1 N4 89.81(8) 12_665 6_566
N2 Na1 N2 91.95(10) 12_665 .
N2 Na1 N2 91.95(10) 12_665 6_566
N2 Na1 N2 91.95(10) 6_566 .
N6 N5 Na2 128.46(16) . 6_566
N4 N5 N6 107.2(2) . .
N4 N5 Na2 123.99(16) . 6_566
N2 N1 Na2 126.16(15) 26_556 33_666
N2 N1 Na2 126.17(15) . 33_666
N2 N1 N2 107.1(3) 26_556 .
Na1 Na2 Na1 107.21(4) . 28_655
N5 Na2 Na1 54.86(5) 34_565 28_655
N5 Na2 Na1 123.22(8) 34_565 .
N5 Na2 Na1 54.86(5) 12_665 .
N5 Na2 Na1 123.22(8) 12_665 28_655
N5 Na2 N5 88.51(13) 12_665 34_565
N5 Na2 N1 87.32(9) 12_665 29_666
N5 Na2 N1 87.32(9) 34_565 29_666
N5 Na2 O2 76.06(15) 34_565 .
N5 Na2 O2 76.06(15) 12_665 .
N5 Na2 O1 109.96(13) 12_665 .
N5 Na2 O1 109.96(13) 34_565 .
N1 Na2 Na1 53.627(18) 29_666 .
N1 Na2 Na1 53.627(18) 29_666 28_655
N1 Na2 O2 156.6(2) 29_666 .
N1 Na2 O1 155.29(19) 29_666 .
N3 Na2 Na1 123.60(8) . 28_655
N3 Na2 Na1 54.91(5) . .
N3 Na2 Na1 123.60(8) 28_655 .
N3 Na2 Na1 54.91(5) 28_655 28_655
N3 Na2 N5 91.20(8) . 12_665
N3 Na2 N5 177.61(10) 28_655 12_665
N3 Na2 N5 91.20(8) 28_655 34_565
N3 Na2 N5 177.61(10) . 34_565
N3 Na2 N1 90.30(9) . 29_666
N3 Na2 N1 90.30(9) 28_655 29_666
N3 Na2 N3 88.99(11) 28_655 .
N3 Na2 O2 106.17(15) . .
N3 Na2 O2 106.17(15) 28_655 .
N3 Na2 O1 72.36(13) . .
N3 Na2 O1 72.36(13) 28_655 .
O2 Na2 Na1 123.51(6) . 28_655
O2 Na2 Na1 123.51(6) . .
O2 Na2 O1 48.1(3) . .
O1 Na2 Na1 122.05(6) . .
O1 Na2 Na1 122.05(6) . 28_655
N5 N4 Na1 126.86(16) . .
N4 N4 Na1 123.32(8) 18_554 .
N4 N4 N5 108.59(13) 18_554 .
N1 N2 Na1 123.49(18) . .
N3 N2 Na1 127.77(16) . .
N3 N2 N1 108.7(2) . .
N2 N3 Na2 123.35(16) . .
N2 N3 N3 107.75(13) . 26_556
N3 N3 Na2 128.20(6) 26_556 .
Na2 O2 Na3 103.6(2) . 9_565
Na2 O1 Na2 110.0(3) 26_556 .
N6 Na3 N6 180.00(14) 4_565 .
N6 Na3 N6 90.0 4_565 27_565
N6 Na3 N6 90.0 26 .
N6 Na3 N6 90.0 4_565 26
N6 Na3 N6 180.00(14) 27_565 26
N6 Na3 N6 90.0 27_565 .
N6 Na3 O2 75.66(8) 4_565 46_656
N6 Na3 O2 75.66(8) 27_565 6_566
N6 Na3 O2 75.66(8) 27_565 46_656
N6 Na3 O2 75.66(8) 4_565 5_554
N6 Na3 O2 75.66(8) . 6_566
N6 Na3 O2 104.34(8) 27_565 45_675
N6 Na3 O2 104.34(8) . 5_554
N6 Na3 O2 75.66(8) 26 45_675
N6 Na3 O2 104.34(8) 26 46_656
N6 Na3 O2 104.34(8) 26 6_566
N6 Na3 O2 104.34(8) 4_565 45_675
N6 Na3 O2 104.34(8) 27_565 5_554
N6 Na3 O2 104.34(8) 4_565 6_566
N6 Na3 O2 75.66(8) . 45_675
N6 Na3 O2 104.34(8) . 46_656
N6 Na3 O2 75.66(8) 26 5_554
O2 Na3 O2 151.33(17) 5_554 45_675
O2 Na3 O2 41.0(2) 6_566 5_554
O2 Na3 O2 151.33(17) 6_566 45_675
O2 Na3 O2 151.33(17) 46_656 6_566
O2 Na3 O2 41.0(2) 46_656 45_675
O2 Na3 O2 151.33(17) 46_656 5_554
loop_
_geom_bond_atom_site_label_1
_geom_bond_atom_site_label_2
_geom_bond_distance
_geom_bond_site_symmetry_2
N6 N5 1.329(3) .
N6 N5 1.329(3) 18_554
N6 Na3 2.402(3) .
Na1 Na1 4.116(4) 13_455
Na1 Na2 4.188(2) .
Na1 Na2 4.188(2) 6_566
Na1 Na2 4.188(2) 33_666
Na1 N4 2.470(3) 6_566
Na1 N4 2.470(3) .
Na1 N4 2.470(3) 12_665
Na1 N2 2.455(3) 6_566
Na1 N2 2.455(3) .
Na1 N2 2.455(3) 12_665
N5 Na2 2.475(3) 6_566
N5 N4 1.317(3) .
N1 Na2 2.530(4) 33_666
N1 N2 1.325(3) .
N1 N2 1.325(3) 26_556
Na2 Na1 4.188(2) 28_655
Na2 N5 2.475(3) 12_665
Na2 N5 2.475(3) 34_565
Na2 N1 2.530(4) 29_666
Na2 N3 2.465(3) .
Na2 N3 2.465(3) 28_655
Na2 O2 2.578(7) .
Na2 O1 2.671(6) .
N4 N4 1.315(4) 18_554
N2 N3 1.321(3) .
N3 N3 1.327(4) 26_556
O2 Na3 2.863(9) 9_565
O1 Na2 2.671(6) 26_556
Na3 N6 2.402(3) 4_565
Na3 N6 2.402(3) 27_565
Na3 N6 2.402(3) 26
Na3 O2 2.863(9) 45_675
Na3 O2 2.863(9) 46_656
Na3 O2 2.863(9) 5_554
Na3 O2 2.863(9) 6_566
loop_
_platon_squeeze_void_nr
_platon_squeeze_void_average_x
_platon_squeeze_void_average_y
_platon_squeeze_void_average_z
_platon_squeeze_void_volume
_platon_squeeze_void_count_electrons
_platon_squeeze_void_content
1 0.000 0.500 0.250 270 79 ' '
2 0.000 0.500 0.750 270 79 ' '
3 0.250 0.000 0.500 270 79 ' '
4 0.500 0.250 0.000 270 79 ' '
5 0.500 0.750 0.000 270 79 ' '
6 0.750 0.000 0.500 270 79 ' '
