#------------------------------------------------------------------------------
#$Date: 2019-11-17 13:07:58 +0200 (Sun, 17 Nov 2019) $
#$Revision: 230053 $
#$URL: file:///home/coder/svn-repositories/cod/cif/7/04/56/7045602.cif $
#------------------------------------------------------------------------------
#
# This file is available in the Crystallography Open Database (COD),
# http://www.crystallography.net/
#
# All data on this site have been placed in the public domain by the
# contributors.
#
data_7045602
loop_
_publ_author_name
'Yu, Hao'
'Wang, Jing'
'Guo, Xiangyang'
'Zhang, Rong'
'He, Cheng'
'Duan, Chunying'
_publ_section_title
;
 Diversity of metal-organic macrocycles assembled from carbazole based
 ligands with different lengths.
;
_journal_issue                   12
_journal_name_full
'Dalton transactions (Cambridge, England : 2003)'
_journal_page_first              4040
_journal_page_last               4044
_journal_paper_doi               10.1039/c8dt00252e
_journal_volume                  47
_journal_year                    2018
_chemical_formula_moiety         C31H25N7
_chemical_formula_sum            'C145 H138 Cl8 N37 Ni4 O34.5'
_chemical_formula_weight         3469.36
_chemical_name_systematic        Ni-LA2
_space_group_crystal_system      monoclinic
_space_group_IT_number           14
_space_group_name_Hall           '-P 2ybc'
_space_group_name_H-M_alt        'P 1 21/c 1'
_symmetry_space_group_name_Hall  '-P 2ybc'
_symmetry_space_group_name_H-M   'P 1 21/c 1'
_atom_sites_solution_hydrogens   mixed
_audit_creation_method           SHELXL-2014
_audit_update_record
;
2018-02-05 deposited with the CCDC.
2018-02-06 downloaded from the CCDC.
;
_cell_angle_alpha                90
_cell_angle_beta                 96.0320(10)
_cell_angle_gamma                90
_cell_formula_units_Z            4
_cell_length_a                   34.4264(7)
_cell_length_b                   13.9708(2)
_cell_length_c                   33.5419(6)
_cell_measurement_reflns_used    6394
_cell_measurement_temperature    200(2)
_cell_measurement_theta_max      22.03
_cell_measurement_theta_min      2.17
_cell_volume                     16043.1(5)
_computing_cell_refinement       'Bruker SMART'
_computing_data_collection       'Bruker SMART'
_computing_data_reduction        'Bruker SAINT'
_computing_molecular_graphics    'Bruker SHELXTL'
_computing_publication_material  'Bruker SHELXTL'
_computing_structure_refinement  'SHELXL-2014 (Sheldrick, 2014)'
_computing_structure_solution    'Bruker SHELXTL'
_diffrn_ambient_temperature      200(2)
_diffrn_measured_fraction_theta_full 0.969
_diffrn_measured_fraction_theta_max 0.995
_diffrn_measurement_device_type  'CCD area detector'
_diffrn_measurement_method       'phi and omega scans'
_diffrn_radiation_type           MoK\a
_diffrn_radiation_wavelength     0.71073
_diffrn_reflns_av_R_equivalents  0.0564
_diffrn_reflns_av_unetI/netI     0.0943
_diffrn_reflns_Laue_measured_fraction_full 0.969
_diffrn_reflns_Laue_measured_fraction_max 0.995
_diffrn_reflns_limit_h_max       40
_diffrn_reflns_limit_h_min       -37
_diffrn_reflns_limit_k_max       16
_diffrn_reflns_limit_k_min       -15
_diffrn_reflns_limit_l_max       39
_diffrn_reflns_limit_l_min       -29
_diffrn_reflns_number            57872
_diffrn_reflns_point_group_measured_fraction_full 0.969
_diffrn_reflns_point_group_measured_fraction_max 0.995
_diffrn_reflns_theta_full        25.242
_diffrn_reflns_theta_max         25.000
_diffrn_reflns_theta_min         1.613
_exptl_absorpt_coefficient_mu    0.681
_exptl_absorpt_correction_type   none
_exptl_crystal_colour            YELLOW
_exptl_crystal_density_diffrn    1.436
_exptl_crystal_description       SQUARE-SHAPED
_exptl_crystal_F_000             7164
_exptl_crystal_recrystallization_method
'Re-crystallisation from solvent: CH3CN/CH3OH'
_exptl_crystal_size_max          0.240
_exptl_crystal_size_mid          0.240
_exptl_crystal_size_min          0.150
_refine_diff_density_max         0.918
_refine_diff_density_min         -0.726
_refine_diff_density_rms         0.093
_refine_ls_extinction_method     none
_refine_ls_goodness_of_fit_ref   0.999
_refine_ls_hydrogen_treatment    constr
_refine_ls_matrix_type           full
_refine_ls_number_parameters     2038
_refine_ls_number_reflns         28131
_refine_ls_number_restraints     37
_refine_ls_restrained_S_all      1.005
_refine_ls_R_factor_all          0.1465
_refine_ls_R_factor_gt           0.0769
_refine_ls_shift/su_max          0.009
_refine_ls_shift/su_mean         0.000
_refine_ls_structure_factor_coef Fsqd
_refine_ls_weighting_details
'w=1/[\s^2^(Fo^2^)+(0.1265P)^2^] where P=(Fo^2^+2Fc^2^)/3'
_refine_ls_weighting_scheme      calc
_refine_ls_wR_factor_gt          0.1992
_refine_ls_wR_factor_ref         0.2319
_reflns_Friedel_coverage         0.000
_reflns_number_gt                15253
_reflns_number_total             28131
_reflns_threshold_expression     'I > 2\s(I)'
_cod_data_source_file            c8dt00252e2.cif
_cod_data_source_block           NILA222
_cod_depositor_comments
'Adding full bibliography for 7045601--7045603.cif.'
_cod_original_formula_sum        'C145 H138 Cl8 N37 Ni4 O34.50'
_cod_database_code               7045602
_shelx_space_group_comment
;
The symmetry employed for this shelxl refinement is uniquely defined
by the following loop, which should always be used as a source of
symmetry information in preference to the above space-group names.
They are only intended as comments.
;
_shelx_estimated_absorpt_t_min   0.854
_shelx_estimated_absorpt_t_max   0.905
_shelxl_version_number           2014-3
_shelx_res_file
;
TITL 1 in P2(1)/c
CELL 0.71073  34.4264  13.9708  33.5419  90.000  96.032  90.000
ZERR  4.00   0.0007   0.0002   0.0006   0.000   0.001   0.000
LATT  1
SYMM -X, 0.5+Y, 0.5-Z
SFAC C H N O NI Cl
UNIT 580 552 148 138 16 32
TEMP 23.000
size 0.15 0.24 0.24
omit 0 50

L.S. 160
BOND
FMAP 2
PLAN 60
ACTA
OMIT 0 50

OMIT     3   1   1
OMIT    -7   2   4
OMIT     6   3   0
OMIT   2   2   0
OMIT      4   1   1
OMIT      0   1   2
OMIT     -8   1   4
OMIT      3   1   0
OMIT     -6   0   6
OMIT     1   1   2
OMIT     2   1   1
OMIT     1   1   3
OMIT    -3   1   1
OMIT    -6   1   6
OMIT     5   1   0
OMIT     4   3   8

DAMP 1000
DFIX 1.39 0.02 C88 C89 C89 C90' C90' C91' C91' C92' C92' C93' C93' C88
DFIX 2.78 0.02 C88 C91' C89 C92' C90' C93'

dfix 3.10 o1 o210

DELU 0.01 N36 C140 C121 C122 C53 C54

EXYZ N31 O1
EADP N31 O1

SIMU 0.01 0.04 2.80 C129 C130 N31
DFIX 1.45 0.02 C130 C129 C130 C29'

DFIX 1.50 0.02 C210 C211 C211 O210 O210 C212 C212 C213

DFIX 2.80 0.02 C210 C29'

BUMP 0.05

WGHT    0.126500
FVAR       0.03184
NI1   5    0.401456   -0.307724   -0.023020    11.00000    0.03826    0.03335 =
         0.04415    0.00518    0.00027    0.00366
NI2   5    0.140961    0.002685   -0.209075    11.00000    0.03259    0.05002 =
         0.04298    0.00476   -0.00051    0.00399
NI3   5   -0.363458    1.007056   -0.183066    11.00000    0.02774    0.03612 =
         0.04063   -0.00062    0.00407    0.00008
NI4   5   -0.090856    0.684476   -0.020187    11.00000    0.04105    0.03298 =
         0.03810    0.00480    0.00895    0.00031
N1    3    0.381189    0.173836   -0.182643    11.00000    0.04085    0.04049 =
         0.03648    0.01293    0.00165   -0.00896
N2    3    0.389525   -0.198829   -0.064942    11.00000    0.03621    0.03532 =
         0.03377   -0.00139    0.00661    0.00095
N3    3    0.358482   -0.222356   -0.092154    11.00000    0.04513    0.03423 =
         0.03356    0.00947   -0.00593   -0.00342
AFIX  43
H3A   2    0.349729   -0.182589   -0.110511    11.00000   -1.20000
AFIX   0
N4    3    0.355671   -0.366926   -0.058842    11.00000    0.03948    0.03034 =
         0.04225   -0.00184    0.00838    0.00151
N5    3    0.200502    0.028248   -0.201920    11.00000    0.03036    0.04625 =
         0.03904    0.00800   -0.00019    0.00449
N6    3    0.221117   -0.056162   -0.195381    11.00000    0.02937    0.05086 =
         0.05460    0.00005    0.00400    0.00009
AFIX  43
H6A   2    0.246174   -0.056919   -0.194460    11.00000   -1.20000
AFIX   0
N7    3    0.161768   -0.131071   -0.193804    11.00000    0.03205    0.04378 =
         0.03384    0.00191    0.00346   -0.00060
N8    3    0.295169    0.099183   -0.065345    11.00000    0.03734    0.02574 =
         0.03544    0.00239    0.00769   -0.00491
N9    3    0.359388   -0.289004    0.019636    11.00000    0.05098    0.02963 =
         0.04096    0.00727    0.00270    0.00273
N10   3    0.362691   -0.365099    0.045867    11.00000    0.06645    0.05040 =
         0.05745    0.02338    0.01410    0.01311
AFIX  43
H10A  2    0.346984   -0.369498    0.064099    11.00000   -1.20000
AFIX   0
N11   3    0.412667   -0.424487    0.013270    11.00000    0.04377    0.03576 =
         0.06051    0.00780   -0.00574    0.00593
N12   3    0.122634    0.003253   -0.148812    11.00000    0.02833    0.06325 =
         0.05388   -0.00316    0.00982   -0.00203
N13   3    0.083521   -0.020751   -0.151679    11.00000    0.03446    0.11759 =
         0.04924   -0.00471    0.00778   -0.01771
AFIX  43
H13A  2    0.072323   -0.029099   -0.130200    11.00000   -1.20000
AFIX   0
N14   3    0.082360   -0.030055   -0.219777    11.00000    0.03682    0.05983 =
         0.05267   -0.00031   -0.00420    0.00316
N15   3   -0.122175    1.157444   -0.182843    11.00000    0.03081    0.04935 =
         0.04009    0.01590    0.00166   -0.00808
N16   3   -0.108155    0.799072   -0.057898    11.00000    0.03354    0.04053 =
         0.03438    0.00129    0.00369   -0.00739
N17   3   -0.144148    0.783543   -0.078098    11.00000    0.03635    0.03871 =
         0.05654    0.00890   -0.00119   -0.01075
AFIX  43
H17B  2   -0.155484    0.827118   -0.093252    11.00000   -1.20000
AFIX   0
N18   3   -0.142195    0.633814   -0.049679    11.00000    0.05471    0.03912 =
         0.04029   -0.00094    0.00992   -0.01628
N19   3   -0.303220    1.027857   -0.182052    11.00000    0.03001    0.04506 =
         0.02874    0.00262    0.00225    0.00236
N20   3   -0.283585    0.942665   -0.175627    11.00000    0.02461    0.03979 =
         0.05309   -0.00175   -0.00212    0.00888
AFIX  43
H20A  2   -0.258534    0.941542   -0.171081    11.00000   -1.20000
AFIX   0
N21   3   -0.343666    0.867380   -0.181092    11.00000    0.04159    0.03459 =
         0.03758    0.00027    0.00368   -0.00561
N22   3   -0.193781    1.099383   -0.046105    11.00000    0.03416    0.02746 =
         0.03722    0.00095    0.00618   -0.00590
N23   3   -0.123527    0.704982    0.029946    11.00000    0.04159    0.03454 =
         0.03908    0.00707    0.00885    0.00545
N24   3   -0.118382    0.626908    0.054431    11.00000    0.06706    0.04633 =
         0.05616    0.02336    0.03202    0.02099
AFIX  43
H24B  2   -0.130531    0.623880    0.075527    11.00000   -1.20000
AFIX   0
N25   3   -0.077165    0.561597    0.012232    11.00000    0.04798    0.04338 =
         0.05080    0.00909    0.01517    0.01000
N26   3   -0.369109    0.981310   -0.119567    11.00000    0.02680    0.04750 =
         0.04333   -0.00489    0.00879   -0.00723
N27   3   -0.406151    0.940975   -0.118233    11.00000    0.03171    0.09574 =
         0.04952    0.00669    0.00742   -0.02310
AFIX  43
H27B  2   -0.411460    0.910697   -0.097150    11.00000   -1.20000
AFIX   0
N28   3   -0.421958    0.978215   -0.184379    11.00000    0.02881    0.04725 =
         0.04890   -0.00450   -0.00104   -0.00025
N29   3    0.443100   -0.346866   -0.061099    11.00000    0.03792    0.06007 =
         0.06012   -0.00276    0.00226    0.01468
N30   3    0.441519   -0.228782    0.012286    11.00000    0.04194    0.04671 =
         0.05238    0.01278   -0.00789   -0.00242
N32   3    0.149139   -0.019136   -0.269736    11.00000    0.04487    0.07556 =
         0.04332    0.01266    0.00141   -0.00539
N33   3   -0.367634    1.013171   -0.245057    11.00000    0.04762    0.04597 =
         0.04072   -0.00021    0.00036   -0.00206
N34   3   -0.375497    1.149087   -0.180363    11.00000    0.03218    0.04443 =
         0.05478   -0.00022    0.00574    0.00870
N35   3   -0.043223    0.755718    0.008198    11.00000    0.04382    0.04184 =
         0.04323    0.01148    0.00668    0.00403
N36   3   -0.059095    0.642718   -0.066696    11.00000    0.05975    0.06193 =
         0.05427   -0.00367    0.02957   -0.00422
C1    1    0.392640    0.106375   -0.153972    11.00000    0.03996    0.03645 =
         0.03646   -0.00590    0.00616   -0.00890
C2    1    0.429648    0.084767   -0.134940    11.00000    0.03312    0.03861 =
         0.04331    0.00401    0.01015   -0.01422
AFIX  43
H2A   2    0.451526    0.119066   -0.140706    11.00000   -1.20000
AFIX   0
C3    1    0.432879    0.011199   -0.107366    11.00000    0.03714    0.04433 =
         0.03855   -0.00264    0.00264   -0.00890
AFIX  43
H3B   2    0.457274   -0.002639   -0.093986    11.00000   -1.20000
AFIX   0
C4    1    0.400757   -0.043127   -0.098889    11.00000    0.03523    0.02936 =
         0.03697   -0.00133    0.00947   -0.00139
C5    1    0.363424   -0.020624   -0.117469    11.00000    0.03540    0.03087 =
         0.03178   -0.00579    0.00871   -0.00403
AFIX  43
H5A   2    0.341686   -0.055680   -0.111858    11.00000   -1.20000
AFIX   0
C6    1    0.359660    0.055059   -0.144386    11.00000    0.03442    0.03251 =
         0.02890    0.00036    0.00910   -0.00399
C7    1    0.341640    0.166788   -0.192155    11.00000    0.03868    0.04575 =
         0.03875    0.01198    0.00268   -0.00247
C8    1    0.316836    0.219602   -0.218941    11.00000    0.05217    0.06365 =
         0.05623    0.02452    0.00169   -0.01515
AFIX  43
H8A   2    0.326357    0.268512   -0.234017    11.00000   -1.20000
AFIX   0
C9    1    0.277803    0.197519   -0.222536    11.00000    0.05020    0.05865 =
         0.06109    0.02529    0.00328    0.00150
AFIX  43
H9A   2    0.260759    0.233622   -0.239866    11.00000   -1.20000
AFIX   0
C10   1    0.262518    0.122113   -0.200944    11.00000    0.03920    0.04526 =
         0.04356    0.01348    0.00591    0.00045
C11   1    0.287859    0.072562   -0.173474    11.00000    0.03868    0.03927 =
         0.03441    0.00773    0.00253   -0.00384
AFIX  43
H11A  2    0.278315    0.024743   -0.157855    11.00000   -1.20000
AFIX   0
C12   1    0.326894    0.093779   -0.169257    11.00000    0.03758    0.03750 =
         0.03254    0.00474    0.00707   -0.00199
C13   1    0.408120   -0.119008   -0.068958    11.00000    0.02779    0.03772 =
         0.03544   -0.00002    0.00019    0.00276
AFIX  43
H13B  2    0.429335   -0.108512   -0.049914    11.00000   -1.20000
AFIX   0
C14   1    0.341557   -0.311633   -0.089389    11.00000    0.03828    0.03888 =
         0.03677    0.00180    0.00924    0.00004
C15   1    0.310599   -0.339555   -0.116244    11.00000    0.05260    0.05371 =
         0.04324    0.01349   -0.00903   -0.01221
AFIX  43
H15A  2    0.301708   -0.300552   -0.137757    11.00000   -1.20000
AFIX   0
C16   1    0.293227   -0.425746   -0.110617    11.00000    0.05420    0.05098 =
         0.06019    0.00397   -0.00403   -0.01948
AFIX  43
H16A  2    0.272107   -0.445644   -0.128237    11.00000   -1.20000
AFIX   0
C17   1    0.306760   -0.482196   -0.079384    11.00000    0.05499    0.03736 =
         0.06383   -0.00404    0.00416   -0.01091
AFIX  43
H17A  2    0.295039   -0.540891   -0.075360    11.00000   -1.20000
AFIX   0
C18   1    0.337610   -0.452037   -0.054065    11.00000    0.05193    0.02810 =
         0.06152    0.00680    0.00023    0.00351
AFIX  43
H18A  2    0.346756   -0.491021   -0.032634    11.00000   -1.20000
AFIX   0
C19   1    0.220255    0.106971   -0.206134    11.00000    0.04408    0.05072 =
         0.04725    0.01948    0.00245    0.00539
AFIX  43
H19A  2    0.205322    0.160858   -0.213459    11.00000   -1.20000
AFIX   0
C20   1    0.200807   -0.137875   -0.190449    11.00000    0.03310    0.04661 =
         0.02934   -0.00300   -0.00372    0.00130
C21   1    0.220080   -0.223475   -0.181947    11.00000    0.03776    0.04064 =
         0.06413   -0.00842   -0.00438    0.00221
AFIX  43
H21A  2    0.247087   -0.227172   -0.181595    11.00000   -1.20000
AFIX   0
C22   1    0.198977   -0.301917   -0.174133    11.00000    0.05223    0.04835 =
         0.06159   -0.00323   -0.00554    0.00941
AFIX  43
H22A  2    0.211411   -0.359916   -0.167884    11.00000   -1.20000
AFIX   0
C23   1    0.158573   -0.294862   -0.175546    11.00000    0.05986    0.04937 =
         0.04635   -0.00264   -0.00652   -0.00727
AFIX  43
H23A  2    0.143556   -0.347456   -0.169823    11.00000   -1.20000
AFIX   0
C24   1    0.141632   -0.209360   -0.185478    11.00000    0.03433    0.05690 =
         0.04485   -0.00036    0.00165   -0.00158
AFIX  43
H24A  2    0.114590   -0.204787   -0.186574    11.00000   -1.20000
AFIX   0
C25   1    0.407455    0.240517   -0.199364    11.00000    0.04875    0.03750 =
         0.04614    0.01277    0.00742   -0.00861
AFIX  23
H25A  2    0.425949    0.264516   -0.177874    11.00000   -1.20000
H25B  2    0.392404    0.294559   -0.210662    11.00000   -1.20000
AFIX   0
C26   1    0.429798    0.197797   -0.231355    11.00000    0.06121    0.04513 =
         0.04339    0.01300    0.00797   -0.00325
C27   1    0.463099    0.244502   -0.241308    11.00000    0.10042    0.06753 =
         0.10388    0.00543    0.05874   -0.01871
AFIX  43
H27A  2    0.471420    0.300613   -0.228146    11.00000   -1.20000
AFIX   0
C28   1    0.483879    0.206998   -0.270989    11.00000    0.14805    0.09726 =
         0.12890    0.01320    0.10407   -0.02077
AFIX  43
H28A  2    0.506856    0.236147   -0.276956    11.00000   -1.20000
AFIX   0
C29   1    0.469955    0.124590   -0.291993    11.00000    0.18133    0.07803 =
         0.07782    0.01249    0.07252    0.00426
AFIX  43
H29B  2    0.482953    0.101413   -0.312942    11.00000   -1.20000
AFIX   0
C30   1    0.437928    0.079153   -0.281917    11.00000    0.10653    0.05875 =
         0.05883    0.00943    0.02016    0.00428
AFIX  43
H30A  2    0.429395    0.023570   -0.295364    11.00000   -1.20000
AFIX   0
C31   1    0.417384    0.115135   -0.251288    11.00000    0.06903    0.06403 =
         0.05525    0.01836   -0.00171    0.01283
AFIX  43
H31A  2    0.395341    0.083263   -0.244374    11.00000   -1.20000
AFIX   0
C32   1    0.308075    0.020898   -0.042606    11.00000    0.04017    0.02904 =
         0.02650    0.00149    0.00681   -0.00144
C33   1    0.344883    0.004354   -0.021892    11.00000    0.03498    0.03187 =
         0.03558    0.00105    0.00891   -0.00776
AFIX  43
H33A  2    0.364646    0.049891   -0.021215    11.00000   -1.20000
AFIX   0
C34   1    0.350595   -0.082027   -0.002592    11.00000    0.03777    0.03277 =
         0.03330    0.00002    0.00598    0.00619
AFIX  43
H34A  2    0.374796   -0.094775    0.011437    11.00000   -1.20000
AFIX   0
C35   1    0.321326   -0.151290   -0.003318    11.00000    0.04048    0.02897 =
         0.02946    0.00077    0.00827    0.00596
C36   1    0.284338   -0.132529   -0.023493    11.00000    0.04269    0.02759 =
         0.03879   -0.00366    0.01692   -0.00727
AFIX  43
H36A  2    0.264304   -0.177079   -0.023144    11.00000   -1.20000
AFIX   0
C37   1    0.278031   -0.047415   -0.043818    11.00000    0.03207    0.02352 =
         0.02951   -0.00280    0.01008   -0.00340
C38   1    0.256366    0.084888   -0.080473    11.00000    0.02722    0.02840 =
         0.03930   -0.00399    0.00869   -0.00274
C39   1    0.231308    0.144118   -0.104150    11.00000    0.03497    0.02915 =
         0.04480    0.00492    0.00968   -0.00211
AFIX  43
H39A  2    0.239355    0.204269   -0.111861    11.00000   -1.20000
AFIX   0
C40   1    0.194027    0.111418   -0.116005    11.00000    0.03812    0.03854 =
         0.04117    0.00437    0.00715    0.00656
AFIX  43
H40A  2    0.176993    0.149339   -0.132572    11.00000   -1.20000
AFIX   0
C41   1    0.181327    0.021028   -0.103325    11.00000    0.03449    0.04085 =
         0.03537   -0.00717    0.01127   -0.00299
C42   1    0.206639   -0.037102   -0.078828    11.00000    0.03984    0.03418 =
         0.03793   -0.00513    0.00983   -0.00706
AFIX  43
H42A  2    0.198210   -0.095927   -0.070019    11.00000   -1.20000
AFIX   0
C43   1    0.244400   -0.006347   -0.067775    11.00000    0.03716    0.02622 =
         0.03231   -0.00358    0.01168   -0.00663
C44   1    0.327764   -0.240806    0.018999    11.00000    0.05046    0.03196 =
         0.03986    0.00427    0.01111   -0.00240
AFIX  43
H44A  2    0.308004   -0.263651    0.033343    11.00000   -1.20000
AFIX   0
C45   1    0.390155   -0.432601    0.043340    11.00000    0.04638    0.03564 =
         0.04859    0.01158   -0.01280   -0.00792
C46   1    0.393720   -0.507357    0.070911    11.00000    0.06242    0.04748 =
         0.07866    0.03252   -0.00841   -0.00780
AFIX  43
H46A  2    0.378260   -0.510187    0.092012    11.00000   -1.20000
AFIX   0
C47   1    0.421236   -0.577423    0.065662    11.00000    0.06086    0.04978 =
         0.11346    0.03789   -0.01978   -0.00023
AFIX  43
H47A  2    0.423741   -0.629999    0.082744    11.00000   -1.20000
AFIX   0
C48   1    0.445239   -0.569067    0.034672    11.00000    0.04742    0.05949 =
         0.11715    0.02248   -0.00396    0.01696
AFIX  43
H48A  2    0.463980   -0.615444    0.031241    11.00000   -1.20000
AFIX   0
C49   1    0.440826   -0.491601    0.009360    11.00000    0.04595    0.04168 =
         0.10209    0.00945   -0.00187    0.01092
AFIX  43
H49A  2    0.457279   -0.484797   -0.010745    11.00000   -1.20000
AFIX   0
C50   1    0.141430   -0.010252   -0.114315    11.00000    0.03942    0.05467 =
         0.04053    0.00136    0.01145   -0.00579
AFIX  43
H50A  2    0.128742   -0.042106   -0.095068    11.00000   -1.20000
AFIX   0
C51   1    0.062889   -0.031148   -0.187413    11.00000    0.03463    0.06420 =
         0.06715   -0.00068    0.00850   -0.00307
C52   1    0.022221   -0.042193   -0.190015    11.00000    0.03309    0.10430 =
         0.07585   -0.01149    0.00440   -0.00192
AFIX  43
H52A  2    0.009199   -0.043402   -0.167091    11.00000   -1.20000
AFIX   0
C53   1    0.002202   -0.051175   -0.227474    11.00000    0.03636    0.10651 =
         0.11590   -0.00304   -0.01608   -0.00638
AFIX  43
H53A  2   -0.024754   -0.059401   -0.230389    11.00000   -1.20000
AFIX   0
C54   1    0.022496   -0.047849   -0.260521    11.00000    0.05295    0.12027 =
         0.07643    0.00298   -0.02302    0.00358
AFIX  43
H54A  2    0.009241   -0.052258   -0.286082    11.00000   -1.20000
AFIX   0
C55   1    0.061413   -0.038248   -0.255938    11.00000    0.04607    0.08090 =
         0.05834    0.00231   -0.01345    0.01293
AFIX  43
H55A  2    0.074616   -0.037178   -0.278742    11.00000   -1.20000
AFIX   0
C56   1    0.316474    0.190423   -0.066435    11.00000    0.03624    0.03386 =
         0.05137    0.00980    0.00784   -0.01055
AFIX  23
H56A  2    0.306839    0.225589   -0.090388    11.00000   -1.20000
H56B  2    0.343998    0.177482   -0.067706    11.00000   -1.20000
AFIX   0
C57   1    0.311669    0.250491   -0.030148    11.00000    0.04789    0.02492 =
         0.04884    0.00303    0.00579   -0.01370
C58   1    0.340102    0.247684    0.002140    11.00000    0.06384    0.03604 =
         0.07267   -0.01156    0.00151   -0.00659
AFIX  43
H58A  2    0.362614    0.211709    0.000534    11.00000   -1.20000
AFIX   0
C59   1    0.335235    0.299208    0.037699    11.00000    0.08707    0.04904 =
         0.07492   -0.01436    0.00206   -0.01439
AFIX  43
H59A  2    0.354079    0.297293    0.059686    11.00000   -1.20000
AFIX   0
C60   1    0.300775    0.353467    0.038511    11.00000    0.09986    0.05897 =
         0.09008   -0.03652    0.03016   -0.02821
AFIX  43
H60A  2    0.297047    0.387974    0.061512    11.00000   -1.20000
AFIX   0
C61   1    0.273351    0.356844    0.007308    11.00000    0.06820    0.04519 =
         0.09949   -0.02186    0.03449   -0.00686
AFIX  43
H61A  2    0.250995    0.393618    0.008567    11.00000   -1.20000
AFIX   0
C62   1    0.278585    0.304095   -0.027624    11.00000    0.04451    0.04061 =
         0.06632   -0.00143    0.01156   -0.00525
AFIX  43
H62A  2    0.259336    0.305671   -0.049253    11.00000   -1.20000
AFIX   0
C63   1   -0.109141    1.090678   -0.154343    11.00000    0.03426    0.04065 =
         0.03844    0.00486   -0.00049   -0.00842
C64   1   -0.070838    1.062384   -0.141114    11.00000    0.03136    0.04935 =
         0.04681    0.00913    0.00565   -0.01309
AFIX  43
H64A  2   -0.049590    1.090607   -0.151481    11.00000   -1.20000
AFIX   0
C65   1   -0.065543    0.992630   -0.112740    11.00000    0.03376    0.04733 =
         0.03459    0.01253   -0.00295   -0.00462
AFIX  43
H65A  2   -0.040245    0.973797   -0.103649    11.00000   -1.20000
AFIX   0
C66   1   -0.097632    0.947352   -0.096450    11.00000    0.02916    0.03438 =
         0.03679    0.00132    0.00227   -0.00489
C67   1   -0.135423    0.979092   -0.109015    11.00000    0.02715    0.03900 =
         0.03572    0.00066    0.00613   -0.00663
AFIX  43
H67A  2   -0.156672    0.953260   -0.097794    11.00000   -1.20000
AFIX   0
C68   1   -0.141118    1.049132   -0.138228    11.00000    0.02583    0.03828 =
         0.02693    0.00135    0.00755   -0.00851
C69   1   -0.162673    1.157918   -0.186743    11.00000    0.03560    0.04278 =
         0.03108    0.00820    0.00074   -0.00853
C70   1   -0.189590    1.208367   -0.212449    11.00000    0.03537    0.04943 =
         0.04342    0.01300    0.00419   -0.00908
AFIX  43
H70A  2   -0.181169    1.252491   -0.230439    11.00000   -1.20000
AFIX   0
C71   1   -0.228570    1.192397   -0.210989    11.00000    0.03475    0.04666 =
         0.04417    0.00825    0.00078   -0.00102
AFIX  43
H71A  2   -0.246640    1.228345   -0.227234    11.00000   -1.20000
AFIX   0
C72   1   -0.242092    1.121814   -0.185093    11.00000    0.03294    0.03289 =
         0.03420    0.00178    0.00401   -0.00604
C73   1   -0.214959    1.073090   -0.159127    11.00000    0.03413    0.03597 =
         0.02677    0.00258    0.01014    0.00081
AFIX  43
H73A  2   -0.223411    1.028220   -0.141463    11.00000   -1.20000
AFIX   0
C74   1   -0.175414    1.090673   -0.159278    11.00000    0.03480    0.03797 =
         0.02535    0.00166    0.00878   -0.00249
C75   1   -0.088275    0.872915   -0.066841    11.00000    0.03000    0.04607 =
         0.03911    0.00677    0.00889   -0.00542
AFIX  43
H75A  2   -0.064084    0.879447   -0.051917    11.00000   -1.20000
AFIX   0
C76   1   -0.161751    0.696783   -0.073616    11.00000    0.04951    0.05214 =
         0.03876    0.00140    0.00604   -0.00755
C77   1   -0.198692    0.678905   -0.093785    11.00000    0.05067    0.06698 =
         0.06015    0.00290    0.00019   -0.02508
AFIX  43
H77A  2   -0.211757    0.725246   -0.109971    11.00000   -1.20000
AFIX   0
C78   1   -0.214931    0.590886   -0.088874    11.00000    0.06307    0.07165 =
         0.07041   -0.00741    0.01346   -0.03091
AFIX  43
H78A  2   -0.239225    0.576209   -0.102289    11.00000   -1.20000
AFIX   0
C79   1   -0.195428    0.523863   -0.064118    11.00000    0.07703    0.06176 =
         0.06212   -0.00623    0.00609   -0.03927
AFIX  43
H79A  2   -0.206410    0.464001   -0.060673    11.00000   -1.20000
AFIX   0
C80   1   -0.159782    0.546591   -0.044738    11.00000    0.07371    0.04701 =
         0.06130   -0.00204    0.01966   -0.01570
AFIX  43
H80A  2   -0.146921    0.501734   -0.027623    11.00000   -1.20000
AFIX   0
C81   1   -0.283978    1.106123   -0.186511    11.00000    0.03407    0.03975 =
         0.03591    0.00442    0.00444    0.00026
AFIX  43
H81A  2   -0.299278    1.160589   -0.191358    11.00000   -1.20000
AFIX   0
C82   1   -0.304637    0.860231   -0.176618    11.00000    0.04286    0.03632 =
         0.03984   -0.00545   -0.00453    0.00584
C83   1   -0.285158    0.772423   -0.171923    11.00000    0.05782    0.04673 =
         0.05625   -0.01003   -0.01711    0.01220
AFIX  43
H83A  2   -0.258041    0.769244   -0.169953    11.00000   -1.20000
AFIX   0
C84   1   -0.307272    0.691274   -0.170318    11.00000    0.07741    0.04105 =
         0.07580   -0.00428   -0.02714    0.01031
AFIX  43
H84A  2   -0.295154    0.631873   -0.167106    11.00000   -1.20000
AFIX   0
C85   1   -0.347554    0.697445   -0.173460    11.00000    0.08231    0.02801 =
         0.06472    0.00334   -0.00500   -0.01191
AFIX  43
H85A  2   -0.362748    0.642884   -0.171666    11.00000   -1.20000
AFIX   0
C86   1   -0.364671    0.785881   -0.179288    11.00000    0.04880    0.04603 =
         0.04825   -0.00280    0.00127   -0.00921
AFIX  43
H86A  2   -0.391785    0.789908   -0.182108    11.00000   -1.20000
AFIX   0
C87   1   -0.097324    1.207257   -0.208798    11.00000    0.03749    0.07136 =
         0.06981    0.04278   -0.00023   -0.02121
AFIX  23
H87A  2   -0.073707    1.228257   -0.192882    11.00000   -1.20000
H87B  2   -0.110892    1.263741   -0.219802    11.00000   -1.20000
AFIX   0
C88   1   -0.086294    1.145553   -0.242839    11.00000    0.04078    0.11619 =
         0.05402    0.05379    0.02304    0.02206
C89   1   -0.102859    1.059985   -0.253250    11.00000    0.08290
AFIX   3
H89A  2   -0.121629    1.041715   -0.235430    11.00000   -1.20000
AFIX   0
PART   1
C91   1   -0.073830    1.025363   -0.310523    10.50000    0.05610
AFIX  43
H91A  2   -0.069398    0.989730   -0.333024    10.50000   -1.20000
AFIX   0
C90   1   -0.098533    0.989129   -0.284009    10.50000    0.06020
AFIX  43
H90A  2   -0.110358    0.929208   -0.285722    10.50000   -1.20000
AFIX   0
C92   1   -0.054746    1.117634   -0.303934    10.50000    0.05115
AFIX  43
H92A  2   -0.037707    1.140262   -0.321524    10.50000   -1.20000
AFIX   0
C93   1   -0.062520    1.171637   -0.270639    10.50000    0.05367
AFIX  43
H93A  2   -0.050262    1.230837   -0.267266    10.50000   -1.20000
AFIX   0
PART   2
C90'  1   -0.085468    1.037884   -0.289431    10.50000    0.09940
AFIX  43
H90C  2   -0.096348    0.983172   -0.301835    10.50000   -1.20000
AFIX   0
C91'  1   -0.057870    1.075361   -0.309756    10.50000    0.06545
AFIX  43
H91B  2   -0.049932    1.052061   -0.333576    10.50000   -1.20000
AFIX   0
C92'  1   -0.043151    1.155514   -0.288866    10.50000    0.16812
AFIX  43
H92B  2   -0.021780    1.182486   -0.299474    10.50000   -1.20000
AFIX   0
C93'  1   -0.053651    1.203852   -0.255452    10.50000    0.11864
AFIX  43
H93B  2   -0.042829    1.259442   -0.243767    10.50000   -1.20000
AFIX   0
PART   0
C94   1   -0.178270    1.022189   -0.023444    11.00000    0.02825    0.03234 =
         0.03959   -0.00483    0.00314    0.00498
C95   1   -0.140765    1.008121   -0.004698    11.00000    0.03397    0.03900 =
         0.04301    0.00049    0.00562   -0.00261
AFIX  43
H95A  2   -0.121748    1.055354   -0.004875    11.00000   -1.20000
AFIX   0
C96   1   -0.132732    0.921321    0.014238    11.00000    0.03617    0.05211 =
         0.04334    0.00384    0.00762    0.01174
AFIX  43
H96A  2   -0.107777    0.910666    0.026944    11.00000   -1.20000
AFIX   0
C97   1   -0.160889    0.848571    0.014998    11.00000    0.03987    0.03341 =
         0.03855    0.00327    0.01569    0.00749
C98   1   -0.198523    0.865666   -0.002961    11.00000    0.04049    0.03043 =
         0.04018    0.00001    0.01769   -0.00087
AFIX  43
H98A  2   -0.217910    0.820018   -0.001092    11.00000   -1.20000
AFIX   0
C99   1   -0.207345    0.949682   -0.023511    11.00000    0.03560    0.03385 =
         0.03291   -0.00601    0.01085   -0.00257
C100  1   -0.232538    1.079036   -0.059262    11.00000    0.03560    0.03016 =
         0.03065   -0.00508    0.01064   -0.00236
C101  1   -0.259914    1.134113   -0.082690    11.00000    0.03522    0.02771 =
         0.03149   -0.00137    0.00772   -0.00155
AFIX  43
H10B  2   -0.253706    1.194923   -0.091352    11.00000   -1.20000
AFIX   0
C102  1   -0.296562    1.095410   -0.092615    11.00000    0.03763    0.04207 =
         0.02996   -0.00289    0.00632    0.00352
AFIX  43
H10C  2   -0.315279    1.131231   -0.108095    11.00000   -1.20000
AFIX   0
C103  1   -0.306343    1.003783   -0.080040    11.00000    0.03232    0.03148 =
         0.03370   -0.00706    0.00959   -0.00359
C104  1   -0.279058    0.949687   -0.056233    11.00000    0.04248    0.02875 =
         0.03237   -0.00420    0.00982   -0.00031
AFIX  43
H10D  2   -0.285674    0.889797   -0.046901    11.00000   -1.20000
AFIX   0
C105  1   -0.241520    0.986725   -0.046540    11.00000    0.03273    0.03007 =
         0.02811   -0.00174    0.00575    0.00221
C106  1   -0.152275    0.759311    0.035874    11.00000    0.04660    0.04690 =
         0.04898    0.00850    0.02041    0.00677
AFIX  43
H10E  2   -0.168633    0.740216    0.054768    11.00000   -1.20000
AFIX   0
C107  1   -0.094295    0.553507    0.046047    11.00000    0.04329    0.04021 =
         0.05166    0.00849    0.01046    0.00601
C108  1   -0.087848    0.474893    0.071573    11.00000    0.07580    0.04394 =
         0.06525    0.02049    0.01851    0.00949
AFIX  43
H10F  2   -0.099759    0.471346    0.095163    11.00000   -1.20000
AFIX   0
C109  1   -0.064138    0.404361    0.061515    11.00000    0.09946    0.04311 =
         0.11813    0.03791    0.04391    0.02377
AFIX  43
H10G  2   -0.059443    0.351285    0.078054    11.00000   -1.20000
AFIX   0
C110  1   -0.046902    0.411766    0.026398    11.00000    0.11368    0.04238 =
         0.13713    0.02399    0.07138    0.02615
AFIX  43
H11B  2   -0.031026    0.362767    0.018642    11.00000   -1.20000
AFIX   0
C111  1   -0.053163    0.490393    0.003334    11.00000    0.07479    0.04771 =
         0.09214    0.01791    0.05150    0.02059
AFIX  43
H11C  2   -0.040389    0.495686   -0.019658    11.00000   -1.20000
AFIX   0
C112  1   -0.345337    0.964198   -0.088488    11.00000    0.03715    0.05285 =
         0.04049   -0.00544    0.01169   -0.01292
AFIX  43
H11D  2   -0.353793    0.922582   -0.069555    11.00000   -1.20000
AFIX   0
C113  1   -0.433966    0.949467   -0.150306    11.00000    0.02774    0.04402 =
         0.05623   -0.01204    0.00690   -0.00744
C114  1   -0.473022    0.928167   -0.145793    11.00000    0.03650    0.07323 =
         0.06090   -0.01351    0.01046   -0.01348
AFIX  43
H11E  2   -0.480323    0.907914   -0.121242    11.00000   -1.20000
AFIX   0
C115  1   -0.499219    0.937540   -0.177243    11.00000    0.02796    0.06558 =
         0.09206   -0.02925    0.01065   -0.00044
AFIX  43
H11F  2   -0.525175    0.922118   -0.174979    11.00000   -1.20000
AFIX   0
C116  1   -0.488570    0.970011   -0.213534    11.00000    0.03506    0.08764 =
         0.07930    0.00064   -0.00275    0.00470
AFIX  43
H11G  2   -0.506971    0.978330   -0.235618    11.00000   -1.20000
AFIX   0
C117  1   -0.450103    0.989259   -0.215590    11.00000    0.03882    0.06488 =
         0.07661    0.00406   -0.00172    0.00574
AFIX  43
H11H  2   -0.442623    1.011296   -0.239808    11.00000   -1.20000
AFIX   0
C118  1   -0.175097    1.193297   -0.047131    11.00000    0.03208    0.03489 =
         0.04924    0.00180    0.00783   -0.00544
AFIX  23
H11I  2   -0.184655    1.225738   -0.071796    11.00000   -1.20000
H11J  2   -0.147128    1.184765   -0.047064    11.00000   -1.20000
AFIX   0
C119  1   -0.182925    1.254420   -0.012178    11.00000    0.04095    0.02789 =
         0.04842    0.00181    0.00984   -0.00926
C120  1   -0.158454    1.252161    0.023154    11.00000    0.06725    0.04221 =
         0.05994    0.00062    0.00367   -0.00592
AFIX  43
H12J  2   -0.136164    1.214190    0.024550    11.00000   -1.20000
AFIX   0
C121  1   -0.165941    1.304618    0.056721    11.00000    0.10476    0.06358 =
         0.05657   -0.01666   -0.00160   -0.01825
AFIX  43
H12K  2   -0.148952    1.302361    0.080168    11.00000   -1.20000
AFIX   0
C122  1   -0.199580    1.360665    0.054296    11.00000    0.11918    0.06238 =
         0.08105   -0.03038    0.04154   -0.03555
AFIX  43
H12L  2   -0.205329    1.395956    0.076441    11.00000   -1.20000
AFIX   0
C123  1   -0.224159    1.364124    0.019624    11.00000    0.06835    0.04719 =
         0.10410   -0.02689    0.04130   -0.01371
AFIX  43
H12M  2   -0.246422    1.402196    0.018208    11.00000   -1.20000
AFIX   0
C124  1   -0.216094    1.311125   -0.013513    11.00000    0.05300    0.03313 =
         0.07812   -0.01347    0.00942   -0.00932
AFIX  43
H12N  2   -0.233148    1.313667   -0.036909    11.00000   -1.20000
AFIX   0
C125  1    0.489454   -0.331125   -0.116968    11.00000    0.07637    0.11921 =
         0.08135    0.02641    0.03625    0.03628
AFIX 137
H12D  2    0.475124   -0.306817   -0.140935    11.00000   -1.50000
H12E  2    0.500038   -0.392829   -0.122301    11.00000   -1.50000
H12F  2    0.510353   -0.287952   -0.108331    11.00000   -1.50000
AFIX   0
C126  1    0.463030   -0.340026   -0.085139    11.00000    0.04765    0.06551 =
         0.05963   -0.00007   -0.00547    0.01921
C127  1    0.486461   -0.144863    0.066743    11.00000    0.08153    0.07183 =
         0.07548    0.00030   -0.02540   -0.00764
AFIX 137
H12G  2    0.471563   -0.121588    0.087361    11.00000   -1.50000
H12H  2    0.498824   -0.092027    0.054825    11.00000   -1.50000
H12I  2    0.506037   -0.188654    0.078195    11.00000   -1.50000
AFIX   0
C128  1    0.460840   -0.193457    0.036443    11.00000    0.04982    0.03599 =
         0.06140    0.00913   -0.00412   -0.00019
C130  1    0.114722    0.208360   -0.226521    10.50000    0.10784
N31   3    0.129436    0.146702   -0.218026    10.50000    0.07241
O1    4    0.129436    0.146702   -0.218026    10.50000    0.07241
PART   1
C129  1    0.087582    0.286869   -0.220690    10.33333    0.19497
AFIX  33
H12A  2    0.086094    0.328940   -0.243429    10.33333   -1.50000
H12B  2    0.062148    0.261157   -0.217905    10.33333   -1.50000
H12C  2    0.096745    0.321880   -0.196919    10.33333   -1.50000
AFIX   0
PART   2
C29'  1    0.116000    0.314455   -0.229984    10.16667    0.08762
AFIX  33
H29A  2    0.090992    0.337560   -0.241343    10.16667   -1.50000
H29C  2    0.122257    0.341969   -0.203872    10.16667   -1.50000
H29D  2    0.135575    0.332293   -0.246971    10.16667   -1.50000
AFIX   0
PART   1
C131  1    0.168035   -0.061469   -0.341933    10.50000    0.10273
AFIX  33
H13L  2    0.171911   -0.007322   -0.358686    10.50000   -1.50000
H13M  2    0.191645   -0.098422   -0.338148    10.50000   -1.50000
H13N  2    0.147285   -0.100483   -0.354492    10.50000   -1.50000
AFIX   0
PART   2
C31'  1    0.163769   -0.018195   -0.342078    10.50000    0.08405
AFIX  33
H31B  2    0.178371   -0.072708   -0.349530    10.50000   -1.50000
H31C  2    0.139149   -0.015882   -0.358399    10.50000   -1.50000
H31D  2    0.178235    0.039179   -0.346003    10.50000   -1.50000
AFIX   0
PART   0
C132  1    0.157079   -0.025979   -0.300411    11.00000    0.06997    0.11216 =
         0.05120    0.00490    0.00718   -0.01056
C133  1   -0.376058    1.035386   -0.321813    11.00000    0.10540    0.08251 =
         0.04229   -0.00288    0.00054   -0.02090
AFIX 137
H13C  2   -0.361580    0.986771   -0.334061    11.00000   -1.50000
H13D  2   -0.366621    1.097350   -0.328557    11.00000   -1.50000
H13E  2   -0.403243    1.030042   -0.331401    11.00000   -1.50000
AFIX   0
C134  1   -0.371117    1.023284   -0.278599    11.00000    0.05393    0.04014 =
         0.05500   -0.00326    0.00424   -0.00754
C135  1   -0.402213    1.324656   -0.185112    11.00000    0.07538    0.04331 =
         0.08047    0.00052    0.01279    0.02328
AFIX 137
H13F  2   -0.420047    1.334964   -0.165371    11.00000   -1.50000
H13G  2   -0.415545    1.334448   -0.211396    11.00000   -1.50000
H13H  2   -0.380848    1.368882   -0.180738    11.00000   -1.50000
AFIX   0
C136  1   -0.387036    1.225065   -0.181753    11.00000    0.03298    0.06010 =
         0.05243   -0.00632    0.00346    0.00112
C137  1    0.014428    0.838303    0.050221    11.00000    0.07245    0.08332 =
         0.07988    0.00220   -0.02188   -0.01987
AFIX 137
H13I  2    0.016672    0.811992    0.076803    11.00000   -1.50000
H13J  2    0.009541    0.905832    0.051464    11.00000   -1.50000
H13K  2    0.038288    0.827533    0.038443    11.00000   -1.50000
AFIX   0
C138  1   -0.017675    0.792233    0.025939    11.00000    0.04286    0.04412 =
         0.05081    0.00405   -0.00336    0.00177
PART   1
C139  1   -0.036993    0.660108   -0.137992    10.75000    0.11184
AFIX  33
H13O  2   -0.010411    0.640570   -0.139220    10.75000   -1.50000
H13P  2   -0.053970    0.621409   -0.155920    10.75000   -1.50000
H13Q  2   -0.039870    0.726108   -0.145706    10.75000   -1.50000
AFIX   0
PART   2
C39'  1   -0.017518    0.597160   -0.121258    10.25000    0.10505
AFIX  33
H39B  2   -0.017227    0.628452   -0.146705    10.25000   -1.50000
H39C  2    0.008058    0.600182   -0.106834    10.25000   -1.50000
H39D  2   -0.024994    0.531430   -0.125441    10.25000   -1.50000
AFIX   0
PART   0
C140  1   -0.047366    0.648140   -0.096579    11.00000    0.11588    0.08897 =
         0.10239   -0.01062    0.06254   -0.01560
CL1   6    0.451175    0.123464    0.027497    11.00000    0.05183    0.06972 =
         0.06314    0.01902    0.00832    0.00125
O11   4    0.434019    0.185443    0.053702    11.00000    0.16693    0.08244 =
         0.10479    0.01493    0.03407    0.03594
O12   4    0.441057    0.153407   -0.012027    11.00000    0.15255    0.25918 =
         0.08345    0.07892    0.02921    0.05586
O13   4    0.432205    0.034752    0.033721    11.00000    0.09263    0.09356 =
         0.13710    0.01030    0.00818   -0.02707
O14   4    0.491482    0.110528    0.038061    11.00000    0.04401    0.17890 =
         0.14085    0.01875    0.00141   -0.01761
CL2   6    0.188179    0.399926   -0.133654    11.00000    0.06691    0.04156 =
         0.07784    0.01522    0.03143    0.00540
O21   4    0.193408    0.488063   -0.147482    11.00000    0.33007    0.05720 =
         0.11029    0.02680    0.00701   -0.04381
O22   4    0.148608    0.384003   -0.132410    11.00000    0.10310    0.45676 =
         0.08419    0.03643    0.01997   -0.03214
O23   4    0.196615    0.329473   -0.161309    11.00000    0.26133    0.06667 =
         0.10493    0.00437    0.02237    0.03171
O24   4    0.204432    0.384367   -0.093611    11.00000    0.14193    0.09881 =
         0.09435    0.03212   -0.00595    0.02640
CL3   6    0.391956    0.696820    0.303697    11.00000    0.05852    0.05185 =
         0.05014    0.00361    0.01103    0.00732
O31   4    0.419952    0.715644    0.337665    11.00000    0.06830    0.11412 =
         0.07621   -0.01540   -0.00128   -0.01619
O32   4    0.398978    0.604675    0.287664    11.00000    0.08398    0.05125 =
         0.08313   -0.01567    0.01804    0.01703
O33   4    0.353770    0.699191    0.318686    11.00000    0.05351    0.08626 =
         0.05361   -0.00537    0.00459    0.01700
O34   4    0.392852    0.767226    0.273574    11.00000    0.17133    0.06756 =
         0.07829    0.02847    0.05174    0.02823
CL4   6    0.707092    0.395670   -0.123497    11.00000    0.05948    0.03759 =
         0.06148   -0.00297    0.00922   -0.01132
O41   4    0.745131    0.383592   -0.134398    11.00000    0.10622    0.31870 =
         0.14471   -0.09189    0.06374   -0.05743
O42   4    0.690535    0.474387   -0.140764    11.00000    0.34502    0.05577 =
         0.08097    0.01554   -0.03468    0.02696
O43   4    0.687410    0.312845   -0.134584    11.00000    0.13397    0.04002 =
         0.16640    0.01112   -0.07551   -0.03158
O44   4    0.712120    0.404759   -0.081017    11.00000    0.08316    0.09193 =
         0.05381    0.00755    0.00995   -0.01299
CL7   6    0.496800   -0.602603   -0.134136    11.00000    0.09532    0.08610 =
         0.16983   -0.04052    0.05975   -0.04426
O71   4    0.494735   -0.580871   -0.092626    11.00000    0.37427    0.36702 =
         0.26918   -0.21690    0.22955   -0.24952
O72   4    0.493677   -0.697741   -0.139646    11.00000    0.22658    0.06653 =
         0.13930    0.01018   -0.06305   -0.03525
O73   4    0.529077   -0.555058   -0.143479    11.00000    0.10533    0.10709 =
         0.17597    0.01182    0.07165   -0.00334
O74   4    0.463189   -0.561373   -0.155369    11.00000    0.06738    0.12260 =
         0.62448    0.01664   -0.05624    0.01123
CL5   6    0.959410    0.114178    0.064333    11.00000    0.04046    0.12171 =
         0.17237    0.09099   -0.00733   -0.01269
PART   1
O51   4    0.936847    0.150892    0.031258    10.50000    0.07676
O52   4    0.992404    0.167531    0.065515    10.50000    0.09459
O54   4    0.939182    0.181892    0.099970    10.50000    0.16947
O53   4    0.947317    0.020299    0.071641    10.50000    0.07355
PART   2
O51'  4    0.923836    0.149052    0.059732    10.50000    0.13944
O52'  4    0.993081    0.083875    0.038881    10.50000    0.11236
O53'  4    0.963588    0.029968    0.088277    10.50000    0.05891
O54'  4    0.981422    0.171111    0.092857    10.50000    0.12353
PART   0
CL6   6    0.169750    0.281253   -0.310411    11.00000    0.20346    0.25150 =
         0.05029    0.01241    0.01204    0.04647
O61   4    0.189626    0.339270   -0.336054    11.00000    0.17565    0.09245 =
         0.08205    0.00926   -0.01041    0.03654
PART   2
O62   4    0.148130    0.371454   -0.287664    10.50000    0.16995
O63   4    0.138314    0.265067   -0.333577    10.50000    0.11671
O64   4    0.189063    0.240641   -0.283623    10.50000    0.13266
PART   1
O62'  4    0.160967    0.289474   -0.271920    10.50000    0.16724
O63'  4    0.135806    0.211758   -0.335680    10.50000    0.10786
O64'  4    0.198490    0.184942   -0.303708    10.50000    0.07667
PART   0
O81   4   -0.027456    0.398192   -0.084221    11.00000    0.33050    0.16824 =
         0.09124   -0.05698   -0.05750    0.02956
O82   4   -0.068546    0.434204   -0.144653    11.00000    0.27331    0.16038 =
         0.16376    0.08723   -0.06170    0.00761
O83   4   -0.035092    0.292717   -0.135722    11.00000    0.28639    0.10040 =
         0.15102   -0.03939   -0.03256    0.02426
PART   1
CL8   6   -0.034177    0.388465   -0.123389    10.50000    0.09016
O84   4   -0.002248    0.424148   -0.131563    10.50000    0.14208
PART   2
CL8'  6   -0.059613    0.374831   -0.114767    10.50000    0.11498
O84'  4   -0.089922    0.328526   -0.101233    10.50000    0.24174
PART   0
O400  4    0.288716    0.619744    0.271859    11.00000    0.04203    0.09518 =
         0.06565    0.00551    0.00871   -0.00990
AFIX  83
H40E  2    0.308011    0.642358    0.284944    11.00000   -1.50000
AFIX   0
C400  1    0.300432    0.570117    0.237906    11.00000    0.07810    0.15087 =
         0.05398   -0.00673    0.01784   -0.00426
AFIX 137
H40B  2    0.277906    0.542517    0.222891    11.00000   -1.50000
H40C  2    0.318520    0.520307    0.246776    11.00000   -1.50000
H40D  2    0.312749    0.614146    0.221213    11.00000   -1.50000
AFIX   0
C300  1    0.416617    0.321759   -0.067093    11.00000    0.14389    0.28187 =
         0.13483    0.02743    0.00303   -0.03519
AFIX 137
H30B  2    0.434127    0.375414   -0.065774    11.00000   -1.50000
H30C  2    0.430615    0.264572   -0.072488    11.00000   -1.50000
H30D  2    0.405841    0.315151   -0.041976    11.00000   -1.50000
AFIX   0
N300  3    0.359035    0.343873   -0.125261    11.00000    0.22444    0.06736 =
         0.16503   -0.01028    0.11293   -0.03429
C301  1    0.386375    0.336550   -0.097787    11.00000    0.21480    0.05567 =
         0.18628   -0.01488    0.17178   -0.02115
PART   1
O3W   4    0.281309    0.586842   -0.209273    10.50000    0.11154
AFIX   3
H3WA  2    0.285719    0.531482   -0.218293    10.50000   -1.50000
H3WB  2    0.257249    0.600252   -0.214523    10.50000   -1.50000
AFIX   0
PART   2
N310  3    0.273078    0.519297   -0.214696    10.50000    0.06962
C310  1    0.250041    0.477373   -0.225427    10.50000    0.08206
C311  1    0.214132    0.461616   -0.237453    10.50000    0.06410
AFIX  33
H31E  2    0.210751    0.395445   -0.244717    10.50000   -1.50000
H31F  2    0.198348    0.476526   -0.216329    10.50000   -1.50000
H31G  2    0.206336    0.501046   -0.260341    10.50000   -1.50000
AFIX   0
O210  4    0.059721    0.230165   -0.186315    10.50000    0.18350
C212  1    0.040993    0.221419   -0.151359    10.50000    0.13295
AFIX  23
H21B  2    0.024288    0.276350   -0.148458    10.50000   -1.20000
H21K  2    0.024979    0.164153   -0.152623    10.50000   -1.20000
AFIX   0
C210  1    0.045187    0.235554   -0.259165    10.50000    0.13930
AFIX  33
H21C  2    0.024502    0.228958   -0.280524    10.50000   -1.50000
H21D  2    0.056258    0.298510   -0.259935    10.50000   -1.50000
H21E  2    0.065023    0.188660   -0.262292    10.50000   -1.50000
AFIX   0
C211  1    0.028102    0.219733   -0.216955    10.50000    0.15609
AFIX  23
H21F  2    0.007971    0.266670   -0.213478    10.50000   -1.20000
H21G  2    0.016774    0.156340   -0.215846    10.50000   -1.20000
AFIX   0
C213  1    0.069080    0.216236   -0.119767    10.50000    0.07767
AFIX  33
H21H  2    0.057011    0.210190   -0.095358    10.50000   -1.50000
H21I  2    0.085377    0.161559   -0.122890    10.50000   -1.50000
H21J  2    0.084689    0.273299   -0.118742    10.50000   -1.50000
PART   0

AFIX   0
HKLF 4

REM  1 in P2(1)/c
REM R1 =  0.0769 for   15253 Fo > 4sig(Fo)  and  0.1465 for all   28131 data
REM   2038 parameters refined using     37 restraints

END

WGHT      0.1291      0.0000

REM Highest difference peak  0.918,  deepest hole -0.726,  1-sigma level  0.093
Q1    1   0.2498  0.5240 -0.2226  11.00000  0.05    0.92
Q2    1   0.0682  0.2568 -0.1403  11.00000  0.05    0.92
Q3    1   0.2749  0.4387 -0.2167  11.00000  0.05    0.91
Q4    1   0.9499  0.0593  0.0183  11.00000  0.05    0.89
Q5    1   0.1851  0.3416 -0.2935  11.00000  0.05    0.87
Q6    1   0.0214  0.2015 -0.1855  11.00000  0.05    0.87
Q7    1   0.2274  0.3744 -0.1370  11.00000  0.05    0.85
Q8    1   0.2195  0.3970 -0.2760  11.00000  0.05    0.84
Q9    1  -0.0130  0.3830 -0.1280  11.00000  0.05    0.75
Q10   1  -0.0912  0.4460 -0.0967  11.00000  0.05    0.73
Q11   1   0.0886  0.2439 -0.1315  11.00000  0.05    0.72
Q12   1   0.9219  0.1665  0.0837  11.00000  0.05    0.67
Q13   1   0.1947  0.2671 -0.3196  11.00000  0.05    0.67
Q14   1   0.5395 -0.6534 -0.1139  11.00000  0.05    0.65
Q15   1   0.2256  0.4363 -0.1372  11.00000  0.05    0.64
Q16   1   0.0606  0.1781 -0.1116  11.00000  0.05    0.62
Q17   1   0.9880  0.1301  0.0478  11.00000  0.05    0.59
Q18   1   0.0490  0.2044 -0.1185  11.00000  0.05    0.58
Q19   1   0.9255  0.1369  0.0421  11.00000  0.05    0.58
Q20   1   0.0692  0.2216 -0.1905  11.00000  0.05    0.57
Q21   1   0.2378  0.4457 -0.2432  11.00000  0.05    0.55
Q22   1   0.2043  0.3274 -0.2793  11.00000  0.05    0.55
Q23   1   0.4826 -0.5706 -0.1825  11.00000  0.05    0.53
Q24   1   0.4168  0.4338 -0.0925  11.00000  0.05    0.53
Q25   1  -0.0788  0.3742 -0.0977  11.00000  0.05    0.51
Q26   1   0.0277  0.4058 -0.1432  11.00000  0.05    0.51
Q27   1   0.9575  0.1882  0.1183  11.00000  0.05    0.51
Q28   1   0.4184 -0.2651 -0.0071  11.00000  0.05    0.50
Q29   1  -0.0824  0.2863 -0.1112  11.00000  0.05    0.50
Q30   1   0.7280  0.4480 -0.1458  11.00000  0.05    0.50
Q31   1   0.4703 -0.5354 -0.1204  11.00000  0.05    0.49
Q32   1   0.1302  0.1609 -0.2020  11.00000  0.05    0.49
Q33   1   0.2845  0.5348 -0.2081  11.00000  0.05    0.49
Q34   1   0.1654  0.3433 -0.1473  11.00000  0.05    0.49
Q35   1   0.1677  0.2466 -0.3039  11.00000  0.05    0.47
Q36   1   0.6712  0.4313 -0.1171  11.00000  0.05    0.47
Q37   1   0.0833  0.1778 -0.3024  11.00000  0.05    0.47
Q38   1   0.9945  0.0494  0.0270  11.00000  0.05    0.47
Q39   1   0.5051 -0.6216 -0.0879  11.00000  0.05    0.46
Q40   1   0.1590  0.4699 -0.1215  11.00000  0.05    0.46
Q41   1   0.4662  0.2121  0.0068  11.00000  0.05    0.46
Q42   1  -0.0949  1.1001 -0.2596  11.00000  0.05    0.44
Q43   1   0.6830  0.4795 -0.1485  11.00000  0.05    0.44
Q44   1  -0.1132  1.0296 -0.2493  11.00000  0.05    0.44
Q45   1   0.5123 -0.6039 -0.1738  11.00000  0.05    0.44
Q46   1   0.0536  0.2282 -0.3027  11.00000  0.05    0.43
Q47   1   0.9960  0.1879  0.0767  11.00000  0.05    0.43
Q48   1   0.0778  0.1995 -0.3098  11.00000  0.05    0.43
Q49   1  -0.0745  0.7167 -0.0013  11.00000  0.05    0.42
Q50   1  -0.3461  1.0031 -0.2005  11.00000  0.05    0.42
Q51   1   0.1490  0.2744 -0.2720  11.00000  0.05    0.42
Q52   1  -0.0488  0.3853 -0.1219  11.00000  0.05    0.42
Q53   1  -0.1014  0.3552 -0.0769  11.00000  0.05    0.41
Q54   1   0.9482  0.1956  0.0340  11.00000  0.05    0.41
Q55   1  -0.1056  0.7375 -0.0486  11.00000  0.05    0.40
Q56   1   0.4676  0.1875  0.0440  11.00000  0.05    0.40
Q57   1   0.0020  0.4566 -0.1397  11.00000  0.05    0.40
Q58   1   0.6607  0.3719 -0.1223  11.00000  0.05    0.40
Q59   1   0.1170  0.3135 -0.3013  11.00000  0.05    0.40
Q60   1   0.2836  0.6357 -0.2088  11.00000  0.05    0.40
;
_shelx_res_checksum              22887
loop_
_space_group_symop_operation_xyz
'x, y, z'
'-x, y+1/2, -z+1/2'
'-x, -y, -z'
'x, -y-1/2, z-1/2'
loop_
_atom_site_label
_atom_site_type_symbol
_atom_site_fract_x
_atom_site_fract_y
_atom_site_fract_z
_atom_site_U_iso_or_equiv
_atom_site_adp_type
_atom_site_occupancy
_atom_site_site_symmetry_order
_atom_site_calc_flag
_atom_site_refinement_flags_posn
_atom_site_refinement_flags_adp
_atom_site_refinement_flags_occupancy
_atom_site_disorder_assembly
_atom_site_disorder_group
Ni1 Ni 0.40146(2) -0.30772(3) -0.02302(2) 0.03887(14) Uani 1 1 d . . . . .
Ni2 Ni 0.14096(2) 0.00269(4) -0.20907(2) 0.04218(14) Uani 1 1 d . . . . .
Ni3 Ni -0.36346(2) 1.00706(3) -0.18307(2) 0.03480(13) Uani 1 1 d . . . . .
Ni4 Ni -0.09086(2) 0.68448(3) -0.02019(2) 0.03704(13) Uani 1 1 d . . . . .
N1 N 0.38119(9) 0.1738(2) -0.18264(9) 0.0394(9) Uani 1 1 d . . . . .
N2 N 0.38953(9) -0.1988(2) -0.06494(8) 0.0349(8) Uani 1 1 d . . . . .
N3 N 0.35848(9) -0.2224(2) -0.09215(9) 0.0383(9) Uani 1 1 d . . . . .
H3A H 0.3497 -0.1826 -0.1105 0.046 Uiso 1 1 calc R U . . .
N4 N 0.35567(9) -0.3669(2) -0.05884(9) 0.0371(8) Uani 1 1 d . . . . .
N5 N 0.20050(9) 0.0282(2) -0.20192(9) 0.0388(9) Uani 1 1 d . . . . .
N6 N 0.22112(9) -0.0562(2) -0.19538(9) 0.0450(9) Uani 1 1 d . . . . .
H6A H 0.2462 -0.0569 -0.1945 0.054 Uiso 1 1 calc R U . . .
N7 N 0.16177(9) -0.1311(2) -0.19380(8) 0.0366(8) Uani 1 1 d . . . . .
N8 N 0.29517(8) 0.0992(2) -0.06534(8) 0.0326(8) Uani 1 1 d . . . . .
N9 N 0.35939(10) -0.2890(2) 0.01964(9) 0.0407(9) Uani 1 1 d . . . . .
N10 N 0.36269(11) -0.3651(2) 0.04587(10) 0.0576(11) Uani 1 1 d . . . . .
H10A H 0.3470 -0.3695 0.0641 0.069 Uiso 1 1 calc R U . . .
N11 N 0.41267(10) -0.4245(2) 0.01327(10) 0.0475(10) Uani 1 1 d . . . . .
N12 N 0.12263(9) 0.0033(2) -0.14881(10) 0.0481(10) Uani 1 1 d . . . . .
N13 N 0.08352(10) -0.0208(3) -0.15168(11) 0.0669(13) Uani 1 1 d . . . . .
H13A H 0.0723 -0.0291 -0.1302 0.080 Uiso 1 1 calc R U . . .
N14 N 0.08236(10) -0.0301(3) -0.21978(10) 0.0504(10) Uani 1 1 d . . . . .
N15 N -0.12218(9) 1.1574(2) -0.18284(9) 0.0402(9) Uani 1 1 d . . . . .
N16 N -0.10815(9) 0.7991(2) -0.05790(8) 0.0361(8) Uani 1 1 d . . . . .
N17 N -0.14415(9) 0.7835(2) -0.07810(10) 0.0443(9) Uani 1 1 d . . . . .
H17B H -0.1555 0.8271 -0.0933 0.053 Uiso 1 1 calc R U . . .
N18 N -0.14219(10) 0.6338(2) -0.04968(9) 0.0444(9) Uani 1 1 d . . . . .
N19 N -0.30322(8) 1.0279(2) -0.18205(8) 0.0347(8) Uani 1 1 d . . . . .
N20 N -0.28359(9) 0.9427(2) -0.17563(9) 0.0396(9) Uani 1 1 d . . . . .
H20A H -0.2585 0.9415 -0.1711 0.048 Uiso 1 1 calc R U . . .
N21 N -0.34367(9) 0.8674(2) -0.18109(9) 0.0380(9) Uani 1 1 d . . . . .
N22 N -0.19378(8) 1.0994(2) -0.04611(8) 0.0328(8) Uani 1 1 d . . . . .
N23 N -0.12353(9) 0.7050(2) 0.02995(9) 0.0381(8) Uani 1 1 d . . . . .
N24 N -0.11838(10) 0.6269(2) 0.05443(10) 0.0547(10) Uani 1 1 d . . . . .
H24B H -0.1305 0.6239 0.0755 0.066 Uiso 1 1 calc R U . . .
N25 N -0.07717(10) 0.5616(2) 0.01223(10) 0.0467(9) Uani 1 1 d . . . . .
N26 N -0.36911(8) 0.9813(2) -0.11957(9) 0.0388(9) Uani 1 1 d . . . . .
N27 N -0.40615(9) 0.9410(3) -0.11823(10) 0.0588(11) Uani 1 1 d . . . . .
H27B H -0.4115 0.9107 -0.0972 0.071 Uiso 1 1 calc R U . . .
N28 N -0.42196(9) 0.9782(2) -0.18438(10) 0.0420(9) Uani 1 1 d . . . . .
N29 N 0.44310(10) -0.3469(3) -0.06110(11) 0.0529(10) Uani 1 1 d . . . . .
N30 N 0.44152(10) -0.2288(2) 0.01229(10) 0.0479(10) Uani 1 1 d . . . . .
N32 N 0.14914(10) -0.0191(3) -0.26974(10) 0.0548(11) Uani 1 1 d . . . . .
N33 N -0.36763(10) 1.0132(2) -0.24506(10) 0.0451(9) Uani 1 1 d . . . . .
N34 N -0.37550(9) 1.1491(2) -0.18036(10) 0.0437(9) Uani 1 1 d . . . . .
N35 N -0.04322(9) 0.7557(2) 0.00820(9) 0.0428(9) Uani 1 1 d . . . . .
N36 N -0.05910(10) 0.6427(3) -0.06670(10) 0.0570(10) Uani 1 1 d . U . . .
C1 C 0.39264(11) 0.1064(3) -0.15397(11) 0.0375(10) Uani 1 1 d . . . . .
C2 C 0.42965(11) 0.0848(3) -0.13494(11) 0.0379(10) Uani 1 1 d . . . . .
H2A H 0.4515 0.1191 -0.1407 0.045 Uiso 1 1 calc R U . . .
C3 C 0.43288(11) 0.0112(3) -0.10737(11) 0.0401(11) Uani 1 1 d . . . . .
H3B H 0.4573 -0.0026 -0.0940 0.048 Uiso 1 1 calc R U . . .
C4 C 0.40076(10) -0.0431(3) -0.09889(11) 0.0335(10) Uani 1 1 d . . . . .
C5 C 0.36342(11) -0.0206(2) -0.11747(10) 0.0323(9) Uani 1 1 d . . . . .
H5A H 0.3417 -0.0557 -0.1119 0.039 Uiso 1 1 calc R U . . .
C6 C 0.35966(10) 0.0551(3) -0.14439(10) 0.0315(9) Uani 1 1 d . . . . .
C7 C 0.34164(11) 0.1668(3) -0.19216(11) 0.0412(11) Uani 1 1 d . . . . .
C8 C 0.31684(13) 0.2196(3) -0.21894(13) 0.0576(13) Uani 1 1 d . . . . .
H8A H 0.3264 0.2685 -0.2340 0.069 Uiso 1 1 calc R U . . .
C9 C 0.27780(13) 0.1975(3) -0.22254(13) 0.0568(13) Uani 1 1 d . . . . .
H9A H 0.2608 0.2336 -0.2399 0.068 Uiso 1 1 calc R U . . .
C10 C 0.26252(11) 0.1221(3) -0.20094(11) 0.0426(11) Uani 1 1 d . . . . .
C11 C 0.28786(11) 0.0726(3) -0.17347(11) 0.0375(10) Uani 1 1 d . . . . .
H11A H 0.2783 0.0247 -0.1579 0.045 Uiso 1 1 calc R U . . .
C12 C 0.32689(11) 0.0938(3) -0.16926(10) 0.0356(10) Uani 1 1 d . . . . .
C13 C 0.40812(10) -0.1190(3) -0.06896(10) 0.0339(10) Uani 1 1 d . . . . .
H13B H 0.4293 -0.1085 -0.0499 0.041 Uiso 1 1 calc R U . . .
C14 C 0.34156(11) -0.3116(3) -0.08939(11) 0.0376(10) Uani 1 1 d . . . . .
C15 C 0.31060(12) -0.3396(3) -0.11624(12) 0.0508(12) Uani 1 1 d . . . . .
H15A H 0.3017 -0.3006 -0.1378 0.061 Uiso 1 1 calc R U . . .
C16 C 0.29323(13) -0.4257(3) -0.11062(13) 0.0558(13) Uani 1 1 d . . . . .
H16A H 0.2721 -0.4456 -0.1282 0.067 Uiso 1 1 calc R U . . .
C17 C 0.30676(13) -0.4822(3) -0.07938(13) 0.0522(13) Uani 1 1 d . . . . .
H17A H 0.2950 -0.5409 -0.0754 0.063 Uiso 1 1 calc R U . . .
C18 C 0.33761(12) -0.4520(3) -0.05406(13) 0.0476(12) Uani 1 1 d . . . . .
H18A H 0.3468 -0.4910 -0.0326 0.057 Uiso 1 1 calc R U . . .
C19 C 0.22026(12) 0.1070(3) -0.20613(11) 0.0475(12) Uani 1 1 d . . . . .
H19A H 0.2053 0.1609 -0.2135 0.057 Uiso 1 1 calc R U . . .
C20 C 0.20081(11) -0.1379(3) -0.19045(10) 0.0368(10) Uani 1 1 d . . . . .
C21 C 0.22008(12) -0.2235(3) -0.18195(13) 0.0482(12) Uani 1 1 d . . . . .
H21A H 0.2471 -0.2272 -0.1816 0.058 Uiso 1 1 calc R U . . .
C22 C 0.19898(13) -0.3019(3) -0.17413(13) 0.0549(13) Uani 1 1 d . . . . .
H22A H 0.2114 -0.3599 -0.1679 0.066 Uiso 1 1 calc R U . . .
C23 C 0.15857(13) -0.2949(3) -0.17555(12) 0.0527(13) Uani 1 1 d . . . . .
H23A H 0.1436 -0.3475 -0.1698 0.063 Uiso 1 1 calc R U . . .
C24 C 0.14163(12) -0.2094(3) -0.18548(11) 0.0455(12) Uani 1 1 d . . . . .
H24A H 0.1146 -0.2048 -0.1866 0.055 Uiso 1 1 calc R U . . .
C25 C 0.40746(12) 0.2405(3) -0.19936(11) 0.0440(11) Uani 1 1 d . . . . .
H25A H 0.4259 0.2645 -0.1779 0.053 Uiso 1 1 calc R U . . .
H25B H 0.3924 0.2946 -0.2107 0.053 Uiso 1 1 calc R U . . .
C26 C 0.42980(13) 0.1978(3) -0.23135(12) 0.0497(12) Uani 1 1 d . . . . .
C27 C 0.46310(15) 0.2445(4) -0.24131(16) 0.0872(17) Uani 1 1 d . . . . .
H27A H 0.4714 0.3006 -0.2281 0.105 Uiso 1 1 calc R U . . .
C28 C 0.48388(18) 0.2070(4) -0.27099(17) 0.118(2) Uani 1 1 d . . . . .
H28A H 0.5069 0.2361 -0.2770 0.142 Uiso 1 1 calc R U . . .
C29 C 0.4700(2) 0.1246(4) -0.29199(16) 0.108(2) Uani 1 1 d . . . . .
H29B H 0.4830 0.1014 -0.3129 0.130 Uiso 1 1 calc R U . . .
C30 C 0.43793(16) 0.0792(4) -0.28192(14) 0.0739(17) Uani 1 1 d . . . . .
H30A H 0.4294 0.0236 -0.2954 0.089 Uiso 1 1 calc R U . . .
C31 C 0.41738(14) 0.1151(3) -0.25129(13) 0.0634(15) Uani 1 1 d . . . . .
H31A H 0.3953 0.0833 -0.2444 0.076 Uiso 1 1 calc R U . . .
C32 C 0.30808(11) 0.0209(2) -0.04261(10) 0.0317(9) Uani 1 1 d . . . . .
C33 C 0.34488(11) 0.0044(3) -0.02189(10) 0.0338(10) Uani 1 1 d . . . . .
H33A H 0.3646 0.0499 -0.0212 0.041 Uiso 1 1 calc R U . . .
C34 C 0.35059(11) -0.0820(3) -0.00259(10) 0.0345(10) Uani 1 1 d . . . . .
H34A H 0.3748 -0.0948 0.0114 0.041 Uiso 1 1 calc R U . . .
C35 C 0.32133(11) -0.1513(3) -0.00332(10) 0.0326(9) Uani 1 1 d . . . . .
C36 C 0.28434(11) -0.1325(3) -0.02349(10) 0.0355(10) Uani 1 1 d . . . . .
H36A H 0.2643 -0.1771 -0.0231 0.043 Uiso 1 1 calc R U . . .
C37 C 0.27803(10) -0.0474(2) -0.04382(10) 0.0279(9) Uani 1 1 d . . . . .
C38 C 0.25637(10) 0.0849(2) -0.08047(10) 0.0313(9) Uani 1 1 d . . . . .
C39 C 0.23131(10) 0.1441(3) -0.10415(11) 0.0359(10) Uani 1 1 d . . . . .
H39A H 0.2394 0.2043 -0.1119 0.043 Uiso 1 1 calc R U . . .
C40 C 0.19403(11) 0.1114(3) -0.11600(11) 0.0391(10) Uani 1 1 d . . . . .
H40A H 0.1770 0.1493 -0.1326 0.047 Uiso 1 1 calc R U . . .
C41 C 0.18133(11) 0.0210(3) -0.10333(11) 0.0364(10) Uani 1 1 d . . . . .
C42 C 0.20664(11) -0.0371(3) -0.07883(11) 0.0369(10) Uani 1 1 d . . . . .
H42A H 0.1982 -0.0959 -0.0700 0.044 Uiso 1 1 calc R U . . .
C43 C 0.24440(10) -0.0063(2) -0.06778(10) 0.0313(9) Uani 1 1 d . . . . .
C44 C 0.32776(12) -0.2408(3) 0.01900(11) 0.0403(11) Uani 1 1 d . . . . .
H44A H 0.3080 -0.2637 0.0333 0.048 Uiso 1 1 calc R U . . .
C45 C 0.39016(12) -0.4326(3) 0.04334(12) 0.0448(11) Uani 1 1 d . . . . .
C46 C 0.39372(14) -0.5074(3) 0.07091(15) 0.0640(15) Uani 1 1 d . . . . .
H46A H 0.3783 -0.5102 0.0920 0.077 Uiso 1 1 calc R U . . .
C47 C 0.42124(14) -0.5774(3) 0.06566(17) 0.0767(17) Uani 1 1 d . . . . .
H47A H 0.4237 -0.6300 0.0827 0.092 Uiso 1 1 calc R U . . .
C48 C 0.44524(14) -0.5691(3) 0.03467(17) 0.0756(17) Uani 1 1 d . . . . .
H48A H 0.4640 -0.6154 0.0312 0.091 Uiso 1 1 calc R U . . .
C49 C 0.44083(13) -0.4916(3) 0.00936(16) 0.0639(15) Uani 1 1 d . . . . .
H49A H 0.4573 -0.4848 -0.0107 0.077 Uiso 1 1 calc R U . . .
C50 C 0.14143(11) -0.0103(3) -0.11431(12) 0.0444(11) Uani 1 1 d . . . . .
H50A H 0.1287 -0.0421 -0.0951 0.053 Uiso 1 1 calc R U . . .
C51 C 0.06289(12) -0.0311(3) -0.18741(14) 0.0551(13) Uani 1 1 d . . . . .
C52 C 0.02222(13) -0.0422(4) -0.19002(15) 0.0712(16) Uani 1 1 d . . . . .
H52A H 0.0092 -0.0434 -0.1671 0.085 Uiso 1 1 calc R U . . .
C53 C 0.00220(15) -0.0512(4) -0.22747(18) 0.0880(19) Uani 1 1 d . U . . .
H53A H -0.0248 -0.0594 -0.2304 0.106 Uiso 1 1 calc R U . . .
C54 C 0.02250(15) -0.0478(4) -0.26052(17) 0.0853(19) Uani 1 1 d . U . . .
H54A H 0.0092 -0.0523 -0.2861 0.102 Uiso 1 1 calc R U . . .
C55 C 0.06141(13) -0.0382(3) -0.25594(14) 0.0631(15) Uani 1 1 d . . . . .
H55A H 0.0746 -0.0372 -0.2787 0.076 Uiso 1 1 calc R U . . .
C56 C 0.31647(11) 0.1904(3) -0.06644(11) 0.0403(10) Uani 1 1 d . . . . .
H56A H 0.3068 0.2256 -0.0904 0.048 Uiso 1 1 calc R U . . .
H56B H 0.3440 0.1775 -0.0677 0.048 Uiso 1 1 calc R U . . .
C57 C 0.31167(12) 0.2505(3) -0.03015(12) 0.0405(11) Uani 1 1 d . . . . .
C58 C 0.34010(14) 0.2477(3) 0.00214(14) 0.0579(14) Uani 1 1 d . . . . .
H58A H 0.3626 0.2117 0.0005 0.070 Uiso 1 1 calc R U . . .
C59 C 0.33523(15) 0.2992(3) 0.03770(15) 0.0708(16) Uani 1 1 d . . . . .
H59A H 0.3541 0.2973 0.0597 0.085 Uiso 1 1 calc R U . . .
C60 C 0.30078(16) 0.3535(3) 0.03851(16) 0.0815(17) Uani 1 1 d . . . . .
H60A H 0.2970 0.3880 0.0615 0.098 Uiso 1 1 calc R U . . .
C61 C 0.27335(14) 0.3568(3) 0.00731(15) 0.0691(15) Uani 1 1 d . . . . .
H61A H 0.2510 0.3936 0.0086 0.083 Uiso 1 1 calc R U . . .
C62 C 0.27858(12) 0.3041(3) -0.02762(13) 0.0501(12) Uani 1 1 d . . . . .
H62A H 0.2593 0.3057 -0.0493 0.060 Uiso 1 1 calc R U . . .
C63 C -0.10914(11) 1.0907(3) -0.15434(11) 0.0381(10) Uani 1 1 d . . . . .
C64 C -0.07084(11) 1.0624(3) -0.14111(11) 0.0424(11) Uani 1 1 d . . . . .
H64A H -0.0496 1.0906 -0.1515 0.051 Uiso 1 1 calc R U . . .
C65 C -0.06554(11) 0.9926(3) -0.11274(10) 0.0390(10) Uani 1 1 d . . . . .
H65A H -0.0402 0.9738 -0.1036 0.047 Uiso 1 1 calc R U . . .
C66 C -0.09763(10) 0.9474(3) -0.09645(11) 0.0335(10) Uani 1 1 d . . . . .
C67 C -0.13542(10) 0.9791(3) -0.10901(10) 0.0338(10) Uani 1 1 d . . . . .
H67A H -0.1567 0.9533 -0.0978 0.041 Uiso 1 1 calc R U . . .
C68 C -0.14112(10) 1.0491(3) -0.13823(10) 0.0300(9) Uani 1 1 d . . . . .
C69 C -0.16267(11) 1.1579(3) -0.18674(10) 0.0367(10) Uani 1 1 d . . . . .
C70 C -0.18959(11) 1.2084(3) -0.21245(11) 0.0427(11) Uani 1 1 d . . . . .
H70A H -0.1812 1.2525 -0.2304 0.051 Uiso 1 1 calc R U . . .
C71 C -0.22857(11) 1.1924(3) -0.21099(11) 0.0421(11) Uani 1 1 d . . . . .
H71A H -0.2466 1.2283 -0.2272 0.051 Uiso 1 1 calc R U . . .
C72 C -0.24209(10) 1.1218(3) -0.18509(10) 0.0333(10) Uani 1 1 d . . . . .
C73 C -0.21496(10) 1.0731(3) -0.15913(10) 0.0318(9) Uani 1 1 d . . . . .
H73A H -0.2234 1.0282 -0.1415 0.038 Uiso 1 1 calc R U . . .
C74 C -0.17541(10) 1.0907(3) -0.15928(10) 0.0323(9) Uani 1 1 d . . . . .
C75 C -0.08828(11) 0.8729(3) -0.06684(11) 0.0380(10) Uani 1 1 d . . . . .
H75A H -0.0641 0.8794 -0.0519 0.046 Uiso 1 1 calc R U . . .
C76 C -0.16175(12) 0.6968(3) -0.07362(12) 0.0467(12) Uani 1 1 d . . . . .
C77 C -0.19869(13) 0.6789(3) -0.09379(13) 0.0597(14) Uani 1 1 d . . . . .
H77A H -0.2118 0.7252 -0.1100 0.072 Uiso 1 1 calc R U . . .
C78 C -0.21493(14) 0.5909(3) -0.08887(14) 0.0679(15) Uani 1 1 d . . . . .
H78A H -0.2392 0.5762 -0.1023 0.082 Uiso 1 1 calc R U . . .
C79 C -0.19543(15) 0.5239(3) -0.06412(14) 0.0671(15) Uani 1 1 d . . . . .
H79A H -0.2064 0.4640 -0.0607 0.080 Uiso 1 1 calc R U . . .
C80 C -0.15978(14) 0.5466(3) -0.04474(13) 0.0598(14) Uani 1 1 d . . . . .
H80A H -0.1469 0.5017 -0.0276 0.072 Uiso 1 1 calc R U . . .
C81 C -0.28398(11) 1.1061(3) -0.18651(10) 0.0365(10) Uani 1 1 d . . . . .
H81A H -0.2993 1.1606 -0.1914 0.044 Uiso 1 1 calc R U . . .
C82 C -0.30464(11) 0.8602(3) -0.17662(11) 0.0403(11) Uani 1 1 d . . . . .
C83 C -0.28516(14) 0.7724(3) -0.17192(13) 0.0552(13) Uani 1 1 d . . . . .
H83A H -0.2580 0.7692 -0.1700 0.066 Uiso 1 1 calc R U . . .
C84 C -0.30727(15) 0.6913(3) -0.17032(14) 0.0672(15) Uani 1 1 d . . . . .
H84A H -0.2952 0.6319 -0.1671 0.081 Uiso 1 1 calc R U . . .
C85 C -0.34755(14) 0.6974(3) -0.17346(13) 0.0592(14) Uani 1 1 d . . . . .
H85A H -0.3627 0.6429 -0.1717 0.071 Uiso 1 1 calc R U . . .
C86 C -0.36467(13) 0.7859(3) -0.17929(12) 0.0480(12) Uani 1 1 d . . . . .
H86A H -0.3918 0.7899 -0.1821 0.058 Uiso 1 1 calc R U . . .
C87 C -0.09732(12) 1.2073(3) -0.20880(13) 0.0600(13) Uani 1 1 d . . . . .
H87A H -0.0737 1.2283 -0.1929 0.072 Uiso 1 1 calc R U . . .
H87B H -0.1109 1.2637 -0.2198 0.072 Uiso 1 1 calc R U . . .
C88 C -0.08629(12) 1.1456(4) -0.24284(12) 0.0690(14) Uani 1 1 d D . . . .
C89 C -0.10286(16) 1.0600(4) -0.25325(16) 0.0829(16) Uiso 1 1 d D . . . .
H89A H -0.1216 1.0417 -0.2354 0.099 Uiso 1 1 d R U . A .
C91 C -0.0738(3) 1.0254(6) -0.3105(3) 0.056(2) Uiso 0.5 1 d . . P A 1
H91A H -0.0694 0.9897 -0.3330 0.067 Uiso 0.5 1 calc R U P A 1
C90 C -0.0985(3) 0.9891(7) -0.2840(3) 0.060(3) Uiso 0.5 1 d . . P A 1
H90A H -0.1104 0.9292 -0.2857 0.072 Uiso 0.5 1 calc R U P A 1
C92 C -0.0547(3) 1.1176(6) -0.3039(3) 0.051(2) Uiso 0.5 1 d . . P A 1
H92A H -0.0377 1.1403 -0.3215 0.061 Uiso 0.5 1 calc R U P A 1
C93 C -0.0625(3) 1.1716(6) -0.2706(3) 0.054(2) Uiso 0.5 1 d . . P A 1
H93A H -0.0503 1.2308 -0.2673 0.064 Uiso 0.5 1 calc R U P A 1
C90' C -0.0855(3) 1.0379(7) -0.2894(3) 0.099(4) Uiso 0.5 1 d D . P A 2
H90C H -0.0963 0.9832 -0.3018 0.119 Uiso 0.5 1 calc R U P A 2
C91' C -0.0579(3) 1.0754(6) -0.3098(2) 0.065(3) Uiso 0.5 1 d D . P A 2
H91B H -0.0499 1.0521 -0.3336 0.079 Uiso 0.5 1 calc R U P A 2
C92' C -0.0432(4) 1.1555(8) -0.2889(3) 0.168(7) Uiso 0.5 1 d D . P A 2
H92B H -0.0218 1.1825 -0.2995 0.202 Uiso 0.5 1 calc R U P A 2
C93' C -0.0537(3) 1.2039(7) -0.2555(3) 0.119(5) Uiso 0.5 1 d D . P A 2
H93B H -0.0428 1.2594 -0.2438 0.142 Uiso 0.5 1 calc R U P A 2
C94 C -0.17827(10) 1.0222(3) -0.02344(11) 0.0334(10) Uani 1 1 d . . . . .
C95 C -0.14077(11) 1.0081(3) -0.00470(11) 0.0386(10) Uani 1 1 d . . . . .
H95A H -0.1217 1.0554 -0.0049 0.046 Uiso 1 1 calc R U . . .
C96 C -0.13273(11) 0.9213(3) 0.01424(11) 0.0436(11) Uani 1 1 d . . . . .
H96A H -0.1078 0.9107 0.0269 0.052 Uiso 1 1 calc R U . . .
C97 C -0.16089(11) 0.8486(3) 0.01500(10) 0.0365(10) Uani 1 1 d . . . . .
C98 C -0.19852(11) 0.8657(3) -0.00296(10) 0.0361(10) Uani 1 1 d . . . . .
H98A H -0.2179 0.8200 -0.0011 0.043 Uiso 1 1 calc R U . . .
C99 C -0.20735(10) 0.9497(3) -0.02351(10) 0.0336(10) Uani 1 1 d . . . . .
C100 C -0.23254(10) 1.0790(2) -0.05926(10) 0.0316(9) Uani 1 1 d . . . . .
C101 C -0.25991(10) 1.1341(3) -0.08269(10) 0.0312(9) Uani 1 1 d . . . . .
H10B H -0.2537 1.1949 -0.0914 0.037 Uiso 1 1 calc R U . . .
C102 C -0.29656(11) 1.0954(3) -0.09262(10) 0.0364(10) Uani 1 1 d . . . . .
H10C H -0.3153 1.1312 -0.1081 0.044 Uiso 1 1 calc R U . . .
C103 C -0.30634(10) 1.0038(2) -0.08004(10) 0.0321(9) Uani 1 1 d . . . . .
C104 C -0.27906(11) 0.9497(3) -0.05623(10) 0.0341(10) Uani 1 1 d . . . . .
H10D H -0.2857 0.8898 -0.0469 0.041 Uiso 1 1 calc R U . . .
C105 C -0.24152(10) 0.9867(2) -0.04654(10) 0.0301(9) Uani 1 1 d . . . . .
C106 C -0.15228(12) 0.7593(3) 0.03587(12) 0.0464(11) Uani 1 1 d . . . . .
H10E H -0.1686 0.7402 0.0548 0.056 Uiso 1 1 calc R U . . .
C107 C -0.09429(12) 0.5535(3) 0.04605(12) 0.0447(11) Uani 1 1 d . . . . .
C108 C -0.08785(14) 0.4749(3) 0.07157(14) 0.0609(14) Uani 1 1 d . . . . .
H10F H -0.0998 0.4713 0.0952 0.073 Uiso 1 1 calc R U . . .
C109 C -0.06414(15) 0.4044(3) 0.06151(17) 0.0846(17) Uani 1 1 d . . . . .
H10G H -0.0594 0.3513 0.0781 0.102 Uiso 1 1 calc R U . . .
C110 C -0.04690(16) 0.4118(3) 0.02640(17) 0.0936(18) Uani 1 1 d . . . . .
H11B H -0.0310 0.3628 0.0186 0.112 Uiso 1 1 calc R U . . .
C111 C -0.05316(14) 0.4904(3) 0.00333(15) 0.0685(14) Uani 1 1 d . . . . .
H11C H -0.0404 0.4957 -0.0197 0.082 Uiso 1 1 calc R U . . .
C112 C -0.34534(11) 0.9642(3) -0.08849(11) 0.0430(11) Uani 1 1 d . . . . .
H11D H -0.3538 0.9226 -0.0696 0.052 Uiso 1 1 calc R U . . .
C113 C -0.43397(11) 0.9495(3) -0.15031(12) 0.0425(11) Uani 1 1 d . . . . .
C114 C -0.47302(12) 0.9282(3) -0.14579(14) 0.0565(13) Uani 1 1 d . . . . .
H11E H -0.4803 0.9079 -0.1212 0.068 Uiso 1 1 calc R U . . .
C115 C -0.49922(12) 0.9375(3) -0.17724(14) 0.0616(14) Uani 1 1 d . . . . .
H11F H -0.5252 0.9221 -0.1750 0.074 Uiso 1 1 calc R U . . .
C116 C -0.48857(13) 0.9700(4) -0.21353(15) 0.0680(16) Uani 1 1 d . . . . .
H11G H -0.5070 0.9783 -0.2356 0.082 Uiso 1 1 calc R U . . .
C117 C -0.45010(13) 0.9893(3) -0.21559(15) 0.0607(14) Uani 1 1 d . . . . .
H11H H -0.4426 1.0113 -0.2398 0.073 Uiso 1 1 calc R U . . .
C118 C -0.17510(11) 1.1933(3) -0.04713(11) 0.0385(10) Uani 1 1 d . . . . .
H11I H -0.1847 1.2257 -0.0718 0.046 Uiso 1 1 calc R U . . .
H11J H -0.1471 1.1848 -0.0471 0.046 Uiso 1 1 calc R U . . .
C119 C -0.18292(11) 1.2544(3) -0.01218(11) 0.0387(10) Uani 1 1 d . . . . .
C120 C -0.15845(14) 1.2522(3) 0.02315(13) 0.0567(14) Uani 1 1 d . . . . .
H12J H -0.1362 1.2142 0.0246 0.068 Uiso 1 1 calc R U . . .
C121 C -0.16594(16) 1.3046(3) 0.05672(15) 0.0757(17) Uani 1 1 d . U . . .
H12K H -0.1490 1.3024 0.0802 0.091 Uiso 1 1 calc R U . . .
C122 C -0.19958(17) 1.3607(4) 0.05430(16) 0.0853(17) Uani 1 1 d . U . . .
H12L H -0.2053 1.3960 0.0764 0.102 Uiso 1 1 calc R U . . .
C123 C -0.22416(14) 1.3641(3) 0.01962(15) 0.0709(15) Uani 1 1 d . . . . .
H12M H -0.2464 1.4022 0.0182 0.085 Uiso 1 1 calc R U . . .
C124 C -0.21609(13) 1.3111(3) -0.01351(14) 0.0546(13) Uani 1 1 d . . . . .
H12N H -0.2331 1.3137 -0.0369 0.065 Uiso 1 1 calc R U . . .
C125 C 0.48945(15) -0.3311(4) -0.11697(15) 0.0903(19) Uani 1 1 d . . . . .
H12D H 0.4751 -0.3068 -0.1409 0.135 Uiso 1 1 calc R U . . .
H12E H 0.5000 -0.3928 -0.1223 0.135 Uiso 1 1 calc R U . . .
H12F H 0.5104 -0.2880 -0.1083 0.135 Uiso 1 1 calc R U . . .
C126 C 0.46303(13) -0.3400(3) -0.08514(14) 0.0584(14) Uani 1 1 d . . . . .
C127 C 0.48646(15) -0.1449(4) 0.06674(15) 0.0787(17) Uani 1 1 d . . . . .
H12G H 0.4716 -0.1216 0.0874 0.118 Uiso 1 1 calc R U . . .
H12H H 0.4988 -0.0920 0.0548 0.118 Uiso 1 1 calc R U . . .
H12I H 0.5060 -0.1887 0.0782 0.118 Uiso 1 1 calc R U . . .
C128 C 0.46084(13) -0.1935(3) 0.03644(13) 0.0498(12) Uani 1 1 d . . . . .
C130 C 0.1147(4) 0.2084(7) -0.2265(4) 0.108(4) Uiso 0.5 1 d D U P . .
N31 N 0.12944(11) 0.1467(3) -0.21803(11) 0.0724(10) Uiso 0.5 1 d . U P B .
O1 O 0.12944(11) 0.1467(3) -0.21803(11) 0.0724(10) Uiso 0.5 1 d D . P B .
C129 C 0.0876(6) 0.2869(13) -0.2207(8) 0.195(11) Uiso 0.3333 1 d D U P B 1
H12A H 0.0861 0.3289 -0.2434 0.292 Uiso 0.3333 1 calc R U P B 1
H12B H 0.0621 0.2612 -0.2179 0.292 Uiso 0.3333 1 calc R U P B 1
H12C H 0.0967 0.3219 -0.1969 0.292 Uiso 0.3333 1 calc R U P B 1
C29' C 0.1160(5) 0.3145(10) -0.2300(9) 0.088(10) Uiso 0.1667 1 d D . P B 2
H29A H 0.0910 0.3376 -0.2413 0.131 Uiso 0.1667 1 calc R U P B 2
H29C H 0.1223 0.3420 -0.2039 0.131 Uiso 0.1667 1 calc R U P B 2
H29D H 0.1356 0.3323 -0.2470 0.131 Uiso 0.1667 1 calc R U P B 2
C131 C 0.1680(4) -0.0615(9) -0.3419(4) 0.103(4) Uiso 0.5 1 d . . P C 1
H13L H 0.1719 -0.0073 -0.3587 0.154 Uiso 0.5 1 calc R U P C 1
H13M H 0.1916 -0.0984 -0.3381 0.154 Uiso 0.5 1 calc R U P C 1
H13N H 0.1473 -0.1005 -0.3545 0.154 Uiso 0.5 1 calc R U P C 1
C31' C 0.1638(3) -0.0182(8) -0.3421(3) 0.084(4) Uiso 0.5 1 d . . P C 2
H31B H 0.1784 -0.0727 -0.3495 0.126 Uiso 0.5 1 calc R U P C 2
H31C H 0.1391 -0.0159 -0.3584 0.126 Uiso 0.5 1 calc R U P C 2
H31D H 0.1782 0.0392 -0.3460 0.126 Uiso 0.5 1 calc R U P C 2
C132 C 0.15708(15) -0.0260(4) -0.30041(15) 0.0777(18) Uani 1 1 d . . . . .
C133 C -0.37606(16) 1.0354(4) -0.32181(13) 0.0772(17) Uani 1 1 d . . . . .
H13C H -0.3616 0.9868 -0.3341 0.116 Uiso 1 1 calc R U . . .
H13D H -0.3666 1.0974 -0.3286 0.116 Uiso 1 1 calc R U . . .
H13E H -0.4032 1.0300 -0.3314 0.116 Uiso 1 1 calc R U . . .
C134 C -0.37112(13) 1.0233(3) -0.27860(13) 0.0498(12) Uani 1 1 d . . . . .
C135 C -0.40221(14) 1.3247(3) -0.18511(15) 0.0661(15) Uani 1 1 d . . . . .
H13F H -0.4200 1.3350 -0.1654 0.099 Uiso 1 1 calc R U . . .
H13G H -0.4155 1.3344 -0.2114 0.099 Uiso 1 1 calc R U . . .
H13H H -0.3808 1.3689 -0.1807 0.099 Uiso 1 1 calc R U . . .
C136 C -0.38704(11) 1.2251(3) -0.18175(12) 0.0486(12) Uani 1 1 d . . . . .
C137 C 0.01443(15) 0.8383(4) 0.05022(16) 0.0807(18) Uani 1 1 d . . . . .
H13I H 0.0167 0.8120 0.0768 0.121 Uiso 1 1 calc R U . . .
H13J H 0.0095 0.9058 0.0515 0.121 Uiso 1 1 calc R U . . .
H13K H 0.0383 0.8275 0.0384 0.121 Uiso 1 1 calc R U . . .
C138 C -0.01767(12) 0.7922(3) 0.02594(12) 0.0465(12) Uani 1 1 d . . . . .
C139 C -0.0370(3) 0.6601(6) -0.1380(2) 0.112(3) Uiso 0.75 1 d . . P D 1
H13O H -0.0104 0.6406 -0.1392 0.168 Uiso 0.75 1 calc R U P D 1
H13P H -0.0540 0.6214 -0.1559 0.168 Uiso 0.75 1 calc R U P D 1
H13Q H -0.0399 0.7261 -0.1457 0.168 Uiso 0.75 1 calc R U P D 1
C39' C -0.0175(6) 0.5972(18) -0.1213(7) 0.105(8) Uiso 0.25 1 d . . P D 2
H39B H -0.0172 0.6285 -0.1467 0.158 Uiso 0.25 1 calc R U P D 2
H39C H 0.0081 0.6002 -0.1068 0.158 Uiso 0.25 1 calc R U P D 2
H39D H -0.0250 0.5314 -0.1254 0.158 Uiso 0.25 1 calc R U P D 2
C140 C -0.04737(18) 0.6481(4) -0.09658(17) 0.0988(19) Uani 1 1 d . U . . .
Cl1 Cl 0.45117(3) 0.12346(9) 0.02750(3) 0.0614(3) Uani 1 1 d . . . . .
O11 O 0.43402(14) 0.1854(3) 0.05370(12) 0.1167(16) Uani 1 1 d . . . . .
O12 O 0.44106(15) 0.1534(4) -0.01203(12) 0.164(2) Uani 1 1 d . . . . .
O13 O 0.43220(12) 0.0348(3) 0.03372(14) 0.1080(15) Uani 1 1 d . . . . .
O14 O 0.49148(10) 0.1105(4) 0.03806(14) 0.1218(17) Uani 1 1 d . . . . .
Cl2 Cl 0.18818(3) 0.39993(8) -0.13365(4) 0.0604(3) Uani 1 1 d . . . . .
O21 O 0.1934(2) 0.4881(3) -0.14748(14) 0.167(3) Uani 1 1 d . . . . .
O22 O 0.14861(15) 0.3840(6) -0.13241(14) 0.214(4) Uani 1 1 d . . . . .
O23 O 0.19662(18) 0.3295(3) -0.16131(14) 0.144(2) Uani 1 1 d . . . . .
O24 O 0.20443(14) 0.3844(3) -0.09361(12) 0.1130(16) Uani 1 1 d . . . . .
Cl3 Cl 0.39196(3) 0.69682(8) 0.30370(3) 0.0531(3) Uani 1 1 d . . . . .
O31 O 0.41995(10) 0.7156(3) 0.33767(10) 0.0868(12) Uani 1 1 d . . . . .
O32 O 0.39898(10) 0.6047(2) 0.28766(10) 0.0721(10) Uani 1 1 d . . . . .
O33 O 0.35377(9) 0.6992(2) 0.31869(9) 0.0645(10) Uani 1 1 d . . . . .
O34 O 0.39285(13) 0.7672(3) 0.27357(10) 0.1030(14) Uani 1 1 d . . . . .
Cl4 Cl 0.70709(3) 0.39567(7) -0.12350(3) 0.0526(3) Uani 1 1 d . . . . .
O41 O 0.74513(14) 0.3836(5) -0.13440(15) 0.186(3) Uani 1 1 d . . . . .
O42 O 0.6905(2) 0.4744(3) -0.14076(13) 0.165(3) Uani 1 1 d . . . . .
O43 O 0.68741(13) 0.3128(2) -0.13458(14) 0.1199(16) Uani 1 1 d . . . . .
O44 O 0.71212(10) 0.4048(3) -0.08102(9) 0.0761(11) Uani 1 1 d . . . . .
Cl7 Cl 0.49680(5) -0.60260(11) -0.13414(6) 0.1138(6) Uani 1 1 d . . . . .
O71 O 0.4947(2) -0.5809(5) -0.09263(19) 0.323(3) Uani 1 1 d . . . . .
O72 O 0.49368(17) -0.6977(3) -0.13965(15) 0.150(2) Uani 1 1 d . . . . .
O73 O 0.52908(12) -0.5551(3) -0.14348(14) 0.1254(16) Uani 1 1 d . . . . .
O74 O 0.46319(15) -0.5614(4) -0.1554(3) 0.278(5) Uani 1 1 d . . . . .
Cl5 Cl 0.95941(4) 0.11418(12) 0.06433(5) 0.1128(5) Uani 1 1 d . . . . .
O51 O 0.9368(2) 0.1509(5) 0.0313(2) 0.077(2) Uiso 0.5 1 d . . P E 1
O52 O 0.9924(2) 0.1675(6) 0.0655(2) 0.095(2) Uiso 0.5 1 d . . P E 1
O54 O 0.9392(4) 0.1819(8) 0.1000(4) 0.169(4) Uiso 0.5 1 d . . P E 1
O53 O 0.9473(2) 0.0203(5) 0.0716(2) 0.074(2) Uiso 0.5 1 d . . P E 1
O51' O 0.9238(3) 0.1491(7) 0.0597(3) 0.139(4) Uiso 0.5 1 d . . P E 2
O52' O 0.9931(3) 0.0839(6) 0.0389(3) 0.112(3) Uiso 0.5 1 d . . P E 2
O53' O 0.96359(18) 0.0300(4) 0.08828(18) 0.0589(17) Uiso 0.5 1 d . . P E 2
O54' O 0.9814(3) 0.1711(7) 0.0929(3) 0.124(3) Uiso 0.5 1 d . . P E 2
Cl6 Cl 0.16975(8) 0.2813(2) -0.31041(5) 0.1685(11) Uani 1 1 d . . . . .
O61 O 0.18963(15) 0.3393(3) -0.33605(12) 0.1184(17) Uani 1 1 d . . . . .
O62 O 0.1481(4) 0.3715(9) -0.2877(4) 0.170(4) Uiso 0.5 1 d . . P F 2
O63 O 0.1383(3) 0.2651(7) -0.3336(3) 0.117(3) Uiso 0.5 1 d . . P F 2
O64 O 0.1891(3) 0.2406(7) -0.2836(3) 0.133(3) Uiso 0.5 1 d . . P F 2
O62' O 0.1610(3) 0.2895(9) -0.2719(4) 0.167(4) Uiso 0.5 1 d . . P F 1
O63' O 0.1358(3) 0.2118(6) -0.3357(3) 0.108(3) Uiso 0.5 1 d . . P F 1
O64' O 0.1985(2) 0.1849(5) -0.3037(2) 0.077(2) Uiso 0.5 1 d . . P F 1
O81 O -0.0275(2) 0.3982(4) -0.08422(15) 0.202(3) Uani 1 1 d . . . . .
O82 O -0.0685(2) 0.4342(4) -0.14465(17) 0.205(3) Uani 1 1 d . . . . .
O83 O -0.0351(2) 0.2927(4) -0.13572(17) 0.183(3) Uani 1 1 d . . . . .
Cl8 Cl -0.03418(10) 0.3885(2) -0.12339(9) 0.0902(9) Uiso 0.5 1 d . . P G 1
O84 O -0.0022(3) 0.4241(7) -0.1316(3) 0.142(4) Uiso 0.5 1 d . . P G 1
Cl8' Cl -0.05961(12) 0.3748(3) -0.11477(11) 0.1150(12) Uiso 0.5 1 d . . P G 2
O84' O -0.0899(5) 0.3285(11) -0.1012(5) 0.242(7) Uiso 0.5 1 d . . P G 2
O400 O 0.28872(8) 0.6197(2) 0.27186(9) 0.0674(10) Uani 1 1 d . . . . .
H40E H 0.3080 0.6424 0.2849 0.101 Uiso 1 1 calc R U . . .
C400 C 0.30043(16) 0.5701(5) 0.23791(14) 0.094(2) Uani 1 1 d . . . . .
H40B H 0.2779 0.5425 0.2229 0.140 Uiso 1 1 calc R U . . .
H40C H 0.3185 0.5203 0.2468 0.140 Uiso 1 1 calc R U . . .
H40D H 0.3127 0.6141 0.2212 0.140 Uiso 1 1 calc R U . . .
C300 C 0.4166(2) 0.3218(7) -0.0671(2) 0.188(5) Uani 1 1 d . . . . .
H30B H 0.4341 0.3754 -0.0658 0.282 Uiso 1 1 calc R U . . .
H30C H 0.4306 0.2646 -0.0725 0.282 Uiso 1 1 calc R U . . .
H30D H 0.4058 0.3152 -0.0420 0.282 Uiso 1 1 calc R U . . .
N300 N 0.35904(19) 0.3439(4) -0.12526(18) 0.146(2) Uani 1 1 d . . . . .
C301 C 0.3864(2) 0.3365(4) -0.09779(19) 0.142(2) Uani 1 1 d . . . . .
O3W O 0.2813(2) 0.5868(6) -0.2093(2) 0.112(3) Uiso 0.5 1 d . . P H 1
H3WA H 0.2857 0.5315 -0.2183 0.167 Uiso 0.5 1 d R U P H 1
H3WB H 0.2572 0.6003 -0.2145 0.167 Uiso 0.5 1 d R U P H 1
N310 N 0.2731(2) 0.5193(6) -0.2147(2) 0.070(2) Uiso 0.5 1 d . . P I 2
C310 C 0.2500(3) 0.4774(8) -0.2254(3) 0.082(3) Uiso 0.5 1 d . . P I 2
C311 C 0.2141(3) 0.4616(7) -0.2375(3) 0.064(3) Uiso 0.5 1 d . . P I 2
H31E H 0.2108 0.3954 -0.2447 0.096 Uiso 0.5 1 calc R U P I 2
H31F H 0.1983 0.4765 -0.2163 0.096 Uiso 0.5 1 calc R U P I 2
H31G H 0.2063 0.5010 -0.2603 0.096 Uiso 0.5 1 calc R U P I 2
O210 O 0.0597(3) 0.2302(9) -0.1863(3) 0.184(5) Uiso 0.5 1 d D . P J 2
C212 C 0.0410(3) 0.2214(11) -0.1514(3) 0.133(5) Uiso 0.5 1 d D . P J 2
H21B H 0.0243 0.2763 -0.1485 0.160 Uiso 0.5 1 calc R U P J 2
H21K H 0.0250 0.1642 -0.1526 0.160 Uiso 0.5 1 calc R U P J 2
C210 C 0.0452(3) 0.2356(10) -0.2592(3) 0.139(6) Uiso 0.5 1 d D . P J 2
H21C H 0.0245 0.2290 -0.2805 0.209 Uiso 0.5 1 calc R U P J 2
H21D H 0.0563 0.2985 -0.2599 0.209 Uiso 0.5 1 calc R U P J 2
H21E H 0.0650 0.1887 -0.2623 0.209 Uiso 0.5 1 calc R U P J 2
C211 C 0.0281(4) 0.2197(12) -0.2170(3) 0.156(6) Uiso 0.5 1 d D . P J 2
H21F H 0.0080 0.2667 -0.2135 0.187 Uiso 0.5 1 calc R U P J 2
H21G H 0.0168 0.1563 -0.2158 0.187 Uiso 0.5 1 calc R U P J 2
C213 C 0.0691(3) 0.2162(8) -0.1198(3) 0.078(3) Uiso 0.5 1 d D . P J 2
H21H H 0.0570 0.2102 -0.0954 0.117 Uiso 0.5 1 calc R U P J 2
H21I H 0.0854 0.1616 -0.1229 0.117 Uiso 0.5 1 calc R U P J 2
H21J H 0.0847 0.2733 -0.1187 0.117 Uiso 0.5 1 calc R U P J 2
loop_
_atom_site_aniso_label
_atom_site_aniso_U_11
_atom_site_aniso_U_22
_atom_site_aniso_U_33
_atom_site_aniso_U_23
_atom_site_aniso_U_13
_atom_site_aniso_U_12
Ni1 0.0383(3) 0.0333(3) 0.0441(3) 0.0052(2) 0.0003(2) 0.0037(2)
Ni2 0.0326(3) 0.0500(3) 0.0430(3) 0.0048(3) -0.0005(2) 0.0040(3)
Ni3 0.0277(2) 0.0361(3) 0.0406(3) -0.0006(2) 0.0041(2) 0.0001(2)
Ni4 0.0411(3) 0.0330(3) 0.0381(2) 0.0048(2) 0.0089(2) 0.0003(2)
N1 0.0408(18) 0.0405(18) 0.0365(16) 0.0129(15) 0.0016(14) -0.0090(16)
N2 0.0362(17) 0.0353(17) 0.0338(16) -0.0014(14) 0.0066(13) 0.0010(15)
N3 0.0451(19) 0.0342(17) 0.0336(16) 0.0095(14) -0.0059(15) -0.0034(15)
N4 0.0395(18) 0.0303(17) 0.0423(17) -0.0018(15) 0.0084(14) 0.0015(15)
N5 0.0304(17) 0.0462(19) 0.0390(17) 0.0080(15) -0.0002(14) 0.0045(15)
N6 0.0294(17) 0.051(2) 0.055(2) 0.0001(18) 0.0040(15) 0.0001(16)
N7 0.0321(17) 0.0438(19) 0.0338(16) 0.0019(15) 0.0035(14) -0.0006(15)
N8 0.0373(17) 0.0257(15) 0.0354(15) 0.0024(14) 0.0077(13) -0.0049(14)
N9 0.051(2) 0.0296(17) 0.0410(17) 0.0073(15) 0.0027(15) 0.0027(16)
N10 0.066(2) 0.050(2) 0.057(2) 0.0234(18) 0.0141(18) 0.0131(19)
N11 0.044(2) 0.0358(18) 0.061(2) 0.0078(17) -0.0057(17) 0.0059(16)
N12 0.0283(17) 0.063(2) 0.054(2) -0.0032(18) 0.0098(15) -0.0020(17)
N13 0.0345(19) 0.118(3) 0.049(2) -0.005(2) 0.0078(16) -0.018(2)
N14 0.0368(19) 0.060(2) 0.053(2) -0.0003(18) -0.0042(17) 0.0032(18)
N15 0.0308(17) 0.0493(19) 0.0401(17) 0.0159(16) 0.0017(14) -0.0081(15)
N16 0.0335(17) 0.0405(18) 0.0344(16) 0.0013(15) 0.0037(14) -0.0074(15)
N17 0.0364(18) 0.0387(18) 0.057(2) 0.0089(16) -0.0012(16) -0.0108(16)
N18 0.055(2) 0.0391(18) 0.0403(17) -0.0009(16) 0.0099(15) -0.0163(16)
N19 0.0300(16) 0.0451(18) 0.0287(15) 0.0026(14) 0.0022(13) 0.0024(15)
N20 0.0246(16) 0.0398(18) 0.0531(19) -0.0018(16) -0.0021(15) 0.0089(15)
N21 0.0416(18) 0.0346(17) 0.0376(16) 0.0003(15) 0.0037(14) -0.0056(15)
N22 0.0342(17) 0.0275(16) 0.0372(16) 0.0009(14) 0.0062(13) -0.0059(14)
N23 0.0416(18) 0.0345(17) 0.0391(16) 0.0071(15) 0.0088(14) 0.0054(15)
N24 0.067(2) 0.046(2) 0.0562(19) 0.0234(17) 0.0320(16) 0.0210(18)
N25 0.048(2) 0.0434(19) 0.0508(19) 0.0091(17) 0.0152(16) 0.0100(17)
N26 0.0268(16) 0.0475(19) 0.0433(17) -0.0049(16) 0.0088(14) -0.0072(15)
N27 0.0317(18) 0.096(3) 0.050(2) 0.007(2) 0.0074(16) -0.0231(19)
N28 0.0288(17) 0.047(2) 0.0489(19) -0.0045(16) -0.0010(15) -0.0002(15)
N29 0.0379(19) 0.060(2) 0.060(2) -0.0028(19) 0.0023(17) 0.0147(18)
N30 0.042(2) 0.047(2) 0.052(2) 0.0128(17) -0.0079(17) -0.0024(17)
N32 0.045(2) 0.076(3) 0.0433(19) 0.0127(19) 0.0014(16) -0.0054(19)
N33 0.048(2) 0.046(2) 0.0407(18) -0.0002(16) 0.0004(16) -0.0021(17)
N34 0.0322(18) 0.0444(19) 0.055(2) -0.0002(17) 0.0057(15) 0.0087(16)
N35 0.0438(19) 0.0418(19) 0.0432(18) 0.0115(16) 0.0067(15) 0.0040(16)
N36 0.060(2) 0.062(2) 0.0543(19) -0.0037(19) 0.0296(16) -0.0042(19)
C1 0.040(2) 0.036(2) 0.0365(19) -0.0059(18) 0.0062(17) -0.0089(18)
C2 0.033(2) 0.039(2) 0.043(2) 0.0040(18) 0.0101(17) -0.0142(18)
C3 0.037(2) 0.044(2) 0.039(2) -0.0026(19) 0.0026(17) -0.0089(19)
C4 0.035(2) 0.0294(19) 0.0370(19) -0.0013(17) 0.0095(16) -0.0014(17)
C5 0.035(2) 0.031(2) 0.0318(18) -0.0058(16) 0.0087(16) -0.0040(17)
C6 0.034(2) 0.033(2) 0.0289(18) 0.0004(16) 0.0091(15) -0.0040(17)
C7 0.039(2) 0.046(2) 0.039(2) 0.0120(19) 0.0027(18) -0.0025(19)
C8 0.052(3) 0.064(3) 0.056(3) 0.025(2) 0.002(2) -0.015(2)
C9 0.050(3) 0.059(3) 0.061(3) 0.025(2) 0.003(2) 0.001(2)
C10 0.039(2) 0.045(2) 0.044(2) 0.0135(19) 0.0059(18) 0.0005(19)
C11 0.039(2) 0.039(2) 0.0344(19) 0.0077(18) 0.0025(17) -0.0038(19)
C12 0.038(2) 0.037(2) 0.0325(19) 0.0047(17) 0.0071(16) -0.0020(18)
C13 0.0278(19) 0.038(2) 0.0354(19) 0.0000(17) 0.0002(16) 0.0028(17)
C14 0.038(2) 0.039(2) 0.0368(19) 0.0018(18) 0.0092(17) 0.0000(19)
C15 0.053(3) 0.054(3) 0.043(2) 0.013(2) -0.009(2) -0.012(2)
C16 0.054(3) 0.051(3) 0.060(3) 0.004(2) -0.004(2) -0.019(2)
C17 0.055(3) 0.037(2) 0.064(3) -0.004(2) 0.004(2) -0.011(2)
C18 0.052(3) 0.028(2) 0.062(3) 0.007(2) 0.000(2) 0.004(2)
C19 0.044(2) 0.051(2) 0.047(2) 0.019(2) 0.0025(19) 0.005(2)
C20 0.033(2) 0.047(2) 0.0293(18) -0.0030(18) -0.0037(16) 0.0013(19)
C21 0.038(2) 0.041(2) 0.064(3) -0.008(2) -0.004(2) 0.002(2)
C22 0.052(3) 0.048(3) 0.062(3) -0.003(2) -0.006(2) 0.009(2)
C23 0.060(3) 0.049(3) 0.046(2) -0.003(2) -0.007(2) -0.007(2)
C24 0.034(2) 0.057(3) 0.045(2) 0.000(2) 0.0017(18) -0.002(2)
C25 0.049(2) 0.038(2) 0.046(2) 0.0128(19) 0.0074(19) -0.009(2)
C26 0.061(3) 0.045(2) 0.043(2) 0.013(2) 0.008(2) -0.003(2)
C27 0.100(4) 0.068(3) 0.104(4) 0.005(3) 0.059(3) -0.019(3)
C28 0.148(4) 0.097(4) 0.129(4) 0.013(4) 0.104(3) -0.021(4)
C29 0.181(6) 0.078(4) 0.078(3) 0.012(3) 0.073(3) 0.004(4)
C30 0.107(4) 0.059(3) 0.059(3) 0.009(3) 0.020(3) 0.004(3)
C31 0.069(3) 0.064(3) 0.055(3) 0.018(2) -0.002(2) 0.013(3)
C32 0.040(2) 0.0290(19) 0.0265(17) 0.0015(16) 0.0068(16) -0.0014(17)
C33 0.035(2) 0.032(2) 0.0356(19) 0.0011(17) 0.0089(16) -0.0078(17)
C34 0.038(2) 0.033(2) 0.0333(19) 0.0000(17) 0.0060(16) 0.0062(18)
C35 0.040(2) 0.0290(19) 0.0295(18) 0.0008(16) 0.0083(16) 0.0060(17)
C36 0.043(2) 0.0276(19) 0.0388(19) -0.0037(17) 0.0169(16) -0.0073(17)
C37 0.0321(19) 0.0235(18) 0.0295(17) -0.0028(15) 0.0101(15) -0.0034(16)
C38 0.0272(19) 0.0284(19) 0.0393(19) -0.0040(17) 0.0087(16) -0.0027(16)
C39 0.035(2) 0.0292(19) 0.045(2) 0.0049(18) 0.0097(17) -0.0021(17)
C40 0.038(2) 0.039(2) 0.041(2) 0.0044(18) 0.0071(17) 0.0066(19)
C41 0.034(2) 0.041(2) 0.0354(19) -0.0072(17) 0.0113(16) -0.0030(18)
C42 0.040(2) 0.034(2) 0.038(2) -0.0051(17) 0.0098(17) -0.0071(18)
C43 0.037(2) 0.0262(18) 0.0323(18) -0.0036(16) 0.0117(15) -0.0066(17)
C44 0.050(2) 0.032(2) 0.040(2) 0.0043(18) 0.0111(18) -0.0024(19)
C45 0.046(2) 0.036(2) 0.049(2) 0.0116(19) -0.013(2) -0.008(2)
C46 0.062(3) 0.047(3) 0.079(3) 0.033(2) -0.008(3) -0.008(2)
C47 0.061(3) 0.050(3) 0.113(4) 0.038(3) -0.020(3) 0.000(2)
C48 0.047(3) 0.059(3) 0.117(4) 0.022(3) -0.004(3) 0.017(2)
C49 0.046(3) 0.042(3) 0.102(4) 0.009(3) -0.002(3) 0.011(2)
C50 0.039(2) 0.055(3) 0.041(2) 0.001(2) 0.0115(17) -0.006(2)
C51 0.035(2) 0.064(3) 0.067(3) -0.001(2) 0.009(2) -0.003(2)
C52 0.033(2) 0.104(4) 0.076(3) -0.011(3) 0.004(2) -0.002(3)
C53 0.036(3) 0.107(4) 0.116(4) -0.003(4) -0.016(3) -0.006(3)
C54 0.053(3) 0.120(5) 0.076(3) 0.003(3) -0.023(3) 0.004(3)
C55 0.046(3) 0.081(3) 0.058(3) 0.002(3) -0.013(2) 0.013(3)
C56 0.036(2) 0.034(2) 0.051(2) 0.0098(19) 0.0078(18) -0.0106(18)
C57 0.048(2) 0.0249(19) 0.049(2) 0.0030(18) 0.0058(19) -0.0137(18)
C58 0.064(3) 0.036(2) 0.073(3) -0.012(2) 0.002(2) -0.007(2)
C59 0.087(4) 0.049(3) 0.075(3) -0.014(3) 0.002(3) -0.014(3)
C60 0.100(4) 0.059(3) 0.090(3) -0.037(3) 0.030(3) -0.028(3)
C61 0.068(3) 0.045(3) 0.099(3) -0.022(3) 0.034(3) -0.007(2)
C62 0.045(2) 0.041(2) 0.066(3) -0.001(2) 0.012(2) -0.005(2)
C63 0.034(2) 0.041(2) 0.038(2) 0.0049(18) -0.0005(17) -0.0084(18)
C64 0.031(2) 0.049(2) 0.047(2) 0.009(2) 0.0057(18) -0.0131(19)
C65 0.034(2) 0.047(2) 0.0346(19) 0.0125(18) -0.0030(17) -0.0046(19)
C66 0.0292(19) 0.034(2) 0.0368(19) 0.0013(17) 0.0023(16) -0.0049(17)
C67 0.0271(19) 0.039(2) 0.0357(19) 0.0007(17) 0.0061(16) -0.0066(17)
C68 0.0258(18) 0.038(2) 0.0269(17) 0.0013(16) 0.0075(14) -0.0085(17)
C69 0.036(2) 0.043(2) 0.0311(19) 0.0082(17) 0.0007(16) -0.0085(18)
C70 0.035(2) 0.049(2) 0.043(2) 0.0130(19) 0.0042(18) -0.0091(19)
C71 0.035(2) 0.047(2) 0.044(2) 0.008(2) 0.0008(18) -0.0010(19)
C72 0.033(2) 0.033(2) 0.0342(18) 0.0018(17) 0.0040(16) -0.0060(17)
C73 0.034(2) 0.036(2) 0.0268(17) 0.0026(16) 0.0101(15) 0.0008(17)
C74 0.035(2) 0.038(2) 0.0253(17) 0.0017(16) 0.0088(15) -0.0025(18)
C75 0.030(2) 0.046(2) 0.039(2) 0.0068(19) 0.0089(16) -0.0054(18)
C76 0.050(2) 0.052(3) 0.039(2) 0.001(2) 0.0060(19) -0.008(2)
C77 0.051(3) 0.067(3) 0.060(3) 0.003(2) 0.000(2) -0.025(2)
C78 0.063(3) 0.072(3) 0.070(3) -0.007(3) 0.013(2) -0.031(3)
C79 0.077(3) 0.062(3) 0.062(3) -0.006(2) 0.006(3) -0.039(2)
C80 0.074(3) 0.047(3) 0.061(3) -0.002(2) 0.020(2) -0.016(2)
C81 0.034(2) 0.040(2) 0.0359(19) 0.0044(18) 0.0044(16) 0.0003(18)
C82 0.043(2) 0.036(2) 0.040(2) -0.0054(18) -0.0045(18) 0.0058(19)
C83 0.058(3) 0.047(2) 0.056(3) -0.010(2) -0.017(2) 0.012(2)
C84 0.077(3) 0.041(3) 0.076(3) -0.004(2) -0.027(3) 0.010(2)
C85 0.082(3) 0.028(2) 0.065(3) 0.003(2) -0.005(3) -0.012(2)
C86 0.049(2) 0.046(2) 0.048(2) -0.003(2) 0.001(2) -0.009(2)
C87 0.037(2) 0.071(3) 0.070(3) 0.043(2) 0.000(2) -0.021(2)
C88 0.041(2) 0.116(4) 0.054(2) 0.054(2) 0.0230(18) 0.022(3)
C94 0.0282(19) 0.032(2) 0.040(2) -0.0048(17) 0.0031(16) 0.0050(17)
C95 0.034(2) 0.039(2) 0.043(2) 0.0005(19) 0.0056(17) -0.0026(18)
C96 0.036(2) 0.052(2) 0.043(2) 0.004(2) 0.0076(18) 0.012(2)
C97 0.040(2) 0.033(2) 0.0386(19) 0.0033(17) 0.0157(16) 0.0075(18)
C98 0.040(2) 0.030(2) 0.0402(19) 0.0000(17) 0.0177(16) -0.0009(18)
C99 0.036(2) 0.034(2) 0.0329(18) -0.0060(17) 0.0108(16) -0.0026(18)
C100 0.036(2) 0.0302(19) 0.0306(18) -0.0051(16) 0.0106(15) -0.0024(17)
C101 0.035(2) 0.0277(19) 0.0315(18) -0.0014(16) 0.0077(15) -0.0016(17)
C102 0.038(2) 0.042(2) 0.0300(18) -0.0029(17) 0.0063(16) 0.0035(19)
C103 0.0323(19) 0.0315(19) 0.0337(18) -0.0071(17) 0.0096(15) -0.0036(17)
C104 0.042(2) 0.0287(19) 0.0324(18) -0.0042(16) 0.0098(16) -0.0003(18)
C105 0.0327(19) 0.0301(19) 0.0281(17) -0.0017(16) 0.0057(15) 0.0022(17)
C106 0.047(2) 0.047(2) 0.049(2) 0.008(2) 0.0204(18) 0.007(2)
C107 0.043(2) 0.040(2) 0.052(2) 0.008(2) 0.0105(19) 0.006(2)
C108 0.076(3) 0.044(2) 0.065(3) 0.020(2) 0.019(2) 0.009(2)
C109 0.099(4) 0.043(3) 0.118(4) 0.038(3) 0.044(3) 0.024(3)
C110 0.114(4) 0.042(3) 0.137(4) 0.024(3) 0.071(3) 0.026(3)
C111 0.075(3) 0.048(3) 0.092(3) 0.018(2) 0.052(2) 0.021(2)
C112 0.037(2) 0.053(2) 0.040(2) -0.005(2) 0.0117(17) -0.013(2)
C113 0.028(2) 0.044(2) 0.056(2) -0.012(2) 0.0069(18) -0.0074(19)
C114 0.037(2) 0.073(3) 0.061(3) -0.014(2) 0.010(2) -0.013(2)
C115 0.028(2) 0.066(3) 0.092(3) -0.029(3) 0.011(2) 0.000(2)
C116 0.035(2) 0.088(4) 0.079(3) 0.001(3) -0.003(2) 0.005(3)
C117 0.039(2) 0.065(3) 0.077(3) 0.004(3) -0.002(2) 0.006(2)
C118 0.032(2) 0.035(2) 0.049(2) 0.0018(19) 0.0078(17) -0.0054(18)
C119 0.041(2) 0.028(2) 0.048(2) 0.0018(18) 0.0098(18) -0.0093(18)
C120 0.067(3) 0.042(3) 0.060(3) 0.001(2) 0.004(2) -0.006(2)
C121 0.105(4) 0.064(3) 0.057(3) -0.017(3) -0.002(3) -0.018(3)
C122 0.119(4) 0.062(3) 0.081(3) -0.030(3) 0.042(3) -0.036(3)
C123 0.068(3) 0.047(3) 0.104(3) -0.027(3) 0.041(3) -0.014(2)
C124 0.053(3) 0.033(2) 0.078(3) -0.013(2) 0.009(2) -0.009(2)
C125 0.076(3) 0.119(5) 0.081(3) 0.026(3) 0.036(3) 0.036(3)
C126 0.048(3) 0.066(3) 0.060(3) 0.000(2) -0.005(2) 0.019(2)
C127 0.082(4) 0.072(3) 0.075(3) 0.000(3) -0.025(3) -0.008(3)
C128 0.050(3) 0.036(2) 0.061(3) 0.009(2) -0.004(2) 0.000(2)
C132 0.070(3) 0.112(4) 0.051(3) 0.005(3) 0.007(3) -0.011(3)
C133 0.105(4) 0.083(4) 0.042(3) -0.003(3) 0.001(3) -0.021(3)
C134 0.054(3) 0.040(2) 0.055(3) -0.003(2) 0.004(2) -0.008(2)
C135 0.075(3) 0.043(3) 0.080(3) 0.001(2) 0.013(3) 0.023(2)
C136 0.033(2) 0.060(3) 0.052(2) -0.006(2) 0.0035(19) 0.001(2)
C137 0.072(4) 0.083(4) 0.080(3) 0.002(3) -0.022(3) -0.020(3)
C138 0.043(2) 0.044(2) 0.051(2) 0.004(2) -0.003(2) 0.002(2)
C140 0.116(4) 0.089(4) 0.102(3) -0.011(3) 0.063(3) -0.016(4)
Cl1 0.0518(7) 0.0697(8) 0.0631(7) 0.0190(6) 0.0083(5) 0.0012(6)
O11 0.167(4) 0.082(3) 0.105(3) 0.015(2) 0.034(3) 0.036(3)
O12 0.153(4) 0.259(6) 0.083(3) 0.079(3) 0.029(3) 0.056(4)
O13 0.093(3) 0.094(3) 0.137(3) 0.010(3) 0.008(3) -0.027(2)
O14 0.044(2) 0.179(4) 0.141(4) 0.019(3) 0.001(2) -0.018(3)
Cl2 0.0669(7) 0.0416(6) 0.0778(7) 0.0152(6) 0.0314(5) 0.0054(6)
O21 0.330(7) 0.057(2) 0.110(3) 0.027(2) 0.007(4) -0.044(3)
O22 0.103(4) 0.457(10) 0.084(3) 0.036(5) 0.020(3) -0.032(5)
O23 0.261(6) 0.067(3) 0.105(3) 0.004(2) 0.022(4) 0.032(3)
O24 0.142(4) 0.099(3) 0.094(3) 0.032(2) -0.006(3) 0.026(3)
Cl3 0.0585(7) 0.0518(6) 0.0501(6) 0.0036(5) 0.0110(5) 0.0073(5)
O31 0.068(2) 0.114(3) 0.076(2) -0.015(2) -0.0013(19) -0.016(2)
O32 0.084(2) 0.0513(18) 0.083(2) -0.0157(17) 0.0180(18) 0.0170(17)
O33 0.0535(18) 0.086(2) 0.0536(17) -0.0054(17) 0.0046(15) 0.0170(17)
O34 0.171(4) 0.068(2) 0.078(2) 0.0285(19) 0.052(2) 0.028(2)
Cl4 0.0595(7) 0.0376(5) 0.0615(6) -0.0030(5) 0.0092(5) -0.0113(5)
O41 0.106(3) 0.319(7) 0.145(4) -0.092(4) 0.064(3) -0.057(4)
O42 0.345(8) 0.056(2) 0.081(3) 0.016(2) -0.035(4) 0.027(3)
O43 0.134(3) 0.0400(19) 0.166(4) 0.011(2) -0.076(3) -0.032(2)
O44 0.083(2) 0.092(2) 0.0538(18) 0.0075(18) 0.0099(17) -0.013(2)
Cl7 0.0953(10) 0.0861(10) 0.1698(14) -0.0405(10) 0.0598(9) -0.0443(8)
O71 0.374(7) 0.367(7) 0.269(5) -0.217(5) 0.230(4) -0.250(5)
O72 0.227(5) 0.067(3) 0.139(4) 0.010(3) -0.063(4) -0.035(3)
O73 0.105(3) 0.107(3) 0.176(4) 0.012(3) 0.072(3) -0.003(3)
O74 0.067(3) 0.123(4) 0.624(15) 0.017(7) -0.056(6) 0.011(3)
Cl5 0.0405(7) 0.1217(11) 0.1724(13) 0.0910(9) -0.0073(8) -0.0127(7)
Cl6 0.203(2) 0.251(3) 0.0503(9) 0.0124(13) 0.0120(12) 0.046(2)
O61 0.176(4) 0.092(3) 0.082(3) 0.009(2) -0.010(3) 0.037(3)
O81 0.331(8) 0.168(5) 0.091(3) -0.057(3) -0.058(4) 0.030(5)
O82 0.273(7) 0.160(5) 0.164(4) 0.087(4) -0.062(5) 0.008(5)
O83 0.286(7) 0.100(4) 0.151(4) -0.039(3) -0.033(5) 0.024(4)
O400 0.0420(17) 0.095(2) 0.0656(19) 0.0055(18) 0.0087(15) -0.0099(17)
C400 0.078(4) 0.151(6) 0.054(3) -0.007(4) 0.018(3) -0.004(4)
C300 0.144(8) 0.282(12) 0.135(7) 0.027(8) 0.003(6) -0.035(8)
N300 0.224(6) 0.067(3) 0.165(4) -0.010(3) 0.113(4) -0.034(4)
C301 0.215(5) 0.056(4) 0.186(4) -0.015(3) 0.172(3) -0.021(4)
loop_
_atom_type_symbol
_atom_type_description
_atom_type_scat_dispersion_real
_atom_type_scat_dispersion_imag
_atom_type_scat_source
C C 0.0033 0.0016 'International Tables Vol C Tables 4.2.6.8 and 6.1.1.4'
H H 0.0000 0.0000 'International Tables Vol C Tables 4.2.6.8 and 6.1.1.4'
N N 0.0061 0.0033 'International Tables Vol C Tables 4.2.6.8 and 6.1.1.4'
O O 0.0106 0.0060 'International Tables Vol C Tables 4.2.6.8 and 6.1.1.4'
Ni Ni 0.3393 1.1124 'International Tables Vol C Tables 4.2.6.8 and 6.1.1.4'
Cl Cl 0.1484 0.1585 'International Tables Vol C Tables 4.2.6.8 and 6.1.1.4'
loop_
_geom_angle_atom_site_label_1
_geom_angle_atom_site_label_2
_geom_angle_atom_site_label_3
_geom_angle
N30 Ni1 N11 90.68(13)
N30 Ni1 N4 170.53(13)
N11 Ni1 N4 96.44(12)
N30 Ni1 N2 94.03(12)
N11 Ni1 N2 174.04(13)
N4 Ni1 N2 79.30(12)
N30 Ni1 N29 91.77(14)
N11 Ni1 N29 93.23(14)
N4 Ni1 N29 94.05(13)
N2 Ni1 N29 82.98(13)
N30 Ni1 N9 90.54(13)
N11 Ni1 N9 78.46(13)
N4 Ni1 N9 84.80(12)
N2 Ni1 N9 105.12(11)
N29 Ni1 N9 171.40(13)
N7 Ni2 N14 98.70(13)
N7 Ni2 N31 169.09(13)
N14 Ni2 N31 91.22(14)
N7 Ni2 N5 79.18(12)
N14 Ni2 N5 175.53(13)
N31 Ni2 N5 91.23(13)
N7 Ni2 N32 91.77(13)
N14 Ni2 N32 91.57(14)
N31 Ni2 N32 92.50(14)
N5 Ni2 N32 84.59(13)
N7 Ni2 N12 84.21(12)
N14 Ni2 N12 77.83(13)
N31 Ni2 N12 93.52(14)
N5 Ni2 N12 105.75(12)
N32 Ni2 N12 167.90(13)
N34 Ni3 N28 89.33(13)
N34 Ni3 N21 171.75(12)
N28 Ni3 N21 97.76(13)
N34 Ni3 N33 90.66(13)
N28 Ni3 N33 91.27(13)
N21 Ni3 N33 93.38(12)
N34 Ni3 N19 94.02(12)
N28 Ni3 N19 176.64(13)
N21 Ni3 N19 78.90(12)
N33 Ni3 N19 88.55(12)
N34 Ni3 N26 94.46(12)
N28 Ni3 N26 78.52(12)
N21 Ni3 N26 82.89(12)
N33 Ni3 N26 168.50(12)
N19 Ni3 N26 101.33(11)
N18 Ni4 N25 95.99(13)
N18 Ni4 N35 171.23(13)
N25 Ni4 N35 91.82(13)
N18 Ni4 N36 92.04(13)
N25 Ni4 N36 93.04(14)
N35 Ni4 N36 91.51(13)
N18 Ni4 N16 78.27(12)
N25 Ni4 N16 173.52(13)
N35 Ni4 N16 94.12(12)
N36 Ni4 N16 84.24(13)
N18 Ni4 N23 85.87(12)
N25 Ni4 N23 78.85(12)
N35 Ni4 N23 91.76(12)
N36 Ni4 N23 171.34(13)
N16 Ni4 N23 103.51(12)
C7 N1 C1 108.6(3)
C7 N1 C25 126.9(3)
C1 N1 C25 124.5(3)
C13 N2 N3 119.7(3)
C13 N2 Ni1 129.2(2)
N3 N2 Ni1 111.0(2)
N2 N3 C14 118.4(3)
C14 N4 C18 117.6(3)
C14 N4 Ni1 114.3(2)
C18 N4 Ni1 128.0(3)
C19 N5 N6 118.1(3)
C19 N5 Ni2 130.7(3)
N6 N5 Ni2 110.9(2)
C20 N6 N5 118.3(3)
C20 N7 C24 117.4(3)
C20 N7 Ni2 114.0(2)
C24 N7 Ni2 128.5(3)
C32 N8 C38 109.2(3)
C32 N8 C56 124.6(3)
C38 N8 C56 125.2(3)
C44 N9 N10 115.5(3)
C44 N9 Ni1 133.1(3)
N10 N9 Ni1 108.3(2)
C45 N10 N9 120.8(3)
C45 N11 C49 119.1(4)
C45 N11 Ni1 115.3(3)
C49 N11 Ni1 125.6(3)
C50 N12 N13 115.1(3)
C50 N12 Ni2 132.1(3)
N13 N12 Ni2 108.0(2)
C51 N13 N12 120.8(4)
C51 N14 C55 117.6(4)
C51 N14 Ni2 115.3(3)
C55 N14 Ni2 126.6(3)
C63 N15 C69 108.7(3)
C63 N15 C87 124.6(3)
C69 N15 C87 126.0(3)
C75 N16 N17 119.2(3)
C75 N16 Ni4 129.0(2)
N17 N16 Ni4 111.4(2)
N16 N17 C76 118.3(3)
C76 N18 C80 117.2(4)
C76 N18 Ni4 114.7(3)
C80 N18 Ni4 127.7(3)
C81 N19 N20 120.0(3)
C81 N19 Ni3 129.3(3)
N20 N19 Ni3 110.7(2)
C82 N20 N19 118.5(3)
C82 N21 C86 117.8(3)
C82 N21 Ni3 113.4(2)
C86 N21 Ni3 128.3(3)
C100 N22 C94 108.4(3)
C100 N22 C118 125.8(3)
C94 N22 C118 124.2(3)
C106 N23 N24 115.7(3)
C106 N23 Ni4 132.9(3)
N24 N23 Ni4 108.7(2)
N23 N24 C107 121.2(3)
C107 N25 C111 117.5(3)
C107 N25 Ni4 114.9(3)
C111 N25 Ni4 127.6(3)
C112 N26 N27 114.0(3)
C112 N26 Ni3 135.2(3)
N27 N26 Ni3 105.8(2)
C113 N27 N26 120.3(3)
C113 N28 C117 116.1(3)
C113 N28 Ni3 116.0(2)
C117 N28 Ni3 127.9(3)
C126 N29 Ni1 158.7(4)
C128 N30 Ni1 168.5(4)
C132 N32 Ni2 172.6(4)
C134 N33 Ni3 174.7(3)
C136 N34 Ni3 170.4(3)
C138 N35 Ni4 175.7(3)
C140 N36 Ni4 156.6(4)
N1 C1 C2 130.5(3)
N1 C1 C6 109.3(3)
C2 C1 C6 120.3(3)
C3 C2 C1 118.2(3)
C2 C3 C4 122.2(4)
C3 C4 C5 119.7(3)
C3 C4 C13 116.7(3)
C5 C4 C13 123.4(3)
C6 C5 C4 118.6(3)
C5 C6 C1 120.9(3)
C5 C6 C12 132.8(3)
C1 C6 C12 106.2(3)
N1 C7 C8 130.0(4)
N1 C7 C12 109.4(3)
C8 C7 C12 120.5(4)
C9 C8 C7 117.9(4)
C8 C9 C10 122.5(4)
C11 C10 C9 118.1(4)
C11 C10 C19 123.8(4)
C9 C10 C19 117.8(3)
C12 C11 C10 120.2(3)
C11 C12 C7 120.6(3)
C11 C12 C6 132.9(3)
C7 C12 C6 106.5(3)
N2 C13 C4 129.8(3)
N4 C14 C15 122.2(4)
N4 C14 N3 116.8(3)
C15 C14 N3 120.9(3)
C16 C15 C14 118.6(4)
C17 C16 C15 120.0(4)
C18 C17 C16 119.1(4)
C17 C18 N4 122.4(4)
N5 C19 C10 129.1(4)
N7 C20 N6 117.1(3)
N7 C20 C21 122.3(4)
N6 C20 C21 120.7(3)
C22 C21 C20 118.9(4)
C21 C22 C23 119.4(4)
C24 C23 C22 118.3(4)
N7 C24 C23 123.5(4)
N1 C25 C26 114.0(3)
C31 C26 C27 119.9(4)
C31 C26 C25 121.4(4)
C27 C26 C25 118.7(4)
C28 C27 C26 119.7(5)
C27 C28 C29 119.6(5)
C30 C29 C28 120.3(5)
C29 C30 C31 120.3(5)
C26 C31 C30 120.1(5)
N8 C32 C33 128.9(3)
N8 C32 C37 109.2(3)
C33 C32 C37 121.9(3)
C34 C33 C32 117.2(3)
C33 C34 C35 122.2(3)
C34 C35 C36 119.7(3)
C34 C35 C44 120.9(3)
C36 C35 C44 119.2(3)
C37 C36 C35 119.2(3)
C36 C37 C32 119.7(3)
C36 C37 C43 133.5(3)
C32 C37 C43 106.8(3)
C39 C38 N8 129.8(3)
C39 C38 C43 121.8(3)
N8 C38 C43 108.5(3)
C40 C39 C38 118.2(3)
C39 C40 C41 121.0(3)
C42 C41 C40 120.2(3)
C42 C41 C50 119.4(3)
C40 C41 C50 120.4(3)
C43 C42 C41 119.3(3)
C42 C43 C38 119.6(3)
C42 C43 C37 134.1(3)
C38 C43 C37 106.3(3)
N9 C44 C35 122.8(4)
N11 C45 N10 117.0(3)
N11 C45 C46 123.1(4)
N10 C45 C46 119.9(4)
C47 C46 C45 117.3(5)
C46 C47 C48 120.0(4)
C49 C48 C47 119.3(5)
N11 C49 C48 121.0(5)
N12 C50 C41 124.1(4)
N13 C51 N14 117.6(4)
N13 C51 C52 120.1(4)
N14 C51 C52 122.3(4)
C53 C52 C51 117.9(5)
C54 C53 C52 119.1(5)
C55 C54 C53 119.9(5)
C54 C55 N14 123.1(5)
N8 C56 C57 111.5(3)
C62 C57 C58 119.4(4)
C62 C57 C56 121.2(4)
C58 C57 C56 119.3(4)
C57 C58 C59 120.5(4)
C60 C59 C58 117.6(5)
C61 C60 C59 122.1(5)
C60 C61 C62 119.4(5)
C57 C62 C61 121.0(4)
N15 C63 C68 109.7(3)
N15 C63 C64 129.6(3)
C68 C63 C64 120.7(3)
C65 C64 C63 118.4(3)
C64 C65 C66 122.1(3)
C67 C66 C65 118.5(3)
C67 C66 C75 124.5(3)
C65 C66 C75 117.0(3)
C68 C67 C66 119.7(3)
C67 C68 C63 120.5(3)
C67 C68 C74 133.1(3)
C63 C68 C74 106.4(3)
N15 C69 C70 131.2(3)
N15 C69 C74 108.2(3)
C70 C69 C74 120.5(3)
C71 C70 C69 119.2(4)
C70 C71 C72 121.3(4)
C73 C72 C71 118.8(3)
C73 C72 C81 123.1(3)
C71 C72 C81 118.1(3)
C74 C73 C72 120.6(3)
C73 C74 C69 119.5(3)
C73 C74 C68 133.3(3)
C69 C74 C68 107.1(3)
N16 C75 C66 130.3(3)
N18 C76 N17 116.8(4)
N18 C76 C77 123.5(4)
N17 C76 C77 119.7(4)
C78 C77 C76 117.7(4)
C77 C78 C79 120.3(4)
C80 C79 C78 119.1(4)
C79 C80 N18 122.2(4)
N19 C81 C72 129.9(3)
N21 C82 N20 117.7(3)
N21 C82 C83 122.8(4)
N20 C82 C83 119.5(4)
C84 C83 C82 117.9(4)
C83 C84 C85 120.2(4)
C86 C85 C84 118.6(4)
N21 C86 C85 122.7(4)
N15 C87 C88 112.9(4)
C93 C88 C89 109.2(6)
C89 C88 C93' 136.2(6)
C93 C88 C87 125.8(5)
C89 C88 C87 124.5(4)
C93' C88 C87 99.2(5)
C88 C89 C90' 101.8(6)
C88 C89 C90 135.6(6)
C90 C91 C92 121.6(9)
C91 C90 C89 108.8(8)
C93 C92 C91 118.6(8)
C88 C93 C92 125.9(8)
C91' C90' C89 136.7(9)
C90' C91' C92' 107.5(9)
C91' C92' C93' 133.4(11)
C92' C93' C88 103.4(8)
C95 C94 N22 129.9(3)
C95 C94 C99 121.3(3)
N22 C94 C99 108.7(3)
C96 C95 C94 117.6(3)
C95 C96 C97 122.5(4)
C98 C97 C96 118.7(3)
C98 C97 C106 119.5(3)
C96 C97 C106 121.7(3)
C99 C98 C97 120.6(3)
C98 C99 C94 119.1(3)
C98 C99 C105 134.5(3)
C94 C99 C105 106.3(3)
N22 C100 C101 129.5(3)
N22 C100 C105 109.0(3)
C101 C100 C105 121.4(3)
C102 C101 C100 117.8(3)
C101 C102 C103 121.9(3)
C104 C103 C102 120.0(3)
C104 C103 C112 117.4(3)
C102 C103 C112 122.4(3)
C103 C104 C105 119.0(3)
C104 C105 C100 119.8(3)
C104 C105 C99 132.6(3)
C100 C105 C99 107.5(3)
N23 C106 C97 124.0(4)
N25 C107 N24 116.3(3)
N25 C107 C108 122.1(4)
N24 C107 C108 121.7(4)
C109 C108 C107 119.0(4)
C108 C109 C110 119.1(5)
C111 C110 C109 119.7(5)
N25 C111 C110 122.7(4)
N26 C112 C103 126.0(4)
N28 C113 N27 116.8(3)
N28 C113 C114 123.4(4)
N27 C113 C114 119.8(4)
C115 C114 C113 118.4(4)
C114 C115 C116 120.9(4)
C117 C116 C115 117.3(4)
N28 C117 C116 123.9(5)
N22 C118 C119 112.2(3)
C120 C119 C124 117.8(4)
C120 C119 C118 121.0(4)
C124 C119 C118 121.0(4)
C119 C120 C121 122.3(4)
C120 C121 C122 118.2(5)
C123 C122 C121 120.4(5)
C122 C123 C124 120.3(5)
C119 C124 C123 120.8(4)
N29 C126 C125 179.9(6)
N30 C128 C127 177.8(5)
N31 C130 C129 153.5(17)
N31 C130 C29' 147.3(13)
C130 N31 Ni2 160.2(7)
N32 C132 C31' 169.3(8)
N32 C132 C131 166.5(7)
N33 C134 C133 179.2(5)
N34 C136 C135 178.0(5)
N35 C138 C137 177.7(5)
N36 C140 C139 172.5(7)
N36 C140 C39' 139.8(10)
O12 Cl1 O11 109.2(3)
O12 Cl1 O14 114.7(3)
O11 Cl1 O14 112.9(3)
O12 Cl1 O13 109.0(3)
O11 Cl1 O13 102.4(3)
O14 Cl1 O13 107.8(3)
O21 Cl2 O22 109.1(5)
O21 Cl2 O23 111.9(3)
O22 Cl2 O23 100.4(4)
O21 Cl2 O24 114.6(3)
O22 Cl2 O24 103.8(3)
O23 Cl2 O24 115.5(3)
O34 Cl3 O32 110.0(2)
O34 Cl3 O31 112.1(2)
O32 Cl3 O31 109.8(2)
O34 Cl3 O33 108.6(2)
O32 Cl3 O33 110.2(2)
O31 Cl3 O33 106.06(19)
O42 Cl4 O43 113.5(3)
O42 Cl4 O41 110.6(4)
O43 Cl4 O41 106.0(3)
O42 Cl4 O44 111.1(3)
O43 Cl4 O44 110.6(3)
O41 Cl4 O44 104.6(3)
O72 Cl7 O73 120.5(3)
O72 Cl7 O74 106.5(4)
O73 Cl7 O74 109.3(4)
O72 Cl7 O71 109.3(4)
O73 Cl7 O71 104.2(4)
O74 Cl7 O71 106.3(5)
O52 Cl5 O51 102.6(4)
O52 Cl5 O53 140.4(5)
O51 Cl5 O53 109.5(4)
O51' Cl5 O54' 107.5(6)
O51' Cl5 O53' 114.3(5)
O54' Cl5 O53' 93.9(5)
O51' Cl5 O52' 140.4(6)
O54' Cl5 O52' 98.5(5)
O53' Cl5 O52' 92.7(4)
O52 Cl5 O54 94.4(5)
O51 Cl5 O54 96.8(5)
O53 Cl5 O54 104.0(5)
O64 Cl6 O63 137.2(7)
O64 Cl6 O61 117.5(6)
O63 Cl6 O61 99.5(5)
O62' Cl6 O61 134.4(6)
O62' Cl6 O64' 97.3(6)
O61 Cl6 O64' 103.1(3)
O62' Cl6 O63' 108.4(6)
O61 Cl6 O63' 112.4(4)
O64' Cl6 O63' 88.5(4)
O64 Cl6 O62 104.5(7)
O63 Cl6 O62 91.2(6)
O61 Cl6 O62 96.4(5)
O84 Cl8 O81 96.3(6)
O84 Cl8 O83 107.8(6)
O81 Cl8 O83 112.9(4)
O84 Cl8 O82 113.6(6)
O81 Cl8 O82 119.3(5)
O83 Cl8 O82 106.3(4)
O82 Cl8' O84' 115.7(8)
O82 Cl8' O81 119.5(5)
O84' Cl8' O81 115.3(8)
O82 Cl8' O83 101.9(4)
O84' Cl8' O83 105.2(8)
O81 Cl8' O83 94.1(4)
N300 C301 C300 176.2(8)
N310 C310 C311 154.1(13)
C212 O210 C211 102.2(9)
C213 C212 O210 107.7(10)
O210 C211 C210 107.4(10)
loop_
_geom_bond_atom_site_label_1
_geom_bond_atom_site_label_2
_geom_bond_distance
Ni1 N30 2.044(3)
Ni1 N11 2.048(3)
Ni1 N4 2.053(3)
Ni1 N2 2.083(3)
Ni1 N29 2.091(4)
Ni1 N9 2.156(3)
Ni2 N7 2.047(3)
Ni2 N14 2.063(3)
Ni2 N31 2.067(4)
Ni2 N5 2.070(3)
Ni2 N32 2.105(3)
Ni2 N12 2.180(3)
Ni3 N34 2.031(3)
Ni3 N28 2.050(3)
Ni3 N21 2.066(3)
Ni3 N33 2.071(3)
Ni3 N19 2.091(3)
Ni3 N26 2.189(3)
Ni4 N18 2.058(3)
Ni4 N25 2.060(3)
Ni4 N35 2.064(3)
Ni4 N36 2.080(3)
Ni4 N16 2.088(3)
Ni4 N23 2.138(3)
N1 C7 1.369(5)
N1 C1 1.374(5)
N1 C25 1.451(5)
N2 C13 1.300(4)
N2 N3 1.371(4)
N3 C14 1.384(5)
N4 C14 1.333(5)
N4 C18 1.359(5)
N5 C19 1.309(5)
N5 N6 1.382(4)
N6 C20 1.358(5)
N7 C20 1.340(5)
N7 C24 1.340(5)
N8 C32 1.380(4)
N8 C38 1.393(4)
N8 C56 1.473(4)
N9 C44 1.278(5)
N9 N10 1.377(4)
N10 C45 1.344(5)
N11 C45 1.340(5)
N11 C49 1.365(5)
N12 C50 1.279(5)
N12 N13 1.381(4)
N13 C51 1.335(5)
N14 C51 1.335(5)
N14 C55 1.349(5)
N15 C63 1.377(5)
N15 C69 1.387(5)
N15 C87 1.460(5)
N16 C75 1.291(5)
N16 N17 1.366(4)
N17 C76 1.370(5)
N18 C76 1.326(5)
N18 C80 1.378(5)
N19 C81 1.295(5)
N19 N20 1.375(4)
N20 C82 1.359(5)
N21 C82 1.340(5)
N21 C86 1.354(5)
N22 C100 1.390(4)
N22 C94 1.393(4)
N22 C118 1.463(4)
N23 C106 1.279(5)
N23 N24 1.366(4)
N24 C107 1.367(5)
N25 C107 1.337(5)
N25 C111 1.347(5)
N26 C112 1.278(5)
N26 N27 1.399(4)
N27 C113 1.368(5)
N28 C113 1.318(5)
N28 C117 1.358(5)
N29 C126 1.116(5)
N30 C128 1.109(5)
N32 C132 1.096(6)
N33 C134 1.128(5)
N34 C136 1.133(5)
N35 C138 1.130(5)
N36 C140 1.122(6)
C1 C2 1.397(5)
C1 C6 1.408(5)
C2 C3 1.379(5)
C3 C4 1.395(5)
C4 C5 1.404(5)
C4 C13 1.464(5)
C5 C6 1.388(5)
C6 C12 1.436(5)
C7 C8 1.385(6)
C7 C12 1.404(5)
C8 C9 1.372(6)
C9 C10 1.411(6)
C10 C11 1.386(5)
C10 C19 1.462(5)
C11 C12 1.369(5)
C14 C15 1.378(5)
C15 C16 1.366(6)
C16 C17 1.354(6)
C17 C18 1.355(6)
C20 C21 1.383(5)
C21 C22 1.356(6)
C22 C23 1.390(6)
C23 C24 1.355(6)
C25 C26 1.508(6)
C26 C31 1.380(6)
C26 C27 1.390(6)
C27 C28 1.388(7)
C28 C29 1.407(8)
C29 C30 1.346(8)
C30 C31 1.400(7)
C32 C33 1.399(5)
C32 C37 1.405(5)
C33 C34 1.374(5)
C34 C35 1.395(5)
C35 C36 1.402(5)
C35 C44 1.462(5)
C36 C37 1.377(5)
C37 C43 1.456(5)
C38 C39 1.384(5)
C38 C43 1.419(5)
C39 C40 1.381(5)
C40 C41 1.416(5)
C41 C42 1.394(5)
C41 C50 1.452(5)
C42 C43 1.382(5)
C45 C46 1.392(6)
C46 C47 1.386(7)
C47 C48 1.399(7)
C48 C49 1.374(7)
C51 C52 1.402(6)
C52 C53 1.374(7)
C53 C54 1.372(8)
C54 C55 1.339(6)
C56 C57 1.502(5)
C57 C62 1.373(5)
C57 C58 1.382(6)
C58 C59 1.418(6)
C59 C60 1.410(7)
C60 C61 1.335(7)
C61 C62 1.412(6)
C63 C68 1.402(5)
C63 C64 1.403(5)
C64 C65 1.361(5)
C65 C66 1.430(5)
C66 C67 1.397(5)
C66 C75 1.451(5)
C67 C68 1.384(5)
C68 C74 1.433(5)
C69 C70 1.390(5)
C69 C74 1.417(5)
C70 C71 1.366(5)
C71 C72 1.424(5)
C72 C73 1.387(5)
C72 C81 1.454(5)
C73 C74 1.384(5)
C76 C77 1.399(6)
C77 C78 1.368(6)
C78 C79 1.378(7)
C79 C80 1.364(6)
C82 C83 1.399(5)
C83 C84 1.370(6)
C84 C85 1.382(7)
C85 C86 1.374(6)
C87 C88 1.511(6)
C88 C93 1.354(10)
C88 C89 1.354(7)
C88 C93' 1.485(10)
C89 C90' 1.442(10)
C89 C90 1.449(10)
C91 C90 1.389(13)
C91 C92 1.453(12)
C92 C93 1.397(12)
C90' C91' 1.333(11)
C91' C92' 1.388(12)
C92' C93' 1.389(13)
C94 C95 1.389(5)
C94 C99 1.424(5)
C95 C96 1.383(5)
C96 C97 1.407(5)
C97 C98 1.391(5)
C97 C106 1.446(5)
C98 C99 1.379(5)
C99 C105 1.434(5)
C100 C101 1.394(5)
C100 C105 1.403(5)
C101 C102 1.381(5)
C102 C103 1.400(5)
C103 C104 1.391(5)
C103 C112 1.452(5)
C104 C105 1.398(5)
C107 C108 1.396(6)
C108 C109 1.345(6)
C109 C110 1.377(7)
C110 C111 1.348(6)
C113 C114 1.401(5)
C114 C115 1.320(6)
C115 C116 1.384(7)
C116 C117 1.360(6)
C118 C119 1.498(5)
C119 C120 1.380(5)
C119 C124 1.387(5)
C120 C121 1.390(6)
C121 C122 1.393(7)
C122 C123 1.365(7)
C123 C124 1.388(6)
C125 C126 1.479(7)
C127 C128 1.443(6)
C130 N31 1.024(11)
C130 C129 1.467(15)
C130 C29' 1.488(14)
C131 C132 1.561(13)
C31' C132 1.444(12)
C133 C134 1.451(6)
C135 C136 1.486(6)
C137 C138 1.453(6)
C139 C140 1.480(10)
C39' C140 1.56(2)
Cl1 O12 1.399(4)
Cl1 O11 1.407(4)
Cl1 O14 1.407(4)
Cl1 O13 1.426(4)
Cl2 O21 1.335(4)
Cl2 O22 1.385(5)
Cl2 O23 1.404(4)
Cl2 O24 1.416(4)
Cl3 O34 1.413(3)
Cl3 O32 1.426(3)
Cl3 O31 1.437(3)
Cl3 O33 1.456(3)
Cl4 O42 1.342(4)
Cl4 O43 1.372(3)
Cl4 O41 1.406(5)
Cl4 O44 1.423(3)
Cl7 O72 1.345(4)
Cl7 O73 1.359(4)
Cl7 O74 1.416(6)
Cl7 O71 1.434(6)
Cl5 O51' 1.312(11)
Cl5 O52 1.356(8)
Cl5 O51 1.384(7)
Cl5 O53 1.405(7)
Cl5 O54' 1.404(9)
Cl5 O53' 1.423(6)
Cl5 O52' 1.568(9)
Cl5 O54 1.727(12)
Cl6 O64 1.202(10)
Cl6 O63 1.284(9)
Cl6 O62' 1.361(12)
Cl6 O61 1.410(5)
Cl6 O64' 1.671(7)
Cl6 O63' 1.679(9)
Cl6 O62 1.686(13)
O81 Cl8 1.317(5)
O81 Cl8' 1.464(7)
O82 Cl8' 1.313(6)
O82 Cl8 1.463(7)
O83 Cl8 1.400(6)
O83 Cl8' 1.627(7)
Cl8 O84 1.263(11)
Cl8' O84' 1.346(16)
O400 C400 1.427(6)
C300 C301 1.400(10)
N300 C301 1.250(9)
N310 C310 1.021(13)
C310 C311 1.279(14)
O210 C212 1.402(12)
O210 C211 1.424(12)
C212 C213 1.359(12)
C210 C211 1.604(13)
